MODEL 1
REMARK VINA RESULT:     -12.2      0.000      0.000
REMARK  Name = 3815
REMARK  0 active torsions:
REMARK  status: ('A' for Active; 'I' for Inactive)
REMARK                            x       y       z     vdW  Elec       q    Type
REMARK                         _______ _______ _______ _____ _____    ______ ____
ROOT
ATOM      1  O   UNL     1      31.046 -22.701 -16.872  0.00  0.00    -0.270 OA
ATOM      2  N   UNL     1      37.379 -23.505 -15.369  0.00  0.00    -0.352 N 
ATOM      3  N   UNL     1      36.451 -22.184 -17.642  0.00  0.00    -0.352 N 
ATOM      4  N   UNL     1      31.386 -23.874 -14.867  0.00  0.00    -0.297 N 
ATOM      5  C   UNL     1      33.669 -23.839 -14.877  0.00  0.00    +0.003 A 
ATOM      6  C   UNL     1      35.054 -23.907 -14.732  0.00  0.00    +0.016 A 
ATOM      7  C   UNL     1      34.164 -22.644 -16.904  0.00  0.00    +0.022 A 
ATOM      8  C   UNL     1      36.053 -23.379 -15.611  0.00  0.00    +0.072 A 
ATOM      9  C   UNL     1      33.221 -23.172 -16.022  0.00  0.00    +0.053 A 
ATOM     10  C   UNL     1      35.588 -22.717 -16.750  0.00  0.00    +0.073 A 
ATOM     11  C   UNL     1      32.512 -24.326 -14.072  0.00  0.00    +0.117 C 
ATOM     12  C   UNL     1      36.008 -24.462 -13.766  0.00  0.00    +0.017 A 
ATOM     13  C   UNL     1      34.212 -21.901 -18.173  0.00  0.00    +0.017 A 
ATOM     14  C   UNL     1      37.360 -24.208 -14.172  0.00  0.00    +0.057 A 
ATOM     15  C   UNL     1      35.569 -21.651 -18.571  0.00  0.00    +0.057 A 
ATOM     16  C   UNL     1      31.763 -23.191 -16.022  0.00  0.00    +0.246 C 
ATOM     17  C   UNL     1      35.807 -25.173 -12.559  0.00  0.00    +0.001 C 
ATOM     18  C   UNL     1      33.191 -21.414 -19.025  0.00  0.00    +0.001 C 
ATOM     19  C   UNL     1      38.450 -24.644 -13.406  0.00  0.00    +0.017 C 
ATOM     20  C   UNL     1      35.878 -20.957 -19.750  0.00  0.00    +0.017 C 
ATOM     21  C   UNL     1      36.902 -25.603 -11.803  0.00  0.00    +0.000 C 
ATOM     22  C   UNL     1      33.510 -20.724 -20.200  0.00  0.00    +0.000 C 
ATOM     23  C   UNL     1      38.201 -25.342 -12.222  0.00  0.00    +0.001 C 
ATOM     24  C   UNL     1      34.834 -20.500 -20.555  0.00  0.00    +0.001 C 
ATOM     25  H   UNL     1      38.147 -23.186 -15.897  0.00  0.00    +0.166 HD
ATOM     26  H   UNL     1      37.435 -22.175 -17.635  0.00  0.00    +0.166 HD
ATOM     27  H   UNL     1      30.447 -24.032 -14.616  0.00  0.00    +0.150 HD
ENDROOT
TORSDOF 0
ENDMDL
MODEL 2
REMARK VINA RESULT:     -12.2      2.172      4.695
REMARK  Name = 3815
REMARK  0 active torsions:
REMARK  status: ('A' for Active; 'I' for Inactive)
REMARK                            x       y       z     vdW  Elec       q    Type
REMARK                         _______ _______ _______ _____ _____    ______ ____
ROOT
ATOM      1  O   UNL     1      37.461 -22.711 -16.131  0.00  0.00    -0.270 OA
ATOM      2  N   UNL     1      30.953 -23.119 -16.832  0.00  0.00    -0.352 N 
ATOM      3  N   UNL     1      32.660 -21.859 -18.641  0.00  0.00    -0.352 N 
ATOM      4  N   UNL     1      36.405 -23.856 -14.375  0.00  0.00    -0.297 N 
ATOM      5  C   UNL     1      34.262 -23.681 -15.143  0.00  0.00    +0.003 A 
ATOM      6  C   UNL     1      32.906 -23.664 -15.467  0.00  0.00    +0.016 A 
ATOM      7  C   UNL     1      34.540 -22.460 -17.195  0.00  0.00    +0.022 A 
ATOM      8  C   UNL     1      32.289 -23.076 -16.617  0.00  0.00    +0.072 A 
ATOM      9  C   UNL     1      35.103 -23.046 -16.061  0.00  0.00    +0.053 A 
ATOM     10  C   UNL     1      33.145 -22.445 -17.523  0.00  0.00    +0.073 A 
ATOM     11  C   UNL     1      35.054 -24.237 -14.008  0.00  0.00    +0.117 C 
ATOM     12  C   UNL     1      31.654 -24.157 -14.883  0.00  0.00    +0.017 A 
ATOM     13  C   UNL     1      34.961 -21.715 -18.392  0.00  0.00    +0.017 A 
ATOM     14  C   UNL     1      30.532 -23.819 -15.709  0.00  0.00    +0.057 A 
ATOM     15  C   UNL     1      33.830 -21.381 -19.212  0.00  0.00    +0.057 A 
ATOM     16  C   UNL     1      36.474 -23.154 -15.576  0.00  0.00    +0.246 C 
ATOM     17  C   UNL     1      31.400 -24.877 -13.691  0.00  0.00    +0.001 C 
ATOM     18  C   UNL     1      36.233 -21.292 -18.847  0.00  0.00    +0.001 C 
ATOM     19  C   UNL     1      29.225 -24.186 -15.358  0.00  0.00    +0.017 C 
ATOM     20  C   UNL     1      33.972 -20.669 -20.412  0.00  0.00    +0.017 C 
ATOM     21  C   UNL     1      30.092 -25.237 -13.350  0.00  0.00    +0.000 C 
ATOM     22  C   UNL     1      36.364 -20.581 -20.044  0.00  0.00    +0.000 C 
ATOM     23  C   UNL     1      29.024 -24.896 -14.171  0.00  0.00    +0.001 C 
ATOM     24  C   UNL     1      35.249 -20.275 -20.814  0.00  0.00    +0.001 C 
ATOM     25  H   UNL     1      30.425 -22.753 -17.578  0.00  0.00    +0.166 HD
ATOM     26  H   UNL     1      31.732 -21.791 -18.962  0.00  0.00    +0.166 HD
ATOM     27  H   UNL     1      37.196 -24.072 -13.830  0.00  0.00    +0.150 HD
ENDROOT
TORSDOF 0
ENDMDL
MODEL 3
REMARK VINA RESULT:     -12.1      2.082      6.408
REMARK  Name = 3815
REMARK  0 active torsions:
REMARK  status: ('A' for Active; 'I' for Inactive)
REMARK                            x       y       z     vdW  Elec       q    Type
REMARK                         _______ _______ _______ _____ _____    ______ ____
ROOT
ATOM      1  O   UNL     1      34.832 -24.674 -13.238  0.00  0.00    -0.270 OA
ATOM      2  N   UNL     1      32.644 -21.797 -18.710  0.00  0.00    -0.352 N 
ATOM      3  N   UNL     1      31.017 -23.068 -16.836  0.00  0.00    -0.352 N 
ATOM      4  N   UNL     1      36.540 -23.725 -14.538  0.00  0.00    -0.297 N 
ATOM      5  C   UNL     1      35.227 -22.915 -16.222  0.00  0.00    +0.003 A 
ATOM      6  C   UNL     1      34.574 -22.361 -17.322  0.00  0.00    +0.016 A 
ATOM      7  C   UNL     1      33.022 -23.577 -15.529  0.00  0.00    +0.022 A 
ATOM      8  C   UNL     1      33.170 -22.369 -17.602  0.00  0.00    +0.072 A 
ATOM      9  C   UNL     1      34.397 -23.548 -15.292  0.00  0.00    +0.053 A 
ATOM     10  C   UNL     1      32.356 -23.006 -16.663  0.00  0.00    +0.073 A 
ATOM     11  C   UNL     1      36.652 -22.995 -15.787  0.00  0.00    +0.117 C 
ATOM     12  C   UNL     1      34.947 -21.623 -18.534  0.00  0.00    +0.017 A 
ATOM     13  C   UNL     1      31.792 -24.086 -14.902  0.00  0.00    +0.017 A 
ATOM     14  C   UNL     1      33.791 -21.309 -19.322  0.00  0.00    +0.057 A 
ATOM     15  C   UNL     1      30.640 -23.767 -15.699  0.00  0.00    +0.057 A 
ATOM     16  C   UNL     1      35.229 -24.068 -14.214  0.00  0.00    +0.246 C 
ATOM     17  C   UNL     1      36.207 -21.195 -19.016  0.00  0.00    +0.001 C 
ATOM     18  C   UNL     1      31.566 -24.802 -13.701  0.00  0.00    +0.001 C 
ATOM     19  C   UNL     1      33.895 -20.604 -20.529  0.00  0.00    +0.017 C 
ATOM     20  C   UNL     1      29.346 -24.146 -15.312  0.00  0.00    +0.017 C 
ATOM     21  C   UNL     1      36.299 -20.493 -20.222  0.00  0.00    +0.000 C 
ATOM     22  C   UNL     1      30.271 -25.175 -13.325  0.00  0.00    +0.000 C 
ATOM     23  C   UNL     1      35.160 -20.204 -20.964  0.00  0.00    +0.001 C 
ATOM     24  C   UNL     1      29.179 -24.851 -14.120  0.00  0.00    +0.001 C 
ATOM     25  H   UNL     1      31.705 -21.742 -19.003  0.00  0.00    +0.166 HD
ATOM     26  H   UNL     1      30.462 -22.714 -17.567  0.00  0.00    +0.166 HD
ATOM     27  H   UNL     1      37.314 -23.955 -13.975  0.00  0.00    +0.150 HD
ENDROOT
TORSDOF 0
ENDMDL
MODEL 4
REMARK VINA RESULT:     -12.0      0.936      5.962
REMARK  Name = 3815
REMARK  0 active torsions:
REMARK  status: ('A' for Active; 'I' for Inactive)
REMARK                            x       y       z     vdW  Elec       q    Type
REMARK                         _______ _______ _______ _____ _____    ______ ____
ROOT
ATOM      1  O   UNL     1      32.551 -24.901 -13.159  0.00  0.00    -0.270 OA
ATOM      2  N   UNL     1      36.494 -22.146 -17.616  0.00  0.00    -0.352 N 
ATOM      3  N   UNL     1      37.380 -23.458 -15.322  0.00  0.00    -0.352 N 
ATOM      4  N   UNL     1      31.391 -23.900 -14.936  0.00  0.00    -0.297 N 
ATOM      5  C   UNL     1      33.206 -23.152 -16.102  0.00  0.00    +0.003 A 
ATOM      6  C   UNL     1      34.199 -22.631 -16.931  0.00  0.00    +0.016 A 
ATOM      7  C   UNL     1      35.043 -23.886 -14.736  0.00  0.00    +0.022 A 
ATOM      8  C   UNL     1      35.617 -22.691 -16.742  0.00  0.00    +0.072 A 
ATOM      9  C   UNL     1      33.668 -23.807 -14.957  0.00  0.00    +0.053 A 
ATOM     10  C   UNL     1      36.060 -23.348 -15.592  0.00  0.00    +0.073 A 
ATOM     11  C   UNL     1      31.715 -23.176 -16.151  0.00  0.00    +0.117 C 
ATOM     12  C   UNL     1      34.266 -21.888 -18.194  0.00  0.00    +0.017 A 
ATOM     13  C   UNL     1      35.985 -24.431 -13.746  0.00  0.00    +0.017 A 
ATOM     14  C   UNL     1      35.625 -21.621 -18.564  0.00  0.00    +0.057 A 
ATOM     15  C   UNL     1      37.343 -24.159 -14.126  0.00  0.00    +0.057 A 
ATOM     16  C   UNL     1      32.513 -24.287 -14.207  0.00  0.00    +0.246 C 
ATOM     17  C   UNL     1      33.246 -21.418 -19.056  0.00  0.00    +0.001 C 
ATOM     18  C   UNL     1      35.784 -25.146 -12.540  0.00  0.00    +0.001 C 
ATOM     19  C   UNL     1      35.942 -20.922 -19.737  0.00  0.00    +0.017 C 
ATOM     20  C   UNL     1      38.428 -24.579 -13.341  0.00  0.00    +0.017 C 
ATOM     21  C   UNL     1      33.574 -20.722 -20.223  0.00  0.00    +0.000 C 
ATOM     22  C   UNL     1      36.873 -25.558 -11.764  0.00  0.00    +0.000 C 
ATOM     23  C   UNL     1      34.901 -20.479 -20.556  0.00  0.00    +0.001 C 
ATOM     24  C   UNL     1      38.175 -25.278 -12.161  0.00  0.00    +0.001 C 
ATOM     25  H   UNL     1      37.478 -22.126 -17.589  0.00  0.00    +0.166 HD
ATOM     26  H   UNL     1      38.155 -23.132 -15.833  0.00  0.00    +0.166 HD
ATOM     27  H   UNL     1      30.469 -24.098 -14.655  0.00  0.00    +0.150 HD
ENDROOT
TORSDOF 0
ENDMDL
MODEL 5
REMARK VINA RESULT:     -11.0      1.686      4.440
REMARK  Name = 3815
REMARK  0 active torsions:
REMARK  status: ('A' for Active; 'I' for Inactive)
REMARK                            x       y       z     vdW  Elec       q    Type
REMARK                         _______ _______ _______ _____ _____    ______ ____
ROOT
ATOM      1  O   UNL     1      32.642 -21.908 -18.430  0.00  0.00    -0.270 OA
ATOM      2  N   UNL     1      34.357 -24.917 -12.861  0.00  0.00    -0.352 N 
ATOM      3  N   UNL     1      31.726 -24.473 -13.670  0.00  0.00    -0.352 N 
ATOM      4  N   UNL     1      34.965 -22.070 -18.136  0.00  0.00    -0.297 N 
ATOM      5  C   UNL     1      34.943 -23.155 -16.127  0.00  0.00    +0.003 A 
ATOM      6  C   UNL     1      35.106 -23.814 -14.909  0.00  0.00    +0.016 A 
ATOM      7  C   UNL     1      32.591 -23.388 -15.686  0.00  0.00    +0.022 A 
ATOM      8  C   UNL     1      34.082 -24.287 -14.027  0.00  0.00    +0.072 A 
ATOM      9  C   UNL     1      33.618 -22.942 -16.518  0.00  0.00    +0.053 A 
ATOM     10  C   UNL     1      32.764 -24.065 -14.433  0.00  0.00    +0.073 A 
ATOM     11  C   UNL     1      35.882 -22.606 -17.148  0.00  0.00    +0.117 C 
ATOM     12  C   UNL     1      36.222 -24.267 -14.073  0.00  0.00    +0.017 A 
ATOM     13  C   UNL     1      31.121 -23.408 -15.639  0.00  0.00    +0.017 A 
ATOM     14  C   UNL     1      35.746 -24.909 -12.882  0.00  0.00    +0.057 A 
ATOM     15  C   UNL     1      30.654 -24.053 -14.443  0.00  0.00    +0.057 A 
ATOM     16  C   UNL     1      33.624 -22.249 -17.801  0.00  0.00    +0.246 C 
ATOM     17  C   UNL     1      37.622 -24.173 -14.253  0.00  0.00    +0.001 C 
ATOM     18  C   UNL     1      30.137 -22.923 -16.534  0.00  0.00    +0.001 C 
ATOM     19  C   UNL     1      36.629 -25.427 -11.925  0.00  0.00    +0.017 C 
ATOM     20  C   UNL     1      29.286 -24.197 -14.166  0.00  0.00    +0.017 C 
ATOM     21  C   UNL     1      38.494 -24.694 -13.292  0.00  0.00    +0.000 C 
ATOM     22  C   UNL     1      28.776 -23.071 -16.248  0.00  0.00    +0.000 C 
ATOM     23  C   UNL     1      38.003 -25.310 -12.147  0.00  0.00    +0.001 C 
ATOM     24  C   UNL     1      28.359 -23.699 -15.082  0.00  0.00    +0.001 C 
ATOM     25  H   UNL     1      33.743 -25.281 -12.184  0.00  0.00    +0.166 HD
ATOM     26  H   UNL     1      31.730 -24.942 -12.805  0.00  0.00    +0.166 HD
ATOM     27  H   UNL     1      35.260 -21.625 -18.963  0.00  0.00    +0.150 HD
ENDROOT
TORSDOF 0
ENDMDL
MODEL 6
REMARK VINA RESULT:     -10.7      2.071      6.403
REMARK  Name = 3815
REMARK  0 active torsions:
REMARK  status: ('A' for Active; 'I' for Inactive)
REMARK                            x       y       z     vdW  Elec       q    Type
REMARK                         _______ _______ _______ _____ _____    ______ ____
ROOT
ATOM      1  O   UNL     1      36.634 -22.385 -17.615  0.00  0.00    -0.270 OA
ATOM      2  N   UNL     1      31.619 -24.457 -13.932  0.00  0.00    -0.352 N 
ATOM      3  N   UNL     1      34.307 -24.826 -13.291  0.00  0.00    -0.352 N 
ATOM      4  N   UNL     1      34.533 -21.867 -18.526  0.00  0.00    -0.297 N 
ATOM      5  C   UNL     1      33.251 -22.794 -16.880  0.00  0.00    +0.003 A 
ATOM      6  C   UNL     1      32.329 -23.307 -15.968  0.00  0.00    +0.016 A 
ATOM      7  C   UNL     1      34.900 -23.658 -15.358  0.00  0.00    +0.022 A 
ATOM      8  C   UNL     1      32.600 -24.000 -14.745  0.00  0.00    +0.072 A 
ATOM      9  C   UNL     1      34.594 -22.987 -16.542  0.00  0.00    +0.053 A 
ATOM     10  C   UNL     1      33.947 -24.184 -14.424  0.00  0.00    +0.073 A 
ATOM     11  C   UNL     1      33.139 -22.062 -18.175  0.00  0.00    +0.117 C 
ATOM     12  C   UNL     1      30.869 -23.377 -15.839  0.00  0.00    +0.017 A 
ATOM     13  C   UNL     1      36.080 -24.094 -14.595  0.00  0.00    +0.017 A 
ATOM     14  C   UNL     1      30.490 -24.058 -14.635  0.00  0.00    +0.057 A 
ATOM     15  C   UNL     1      35.690 -24.774 -13.391  0.00  0.00    +0.057 A 
ATOM     16  C   UNL     1      35.419 -22.397 -17.590  0.00  0.00    +0.246 C 
ATOM     17  C   UNL     1      29.834 -22.901 -16.679  0.00  0.00    +0.001 C 
ATOM     18  C   UNL     1      37.468 -23.960 -14.837  0.00  0.00    +0.001 C 
ATOM     19  C   UNL     1      29.144 -24.249 -14.293  0.00  0.00    +0.017 C 
ATOM     20  C   UNL     1      36.637 -25.286 -12.492  0.00  0.00    +0.017 C 
ATOM     21  C   UNL     1      28.495 -23.097 -16.327  0.00  0.00    +0.000 C 
ATOM     22  C   UNL     1      38.404 -24.475 -13.934  0.00  0.00    +0.000 C 
ATOM     23  C   UNL     1      28.158 -23.761 -15.153  0.00  0.00    +0.001 C 
ATOM     24  C   UNL     1      37.993 -25.128 -12.779  0.00  0.00    +0.001 C 
ATOM     25  H   UNL     1      31.687 -24.941 -13.078  0.00  0.00    +0.166 HD
ATOM     26  H   UNL     1      33.744 -25.222 -12.588  0.00  0.00    +0.166 HD
ATOM     27  H   UNL     1      34.826 -21.404 -19.344  0.00  0.00    +0.150 HD
ENDROOT
TORSDOF 0
ENDMDL
MODEL 7
REMARK VINA RESULT:     -10.0      2.269      6.862
REMARK  Name = 3815
REMARK  0 active torsions:
REMARK  status: ('A' for Active; 'I' for Inactive)
REMARK                            x       y       z     vdW  Elec       q    Type
REMARK                         _______ _______ _______ _____ _____    ______ ____
ROOT
ATOM      1  O   UNL     1      36.514 -23.844 -14.501  0.00  0.00    -0.270 OA
ATOM      2  N   UNL     1      32.541 -21.208 -19.004  0.00  0.00    -0.352 N 
ATOM      3  N   UNL     1      31.669 -22.544 -16.717  0.00  0.00    -0.352 N 
ATOM      4  N   UNL     1      37.664 -22.813 -16.268  0.00  0.00    -0.297 N 
ATOM      5  C   UNL     1      35.841 -22.118 -17.454  0.00  0.00    +0.003 A 
ATOM      6  C   UNL     1      34.842 -21.625 -18.293  0.00  0.00    +0.016 A 
ATOM      7  C   UNL     1      34.011 -22.903 -16.106  0.00  0.00    +0.022 A 
ATOM      8  C   UNL     1      33.424 -21.726 -18.119  0.00  0.00    +0.072 A 
ATOM      9  C   UNL     1      35.386 -22.784 -16.312  0.00  0.00    +0.053 A 
ATOM     10  C   UNL     1      32.988 -22.395 -16.973  0.00  0.00    +0.073 A 
ATOM     11  C   UNL     1      37.332 -22.100 -17.488  0.00  0.00    +0.117 C 
ATOM     12  C   UNL     1      34.767 -20.886 -19.558  0.00  0.00    +0.017 A 
ATOM     13  C   UNL     1      33.075 -23.476 -15.126  0.00  0.00    +0.017 A 
ATOM     14  C   UNL     1      33.405 -20.660 -19.943  0.00  0.00    +0.057 A 
ATOM     15  C   UNL     1      31.713 -23.244 -15.521  0.00  0.00    +0.057 A 
ATOM     16  C   UNL     1      36.546 -23.231 -15.550  0.00  0.00    +0.246 C 
ATOM     17  C   UNL     1      35.783 -20.390 -20.410  0.00  0.00    +0.001 C 
ATOM     18  C   UNL     1      33.283 -24.184 -13.917  0.00  0.00    +0.001 C 
ATOM     19  C   UNL     1      33.080 -19.971 -21.120  0.00  0.00    +0.017 C 
ATOM     20  C   UNL     1      30.633 -23.696 -14.749  0.00  0.00    +0.017 C 
ATOM     21  C   UNL     1      35.447 -19.704 -21.582  0.00  0.00    +0.000 C 
ATOM     22  C   UNL     1      32.198 -24.631 -13.155  0.00  0.00    +0.000 C 
ATOM     23  C   UNL     1      34.117 -19.500 -21.929  0.00  0.00    +0.001 C 
ATOM     24  C   UNL     1      30.893 -24.389 -13.567  0.00  0.00    +0.001 C 
ATOM     25  H   UNL     1      31.557 -21.216 -18.987  0.00  0.00    +0.166 HD
ATOM     26  H   UNL     1      30.891 -22.238 -17.237  0.00  0.00    +0.166 HD
ATOM     27  H   UNL     1      38.588 -22.985 -15.977  0.00  0.00    +0.150 HD
ENDROOT
TORSDOF 0
ENDMDL
