MODEL 1
REMARK VINA RESULT:     -11.8      0.000      0.000
REMARK  Name = 54766013
REMARK  5 active torsions:
REMARK  status: ('A' for Active; 'I' for Inactive)
REMARK    1  A    between atoms: C_3  and  C_11
REMARK    2  A    between atoms: C_4  and  C_18
REMARK    3  A    between atoms: C_5  and  C_24
REMARK    4  A    between atoms: C_24  and  N_25
REMARK    5  A    between atoms: N_25  and  C_28
REMARK                            x       y       z     vdW  Elec       q    Type
REMARK                         _______ _______ _______ _____ _____    ______ ____
ROOT
ATOM      1  N   UNL     1      36.741 -22.698 -16.424  0.00  0.00    -0.315 N 
ATOM      2  N   UNL     1      34.646 -22.465 -17.122  0.00  0.00    -0.317 N 
ATOM      3  C   UNL     1      34.675 -23.169 -15.946  0.00  0.00    +0.063 C 
ATOM      4  C   UNL     1      35.964 -23.326 -15.492  0.00  0.00    +0.085 C 
ATOM      5  C   UNL     1      35.906 -22.196 -17.384  0.00  0.00    +0.164 C 
ATOM      6  H   UNL     1      37.722 -22.620 -16.408  0.00  0.00    +0.148 HD
ATOM      7  H   UNL     1      33.856 -22.216 -17.655  0.00  0.00    +0.148 HD
ENDROOT
BRANCH   3  11
ATOM      8  N   UNL     1      31.058 -23.862 -15.344  0.00  0.00    -0.170 N 
ATOM      9  N   UNL     1      29.788 -23.716 -15.799  0.00  0.00    -0.150 NA
ATOM     10  N   UNL     1      29.784 -24.859 -13.820  0.00  0.00    -0.206 NA
ATOM     11  C   UNL     1      33.431 -23.657 -15.319  0.00  0.00    +0.031 C 
ATOM     12  C   UNL     1      32.248 -23.417 -15.924  0.00  0.00    +0.092 C 
ATOM     13  C   UNL     1      33.409 -24.388 -14.049  0.00  0.00    +0.006 C 
ATOM     14  C   UNL     1      31.025 -24.561 -14.135  0.00  0.00    +0.157 C 
ATOM     15  C   UNL     1      32.264 -24.817 -13.489  0.00  0.00    +0.036 C 
ATOM     16  C   UNL     1      29.076 -24.328 -14.854  0.00  0.00    +0.219 C 
ENDBRANCH   3  11
BRANCH   4  18
ATOM     17  N   UNL     1      36.554 -23.206 -13.219  0.00  0.00    -0.409 NA
ATOM     18  C   UNL     1      36.512 -23.977 -14.329  0.00  0.00    +0.127 C 
ATOM     19  C   UNL     1      36.948 -25.292 -14.377  0.00  0.00    +0.086 C 
ATOM     20  C   UNL     1      37.060 -23.784 -12.106  0.00  0.00    +0.109 C 
ATOM     21  C   UNL     1      37.460 -25.850 -13.211  0.00  0.00    -0.016 C 
ATOM     22  C   UNL     1      37.521 -25.089 -12.050  0.00  0.00    +0.023 C 
ATOM     23  C   UNL     1      37.111 -22.936 -10.878  0.00  0.00    +0.066 C 
ENDBRANCH   4  18
BRANCH   5  24
ATOM     24  C   UNL     1      36.430 -21.452 -18.544  0.00  0.00    +0.128 C 
BRANCH  24  25
ATOM     25  N   UNL     1      35.358 -20.995 -19.413  0.00  0.00    -0.328 N 
ATOM     26  H   UNL     1      34.454 -21.357 -19.270  0.00  0.00    +0.147 HD
BRANCH  25  28
ATOM     27  F   UNL     1      33.252 -20.227 -21.037  0.00  0.00    -0.203 F 
ATOM     28  C   UNL     1      35.543 -20.079 -20.429  0.00  0.00    +0.073 C 
ATOM     29  C   UNL     1      34.470 -19.704 -21.238  0.00  0.00    +0.153 C 
ATOM     30  C   UNL     1      36.807 -19.529 -20.648  0.00  0.00    +0.017 C 
ATOM     31  C   UNL     1      34.659 -18.779 -22.264  0.00  0.00    +0.031 C 
ATOM     32  C   UNL     1      36.996 -18.603 -21.674  0.00  0.00    +0.001 C 
ATOM     33  C   UNL     1      35.923 -18.228 -22.482  0.00  0.00    +0.002 C 
ENDBRANCH  25  28
ENDBRANCH  24  25
ENDBRANCH   5  24
TORSDOF 5
ENDMDL
MODEL 2
REMARK VINA RESULT:     -11.7      2.886      7.612
REMARK  Name = 54766013
REMARK  5 active torsions:
REMARK  status: ('A' for Active; 'I' for Inactive)
REMARK    1  A    between atoms: C_3  and  C_11
REMARK    2  A    between atoms: C_4  and  C_18
REMARK    3  A    between atoms: C_5  and  C_24
REMARK    4  A    between atoms: C_24  and  N_25
REMARK    5  A    between atoms: N_25  and  C_28
REMARK                            x       y       z     vdW  Elec       q    Type
REMARK                         _______ _______ _______ _____ _____    ______ ____
ROOT
ATOM      1  N   UNL     1      32.988 -22.946 -14.624  0.00  0.00    -0.315 N 
ATOM      2  N   UNL     1      33.762 -24.475 -13.212  0.00  0.00    -0.317 N 
ATOM      3  C   UNL     1      34.668 -24.261 -14.220  0.00  0.00    +0.063 C 
ATOM      4  C   UNL     1      34.210 -23.316 -15.108  0.00  0.00    +0.085 C 
ATOM      5  C   UNL     1      32.761 -23.668 -13.485  0.00  0.00    +0.164 C 
ATOM      6  H   UNL     1      32.381 -22.281 -15.022  0.00  0.00    +0.148 HD
ATOM      7  H   UNL     1      33.843 -25.097 -12.453  0.00  0.00    +0.148 HD
ENDROOT
BRANCH   3  11
ATOM      8  N   UNL     1      38.275 -25.109 -13.774  0.00  0.00    -0.170 N 
ATOM      9  N   UNL     1      39.481 -24.706 -13.301  0.00  0.00    -0.150 NA
ATOM     10  N   UNL     1      39.665 -26.778 -14.246  0.00  0.00    -0.206 NA
ATOM     11  C   UNL     1      35.947 -24.998 -14.263  0.00  0.00    +0.031 C 
ATOM     12  C   UNL     1      37.053 -24.433 -13.737  0.00  0.00    +0.092 C 
ATOM     13  C   UNL     1      36.084 -26.326 -14.868  0.00  0.00    +0.006 C 
ATOM     14  C   UNL     1      38.417 -26.376 -14.346  0.00  0.00    +0.157 C 
ATOM     15  C   UNL     1      37.259 -26.979 -14.906  0.00  0.00    +0.036 C 
ATOM     16  C   UNL     1      40.266 -25.737 -13.610  0.00  0.00    +0.219 C 
ENDBRANCH   3  11
BRANCH   4  18
ATOM     17  N   UNL     1      33.899 -22.576 -17.318  0.00  0.00    -0.409 NA
ATOM     18  C   UNL     1      34.778 -22.755 -16.308  0.00  0.00    +0.127 C 
ATOM     19  C   UNL     1      36.124 -22.430 -16.383  0.00  0.00    +0.086 C 
ATOM     20  C   UNL     1      34.396 -22.048 -18.460  0.00  0.00    +0.109 C 
ATOM     21  C   UNL     1      36.596 -21.889 -17.574  0.00  0.00    -0.016 C 
ATOM     22  C   UNL     1      35.723 -21.691 -18.637  0.00  0.00    +0.023 C 
ATOM     23  C   UNL     1      33.429 -21.851 -19.580  0.00  0.00    +0.066 C 
ENDBRANCH   4  18
BRANCH   5  24
ATOM     24  C   UNL     1      31.519 -23.506 -12.708  0.00  0.00    +0.128 C 
BRANCH  24  25
ATOM     25  N   UNL     1      30.458 -24.364 -13.210  0.00  0.00    -0.328 N 
ATOM     26  H   UNL     1      30.280 -25.209 -12.739  0.00  0.00    +0.147 HD
BRANCH  25  28
ATOM     27  F   UNL     1      29.714 -26.321 -15.019  0.00  0.00    -0.203 F 
ATOM     28  C   UNL     1      29.690 -24.054 -14.314  0.00  0.00    +0.073 C 
ATOM     29  C   UNL     1      29.325 -25.053 -15.216  0.00  0.00    +0.153 C 
ATOM     30  C   UNL     1      29.280 -22.737 -14.530  0.00  0.00    +0.017 C 
ATOM     31  C   UNL     1      28.549 -24.739 -16.331  0.00  0.00    +0.031 C 
ATOM     32  C   UNL     1      28.504 -22.422 -15.645  0.00  0.00    +0.001 C 
ATOM     33  C   UNL     1      28.139 -23.423 -16.546  0.00  0.00    +0.002 C 
ENDBRANCH  25  28
ENDBRANCH  24  25
ENDBRANCH   5  24
TORSDOF 5
ENDMDL
MODEL 3
REMARK VINA RESULT:     -11.7      1.379      5.052
REMARK  Name = 54766013
REMARK  5 active torsions:
REMARK  status: ('A' for Active; 'I' for Inactive)
REMARK    1  A    between atoms: C_3  and  C_11
REMARK    2  A    between atoms: C_4  and  C_18
REMARK    3  A    between atoms: C_5  and  C_24
REMARK    4  A    between atoms: C_24  and  N_25
REMARK    5  A    between atoms: N_25  and  C_28
REMARK                            x       y       z     vdW  Elec       q    Type
REMARK                         _______ _______ _______ _____ _____    ______ ____
ROOT
ATOM      1  N   UNL     1      32.734 -22.724 -17.294  0.00  0.00    -0.315 N 
ATOM      2  N   UNL     1      34.954 -22.723 -17.221  0.00  0.00    -0.317 N 
ATOM      3  C   UNL     1      34.445 -23.331 -16.101  0.00  0.00    +0.063 C 
ATOM      4  C   UNL     1      33.070 -23.344 -16.124  0.00  0.00    +0.085 C 
ATOM      5  C   UNL     1      33.897 -22.368 -17.919  0.00  0.00    +0.164 C 
ATOM      6  H   UNL     1      31.822 -22.563 -17.628  0.00  0.00    +0.148 HD
ATOM      7  H   UNL     1      35.901 -22.582 -17.451  0.00  0.00    +0.148 HD
ENDROOT
BRANCH   3  11
ATOM      8  N   UNL     1      36.749 -23.522 -13.172  0.00  0.00    -0.170 N 
ATOM      9  N   UNL     1      37.395 -22.836 -12.195  0.00  0.00    -0.150 NA
ATOM     10  N   UNL     1      37.885 -25.063 -12.044  0.00  0.00    -0.206 NA
ATOM     11  C   UNL     1      35.337 -23.873 -15.058  0.00  0.00    +0.031 C 
ATOM     12  C   UNL     1      35.894 -23.031 -14.162  0.00  0.00    +0.092 C 
ATOM     13  C   UNL     1      35.665 -25.297 -14.948  0.00  0.00    +0.006 C 
ATOM     14  C   UNL     1      37.067 -24.877 -13.056  0.00  0.00    +0.157 C 
ATOM     15  C   UNL     1      36.487 -25.772 -13.995  0.00  0.00    +0.036 C 
ATOM     16  C   UNL     1      38.053 -23.803 -11.558  0.00  0.00    +0.219 C 
ENDBRANCH   3  11
BRANCH   4  18
ATOM     17  N   UNL     1      30.819 -23.852 -15.668  0.00  0.00    -0.409 NA
ATOM     18  C   UNL     1      32.088 -23.856 -15.202  0.00  0.00    +0.127 C 
ATOM     19  C   UNL     1      32.451 -24.311 -13.944  0.00  0.00    +0.086 C 
ATOM     20  C   UNL     1      29.870 -24.327 -14.831  0.00  0.00    +0.109 C 
ATOM     21  C   UNL     1      31.445 -24.793 -13.112  0.00  0.00    -0.016 C 
ATOM     22  C   UNL     1      30.129 -24.806 -13.556  0.00  0.00    +0.023 C 
ATOM     23  C   UNL     1      28.467 -24.324 -15.341  0.00  0.00    +0.066 C 
ENDBRANCH   4  18
BRANCH   5  24
ATOM     24  C   UNL     1      33.889 -21.674 -19.219  0.00  0.00    +0.128 C 
BRANCH  24  25
ATOM     25  N   UNL     1      35.096 -20.886 -19.412  0.00  0.00    -0.328 N 
ATOM     26  H   UNL     1      35.812 -20.959 -18.741  0.00  0.00    +0.147 HD
BRANCH  25  28
ATOM     27  F   UNL     1      37.502 -19.567 -19.773  0.00  0.00    -0.203 F 
ATOM     28  C   UNL     1      35.288 -20.042 -20.487  0.00  0.00    +0.073 C 
ATOM     29  C   UNL     1      36.507 -19.385 -20.652  0.00  0.00    +0.153 C 
ATOM     30  C   UNL     1      34.258 -19.844 -21.408  0.00  0.00    +0.017 C 
ATOM     31  C   UNL     1      36.699 -18.532 -21.738  0.00  0.00    +0.031 C 
ATOM     32  C   UNL     1      34.450 -18.990 -22.495  0.00  0.00    +0.001 C 
ATOM     33  C   UNL     1      35.670 -18.335 -22.660  0.00  0.00    +0.002 C 
ENDBRANCH  25  28
ENDBRANCH  24  25
ENDBRANCH   5  24
TORSDOF 5
ENDMDL
MODEL 4
REMARK VINA RESULT:     -11.6      0.706      1.255
REMARK  Name = 54766013
REMARK  5 active torsions:
REMARK  status: ('A' for Active; 'I' for Inactive)
REMARK    1  A    between atoms: C_3  and  C_11
REMARK    2  A    between atoms: C_4  and  C_18
REMARK    3  A    between atoms: C_5  and  C_24
REMARK    4  A    between atoms: C_24  and  N_25
REMARK    5  A    between atoms: N_25  and  C_28
REMARK                            x       y       z     vdW  Elec       q    Type
REMARK                         _______ _______ _______ _____ _____    ______ ____
ROOT
ATOM      1  N   UNL     1      36.969 -22.404 -16.323  0.00  0.00    -0.315 N 
ATOM      2  N   UNL     1      34.877 -22.456 -17.068  0.00  0.00    -0.317 N 
ATOM      3  C   UNL     1      34.953 -23.047 -15.832  0.00  0.00    +0.063 C 
ATOM      4  C   UNL     1      36.241 -23.026 -15.349  0.00  0.00    +0.085 C 
ATOM      5  C   UNL     1      36.108 -22.080 -17.335  0.00  0.00    +0.164 C 
ATOM      6  H   UNL     1      37.936 -22.221 -16.301  0.00  0.00    +0.148 HD
ATOM      7  H   UNL     1      34.078 -22.340 -17.631  0.00  0.00    +0.148 HD
ENDROOT
BRANCH   3  11
ATOM      8  N   UNL     1      31.389 -23.903 -15.128  0.00  0.00    -0.170 N 
ATOM      9  N   UNL     1      30.099 -23.790 -15.532  0.00  0.00    -0.150 NA
ATOM     10  N   UNL     1      30.212 -25.005 -13.600  0.00  0.00    -0.206 NA
ATOM     11  C   UNL     1      33.752 -23.606 -15.181  0.00  0.00    +0.031 C 
ATOM     12  C   UNL     1      32.540 -23.390 -15.733  0.00  0.00    +0.092 C 
ATOM     13  C   UNL     1      33.805 -24.384 -13.939  0.00  0.00    +0.006 C 
ATOM     14  C   UNL     1      31.428 -24.647 -13.947  0.00  0.00    +0.157 C 
ATOM     15  C   UNL     1      32.699 -24.878 -13.356  0.00  0.00    +0.036 C 
ATOM     16  C   UNL     1      29.447 -24.464 -14.586  0.00  0.00    +0.219 C 
ENDBRANCH   3  11
BRANCH   4  18
ATOM     17  N   UNL     1      37.799 -24.433 -14.290  0.00  0.00    -0.409 NA
ATOM     18  C   UNL     1      36.826 -23.509 -14.124  0.00  0.00    +0.127 C 
ATOM     19  C   UNL     1      36.405 -23.039 -12.890  0.00  0.00    +0.086 C 
ATOM     20  C   UNL     1      38.374 -24.908 -13.162  0.00  0.00    +0.109 C 
ATOM     21  C   UNL     1      37.022 -23.552 -11.754  0.00  0.00    -0.016 C 
ATOM     22  C   UNL     1      38.026 -24.503 -11.884  0.00  0.00    +0.023 C 
ATOM     23  C   UNL     1      39.448 -25.930 -13.340  0.00  0.00    +0.066 C 
ENDBRANCH   4  18
BRANCH   5  24
ATOM     24  C   UNL     1      36.578 -21.390 -18.551  0.00  0.00    +0.128 C 
BRANCH  24  25
ATOM     25  N   UNL     1      35.470 -21.012 -19.412  0.00  0.00    -0.328 N 
ATOM     26  H   UNL     1      34.595 -21.437 -19.261  0.00  0.00    +0.147 HD
BRANCH  25  28
ATOM     27  F   UNL     1      33.273 -20.308 -20.941  0.00  0.00    -0.203 F 
ATOM     28  C   UNL     1      35.582 -20.089 -20.432  0.00  0.00    +0.073 C 
ATOM     29  C   UNL     1      34.464 -19.746 -21.193  0.00  0.00    +0.153 C 
ATOM     30  C   UNL     1      36.817 -19.499 -20.703  0.00  0.00    +0.017 C 
ATOM     31  C   UNL     1      34.579 -18.814 -22.223  0.00  0.00    +0.031 C 
ATOM     32  C   UNL     1      36.932 -18.565 -21.734  0.00  0.00    +0.001 C 
ATOM     33  C   UNL     1      35.814 -18.223 -22.493  0.00  0.00    +0.002 C 
ENDBRANCH  25  28
ENDBRANCH  24  25
ENDBRANCH   5  24
TORSDOF 5
ENDMDL
MODEL 5
REMARK VINA RESULT:     -11.4      3.164      6.793
REMARK  Name = 54766013
REMARK  5 active torsions:
REMARK  status: ('A' for Active; 'I' for Inactive)
REMARK    1  A    between atoms: C_3  and  C_11
REMARK    2  A    between atoms: C_4  and  C_18
REMARK    3  A    between atoms: C_5  and  C_24
REMARK    4  A    between atoms: C_24  and  N_25
REMARK    5  A    between atoms: N_25  and  C_28
REMARK                            x       y       z     vdW  Elec       q    Type
REMARK                         _______ _______ _______ _____ _____    ______ ____
ROOT
ATOM      1  N   UNL     1      34.913 -23.504 -14.040  0.00  0.00    -0.315 N 
ATOM      2  N   UNL     1      33.089 -24.176 -12.966  0.00  0.00    -0.317 N 
ATOM      3  C   UNL     1      32.784 -23.874 -14.269  0.00  0.00    +0.063 C 
ATOM      4  C   UNL     1      33.900 -23.455 -14.955  0.00  0.00    +0.085 C 
ATOM      5  C   UNL     1      34.378 -23.943 -12.860  0.00  0.00    +0.164 C 
ATOM      6  H   UNL     1      35.855 -23.269 -14.199  0.00  0.00    +0.148 HD
ATOM      7  H   UNL     1      32.476 -24.496 -12.264  0.00  0.00    +0.148 HD
ENDROOT
BRANCH   3  11
ATOM      8  N   UNL     1      29.524 -23.074 -15.898  0.00  0.00    -0.170 N 
ATOM      9  N   UNL     1      28.786 -22.143 -16.554  0.00  0.00    -0.150 NA
ATOM     10  N   UNL     1      27.575 -24.064 -16.299  0.00  0.00    -0.206 NA
ATOM     11  C   UNL     1      31.407 -24.011 -14.780  0.00  0.00    +0.031 C 
ATOM     12  C   UNL     1      30.830 -22.968 -15.414  0.00  0.00    +0.092 C 
ATOM     13  C   UNL     1      30.614 -25.234 -14.623  0.00  0.00    +0.006 C 
ATOM     14  C   UNL     1      28.760 -24.235 -15.756  0.00  0.00    +0.157 C 
ATOM     15  C   UNL     1      29.357 -25.338 -15.089  0.00  0.00    +0.036 C 
ATOM     16  C   UNL     1      27.640 -22.788 -16.766  0.00  0.00    +0.219 C 
ENDBRANCH   3  11
BRANCH   4  18
ATOM     17  N   UNL     1      35.316 -22.501 -16.572  0.00  0.00    -0.409 NA
ATOM     18  C   UNL     1      34.100 -23.033 -16.319  0.00  0.00    +0.127 C 
ATOM     19  C   UNL     1      33.104 -23.181 -17.272  0.00  0.00    +0.086 C 
ATOM     20  C   UNL     1      35.542 -22.096 -17.842  0.00  0.00    +0.109 C 
ATOM     21  C   UNL     1      33.375 -22.753 -18.567  0.00  0.00    -0.016 C 
ATOM     22  C   UNL     1      34.614 -22.200 -18.866  0.00  0.00    +0.023 C 
ATOM     23  C   UNL     1      36.883 -21.506 -18.127  0.00  0.00    +0.066 C 
ENDBRANCH   4  18
BRANCH   5  24
ATOM     24  C   UNL     1      35.211 -24.110 -11.655  0.00  0.00    +0.128 C 
BRANCH  24  25
ATOM     25  N   UNL     1      35.949 -25.362 -11.685  0.00  0.00    -0.328 N 
ATOM     26  H   UNL     1      35.676 -26.080 -11.070  0.00  0.00    +0.147 HD
BRANCH  25  28
ATOM     27  F   UNL     1      38.397 -24.141 -11.265  0.00  0.00    -0.203 F 
ATOM     28  C   UNL     1      37.013 -25.596 -12.533  0.00  0.00    +0.073 C 
ATOM     29  C   UNL     1      38.239 -24.971 -12.306  0.00  0.00    +0.153 C 
ATOM     30  C   UNL     1      36.860 -26.457 -13.621  0.00  0.00    +0.017 C 
ATOM     31  C   UNL     1      39.313 -25.208 -13.164  0.00  0.00    +0.031 C 
ATOM     32  C   UNL     1      37.934 -26.694 -14.479  0.00  0.00    +0.001 C 
ATOM     33  C   UNL     1      39.161 -26.070 -14.250  0.00  0.00    +0.002 C 
ENDBRANCH  25  28
ENDBRANCH  24  25
ENDBRANCH   5  24
TORSDOF 5
ENDMDL
MODEL 6
REMARK VINA RESULT:     -11.1      1.441      2.122
REMARK  Name = 54766013
REMARK  5 active torsions:
REMARK  status: ('A' for Active; 'I' for Inactive)
REMARK    1  A    between atoms: C_3  and  C_11
REMARK    2  A    between atoms: C_4  and  C_18
REMARK    3  A    between atoms: C_5  and  C_24
REMARK    4  A    between atoms: C_24  and  N_25
REMARK    5  A    between atoms: N_25  and  C_28
REMARK                            x       y       z     vdW  Elec       q    Type
REMARK                         _______ _______ _______ _____ _____    ______ ____
ROOT
ATOM      1  N   UNL     1      36.012 -22.606 -17.273  0.00  0.00    -0.315 N 
ATOM      2  N   UNL     1      33.961 -22.285 -18.060  0.00  0.00    -0.317 N 
ATOM      3  C   UNL     1      33.904 -22.875 -16.823  0.00  0.00    +0.063 C 
ATOM      4  C   UNL     1      35.165 -23.085 -16.314  0.00  0.00    +0.085 C 
ATOM      5  C   UNL     1      35.245 -22.136 -18.302  0.00  0.00    +0.164 C 
ATOM      6  H   UNL     1      36.996 -22.600 -17.230  0.00  0.00    +0.148 HD
ATOM      7  H   UNL     1      33.207 -22.029 -18.639  0.00  0.00    +0.148 HD
ENDROOT
BRANCH   3  11
ATOM      8  N   UNL     1      30.236 -23.018 -16.153  0.00  0.00    -0.170 N 
ATOM      9  N   UNL     1      28.998 -22.625 -16.548  0.00  0.00    -0.150 NA
ATOM     10  N   UNL     1      28.846 -23.928 -14.677  0.00  0.00    -0.206 NA
ATOM     11  C   UNL     1      32.610 -23.208 -16.197  0.00  0.00    +0.031 C 
ATOM     12  C   UNL     1      31.471 -22.723 -16.735  0.00  0.00    +0.092 C 
ATOM     13  C   UNL     1      32.493 -24.039 -14.995  0.00  0.00    +0.006 C 
ATOM     14  C   UNL     1      30.113 -23.811 -15.009  0.00  0.00    +0.157 C 
ATOM     15  C   UNL     1      31.305 -24.324 -14.433  0.00  0.00    +0.036 C 
ATOM     16  C   UNL     1      28.215 -23.196 -15.635  0.00  0.00    +0.219 C 
ENDBRANCH   3  11
BRANCH   4  18
ATOM     17  N   UNL     1      36.073 -24.934 -15.181  0.00  0.00    -0.409 NA
ATOM     18  C   UNL     1      35.630 -23.661 -15.078  0.00  0.00    +0.127 C 
ATOM     19  C   UNL     1      35.613 -22.939 -13.895  0.00  0.00    +0.086 C 
ATOM     20  C   UNL     1      36.520 -25.508 -14.041  0.00  0.00    +0.109 C 
ATOM     21  C   UNL     1      36.082 -23.564 -12.745  0.00  0.00    -0.016 C 
ATOM     22  C   UNL     1      36.546 -24.872 -12.810  0.00  0.00    +0.023 C 
ATOM     23  C   UNL     1      37.010 -26.914 -14.149  0.00  0.00    +0.066 C 
ENDBRANCH   4  18
BRANCH   5  24
ATOM     24  C   UNL     1      35.855 -21.545 -19.507  0.00  0.00    +0.128 C 
BRANCH  24  25
ATOM     25  N   UNL     1      35.507 -20.141 -19.648  0.00  0.00    -0.328 N 
ATOM     26  H   UNL     1      35.361 -19.612 -18.831  0.00  0.00    +0.147 HD
BRANCH  25  28
ATOM     27  F   UNL     1      37.450 -18.401 -20.575  0.00  0.00    -0.203 F 
ATOM     28  C   UNL     1      35.372 -19.511 -20.869  0.00  0.00    +0.073 C 
ATOM     29  C   UNL     1      36.361 -18.637 -21.320  0.00  0.00    +0.153 C 
ATOM     30  C   UNL     1      34.241 -19.749 -21.652  0.00  0.00    +0.017 C 
ATOM     31  C   UNL     1      36.222 -18.002 -22.553  0.00  0.00    +0.031 C 
ATOM     32  C   UNL     1      34.102 -19.113 -22.886  0.00  0.00    +0.001 C 
ATOM     33  C   UNL     1      35.092 -18.240 -23.337  0.00  0.00    +0.002 C 
ENDBRANCH  25  28
ENDBRANCH  24  25
ENDBRANCH   5  24
TORSDOF 5
ENDMDL
MODEL 7
REMARK VINA RESULT:     -11.1      1.080      1.909
REMARK  Name = 54766013
REMARK  5 active torsions:
REMARK  status: ('A' for Active; 'I' for Inactive)
REMARK    1  A    between atoms: C_3  and  C_11
REMARK    2  A    between atoms: C_4  and  C_18
REMARK    3  A    between atoms: C_5  and  C_24
REMARK    4  A    between atoms: C_24  and  N_25
REMARK    5  A    between atoms: N_25  and  C_28
REMARK                            x       y       z     vdW  Elec       q    Type
REMARK                         _______ _______ _______ _____ _____    ______ ____
ROOT
ATOM      1  N   UNL     1      36.743 -22.504 -17.063  0.00  0.00    -0.315 N 
ATOM      2  N   UNL     1      34.683 -22.244 -17.850  0.00  0.00    -0.317 N 
ATOM      3  C   UNL     1      34.644 -22.828 -16.609  0.00  0.00    +0.063 C 
ATOM      4  C   UNL     1      35.910 -22.999 -16.101  0.00  0.00    +0.085 C 
ATOM      5  C   UNL     1      35.962 -22.062 -18.095  0.00  0.00    +0.164 C 
ATOM      6  H   UNL     1      37.727 -22.471 -17.022  0.00  0.00    +0.148 HD
ATOM      7  H   UNL     1      33.922 -22.012 -18.430  0.00  0.00    +0.148 HD
ENDROOT
BRANCH   3  11
ATOM      8  N   UNL     1      32.159 -24.217 -14.196  0.00  0.00    -0.170 N 
ATOM      9  N   UNL     1      31.967 -24.881 -13.028  0.00  0.00    -0.150 NA
ATOM     10  N   UNL     1      29.953 -24.370 -13.980  0.00  0.00    -0.206 NA
ATOM     11  C   UNL     1      33.359 -23.191 -15.980  0.00  0.00    +0.031 C 
ATOM     12  C   UNL     1      33.364 -23.856 -14.805  0.00  0.00    +0.092 C 
ATOM     13  C   UNL     1      32.059 -22.875 -16.577  0.00  0.00    +0.006 C 
ATOM     14  C   UNL     1      30.914 -23.920 -14.755  0.00  0.00    +0.157 C 
ATOM     15  C   UNL     1      30.898 -23.222 -15.993  0.00  0.00    +0.036 C 
ATOM     16  C   UNL     1      30.638 -24.941 -12.953  0.00  0.00    +0.219 C 
ENDBRANCH   3  11
BRANCH   4  18
ATOM     17  N   UNL     1      36.576 -24.894 -14.877  0.00  0.00    -0.409 NA
ATOM     18  C   UNL     1      36.392 -23.555 -14.861  0.00  0.00    +0.127 C 
ATOM     19  C   UNL     1      36.640 -22.751 -13.760  0.00  0.00    +0.086 C 
ATOM     20  C   UNL     1      37.030 -25.451 -13.733  0.00  0.00    +0.109 C 
ATOM     21  C   UNL     1      37.106 -23.362 -12.601  0.00  0.00    -0.016 C 
ATOM     22  C   UNL     1      37.309 -24.737 -12.578  0.00  0.00    +0.023 C 
ATOM     23  C   UNL     1      37.234 -26.930 -13.745  0.00  0.00    +0.066 C 
ENDBRANCH   4  18
BRANCH   5  24
ATOM     24  C   UNL     1      36.555 -21.463 -19.304  0.00  0.00    +0.128 C 
BRANCH  24  25
ATOM     25  N   UNL     1      36.143 -20.079 -19.472  0.00  0.00    -0.328 N 
ATOM     26  H   UNL     1      36.168 -19.486 -18.686  0.00  0.00    +0.147 HD
BRANCH  25  28
ATOM     27  F   UNL     1      33.611 -20.625 -20.446  0.00  0.00    -0.203 F 
ATOM     28  C   UNL     1      35.718 -19.554 -20.675  0.00  0.00    +0.073 C 
ATOM     29  C   UNL     1      34.438 -19.840 -21.151  0.00  0.00    +0.153 C 
ATOM     30  C   UNL     1      36.571 -18.736 -21.418  0.00  0.00    +0.017 C 
ATOM     31  C   UNL     1      34.010 -19.309 -22.368  0.00  0.00    +0.031 C 
ATOM     32  C   UNL     1      36.143 -18.205 -22.635  0.00  0.00    +0.001 C 
ATOM     33  C   UNL     1      34.863 -18.491 -23.110  0.00  0.00    +0.002 C 
ENDBRANCH  25  28
ENDBRANCH  24  25
ENDBRANCH   5  24
TORSDOF 5
ENDMDL
MODEL 8
REMARK VINA RESULT:     -11.1      2.399      6.540
REMARK  Name = 54766013
REMARK  5 active torsions:
REMARK  status: ('A' for Active; 'I' for Inactive)
REMARK    1  A    between atoms: C_3  and  C_11
REMARK    2  A    between atoms: C_4  and  C_18
REMARK    3  A    between atoms: C_5  and  C_24
REMARK    4  A    between atoms: C_24  and  N_25
REMARK    5  A    between atoms: N_25  and  C_28
REMARK                            x       y       z     vdW  Elec       q    Type
REMARK                         _______ _______ _______ _____ _____    ______ ____
ROOT
ATOM      1  N   UNL     1      33.687 -25.079 -13.274  0.00  0.00    -0.315 N 
ATOM      2  N   UNL     1      32.801 -23.750 -14.816  0.00  0.00    -0.317 N 
ATOM      3  C   UNL     1      34.163 -23.808 -14.969  0.00  0.00    +0.063 C 
ATOM      4  C   UNL     1      34.735 -24.627 -14.024  0.00  0.00    +0.085 C 
ATOM      5  C   UNL     1      32.546 -24.527 -13.786  0.00  0.00    +0.164 C 
ATOM      6  H   UNL     1      33.743 -25.693 -12.505  0.00  0.00    +0.148 HD
ATOM      7  H   UNL     1      32.156 -23.239 -15.357  0.00  0.00    +0.148 HD
ENDROOT
BRANCH   3  11
ATOM      8  N   UNL     1      34.786 -22.040 -18.196  0.00  0.00    -0.170 N 
ATOM      9  N   UNL     1      34.270 -21.646 -19.387  0.00  0.00    -0.150 NA
ATOM     10  N   UNL     1      36.450 -20.981 -19.221  0.00  0.00    -0.206 NA
ATOM     11  C   UNL     1      34.841 -23.052 -16.041  0.00  0.00    +0.031 C 
ATOM     12  C   UNL     1      34.161 -22.746 -17.165  0.00  0.00    +0.092 C 
ATOM     13  C   UNL     1      36.240 -22.621 -15.953  0.00  0.00    +0.006 C 
ATOM     14  C   UNL     1      36.117 -21.622 -18.122  0.00  0.00    +0.157 C 
ATOM     15  C   UNL     1      36.843 -21.941 -16.944  0.00  0.00    +0.036 C 
ATOM     16  C   UNL     1      35.303 -21.023 -19.951  0.00  0.00    +0.219 C 
ENDBRANCH   3  11
BRANCH   4  18
ATOM     17  N   UNL     1      36.704 -24.313 -12.776  0.00  0.00    -0.409 NA
ATOM     18  C   UNL     1      36.102 -25.007 -13.767  0.00  0.00    +0.127 C 
ATOM     19  C   UNL     1      36.718 -26.012 -14.496  0.00  0.00    +0.086 C 
ATOM     20  C   UNL     1      37.986 -24.645 -12.505  0.00  0.00    +0.109 C 
ATOM     21  C   UNL     1      38.037 -26.324 -14.186  0.00  0.00    -0.016 C 
ATOM     22  C   UNL     1      38.691 -25.633 -13.173  0.00  0.00    +0.023 C 
ATOM     23  C   UNL     1      38.657 -23.880 -11.412  0.00  0.00    +0.066 C 
ENDBRANCH   4  18
BRANCH   5  24
ATOM     24  C   UNL     1      31.224 -24.815 -13.201  0.00  0.00    +0.128 C 
BRANCH  24  25
ATOM     25  N   UNL     1      30.285 -23.733 -13.446  0.00  0.00    -0.328 N 
ATOM     26  H   UNL     1      30.225 -23.008 -12.783  0.00  0.00    +0.147 HD
BRANCH  25  28
ATOM     27  F   UNL     1      29.699 -26.009 -14.908  0.00  0.00    -0.203 F 
ATOM     28  C   UNL     1      29.472 -23.671 -14.560  0.00  0.00    +0.073 C 
ATOM     29  C   UNL     1      29.188 -24.828 -15.285  0.00  0.00    +0.153 C 
ATOM     30  C   UNL     1      28.935 -22.447 -14.962  0.00  0.00    +0.017 C 
ATOM     31  C   UNL     1      28.367 -24.763 -16.410  0.00  0.00    +0.031 C 
ATOM     32  C   UNL     1      28.114 -22.382 -16.088  0.00  0.00    +0.001 C 
ATOM     33  C   UNL     1      27.830 -23.539 -16.812  0.00  0.00    +0.002 C 
ENDBRANCH  25  28
ENDBRANCH  24  25
ENDBRANCH   5  24
TORSDOF 5
ENDMDL
MODEL 9
REMARK VINA RESULT:     -10.8      1.427      4.703
REMARK  Name = 54766013
REMARK  5 active torsions:
REMARK  status: ('A' for Active; 'I' for Inactive)
REMARK    1  A    between atoms: C_3  and  C_11
REMARK    2  A    between atoms: C_4  and  C_18
REMARK    3  A    between atoms: C_5  and  C_24
REMARK    4  A    between atoms: C_24  and  N_25
REMARK    5  A    between atoms: N_25  and  C_28
REMARK                            x       y       z     vdW  Elec       q    Type
REMARK                         _______ _______ _______ _____ _____    ______ ____
ROOT
ATOM      1  N   UNL     1      32.897 -22.677 -17.801  0.00  0.00    -0.315 N 
ATOM      2  N   UNL     1      35.007 -22.968 -17.172  0.00  0.00    -0.317 N 
ATOM      3  C   UNL     1      34.158 -23.342 -16.162  0.00  0.00    +0.063 C 
ATOM      4  C   UNL     1      32.843 -23.170 -16.528  0.00  0.00    +0.085 C 
ATOM      5  C   UNL     1      34.217 -22.572 -18.146  0.00  0.00    +0.164 C 
ATOM      6  H   UNL     1      32.128 -22.440 -18.367  0.00  0.00    +0.148 HD
ATOM      7  H   UNL     1      35.992 -22.991 -17.170  0.00  0.00    +0.148 HD
ENDROOT
BRANCH   3  11
ATOM      8  N   UNL     1      36.117 -25.327 -13.682  0.00  0.00    -0.170 N 
ATOM      9  N   UNL     1      37.050 -26.293 -13.491  0.00  0.00    -0.150 NA
ATOM     10  N   UNL     1      36.317 -25.504 -11.476  0.00  0.00    -0.206 NA
ATOM     11  C   UNL     1      34.679 -23.852 -14.878  0.00  0.00    +0.031 C 
ATOM     12  C   UNL     1      35.615 -24.824 -14.885  0.00  0.00    +0.092 C 
ATOM     13  C   UNL     1      34.218 -23.360 -13.577  0.00  0.00    +0.006 C 
ATOM     14  C   UNL     1      35.686 -24.865 -12.435  0.00  0.00    +0.157 C 
ATOM     15  C   UNL     1      34.700 -23.843 -12.417  0.00  0.00    +0.036 C 
ATOM     16  C   UNL     1      37.127 -26.354 -12.163  0.00  0.00    +0.219 C 
ENDBRANCH   3  11
BRANCH   4  18
ATOM     17  N   UNL     1      31.716 -24.167 -14.721  0.00  0.00    -0.409 NA
ATOM     18  C   UNL     1      31.603 -23.411 -15.836  0.00  0.00    +0.127 C 
ATOM     19  C   UNL     1      30.405 -22.890 -16.301  0.00  0.00    +0.086 C 
ATOM     20  C   UNL     1      30.573 -24.412 -14.043  0.00  0.00    +0.109 C 
ATOM     21  C   UNL     1      29.251 -23.164 -15.575  0.00  0.00    -0.016 C 
ATOM     22  C   UNL     1      29.328 -23.938 -14.424  0.00  0.00    +0.023 C 
ATOM     23  C   UNL     1      30.692 -25.248 -12.811  0.00  0.00    +0.066 C 
ENDBRANCH   4  18
BRANCH   5  24
ATOM     24  C   UNL     1      34.627 -22.068 -19.469  0.00  0.00    +0.128 C 
BRANCH  24  25
ATOM     25  N   UNL     1      35.280 -20.773 -19.368  0.00  0.00    -0.328 N 
ATOM     26  H   UNL     1      35.586 -20.473 -18.482  0.00  0.00    +0.147 HD
BRANCH  25  28
ATOM     27  F   UNL     1      33.199 -20.080 -21.056  0.00  0.00    -0.203 F 
ATOM     28  C   UNL     1      35.491 -19.944 -20.451  0.00  0.00    +0.073 C 
ATOM     29  C   UNL     1      34.430 -19.605 -21.291  0.00  0.00    +0.153 C 
ATOM     30  C   UNL     1      36.769 -19.444 -20.705  0.00  0.00    +0.017 C 
ATOM     31  C   UNL     1      34.646 -18.767 -22.384  0.00  0.00    +0.031 C 
ATOM     32  C   UNL     1      36.984 -18.605 -21.799  0.00  0.00    +0.001 C 
ATOM     33  C   UNL     1      35.923 -18.267 -22.639  0.00  0.00    +0.002 C 
ENDBRANCH  25  28
ENDBRANCH  24  25
ENDBRANCH   5  24
TORSDOF 5
ENDMDL
