MODEL 1
REMARK VINA RESULT:     -11.9      0.000      0.000
REMARK  Name = 51039095
REMARK  7 active torsions:
REMARK  status: ('A' for Active; 'I' for Inactive)
REMARK    1  A    between atoms: C_5  and  C_16
REMARK    2  A    between atoms: C_6  and  C_27
REMARK    3  A    between atoms: C_11  and  N_17
REMARK    4  A    between atoms: C_27  and  C_28
REMARK    5  A    between atoms: C_28  and  C_29
REMARK    6  A    between atoms: C_32  and  O_35
REMARK    7  A    between atoms: C_33  and  O_37
REMARK                            x       y       z     vdW  Elec       q    Type
REMARK                         _______ _______ _______ _____ _____    ______ ____
ROOT
ATOM      1  O   UNL     1      33.703 -21.418 -19.524  0.00  0.00    -0.270 OA
ATOM      2  N   UNL     1      35.822 -20.435 -19.743  0.00  0.00    -0.265 N 
ATOM      3  N   UNL     1      36.136 -18.380 -22.524  0.00  0.00    -0.239 N 
ATOM      4  N   UNL     1      36.685 -18.927 -21.426  0.00  0.00    -0.166 NA
ATOM      5  C   UNL     1      34.864 -21.244 -19.118  0.00  0.00    +0.251 C 
ATOM      6  C   UNL     1      34.838 -18.746 -22.731  0.00  0.00    +0.046 C 
ATOM      7  C   UNL     1      35.692 -19.665 -20.925  0.00  0.00    +0.153 C 
ATOM      8  C   UNL     1      34.516 -19.590 -21.697  0.00  0.00    +0.048 C 
ATOM      9  H   UNL     1      36.702 -20.396 -19.303  0.00  0.00    +0.157 HD
ATOM     10  H   UNL     1      36.625 -17.772 -23.123  0.00  0.00    +0.174 HD
ENDROOT
BRANCH   5  16
ATOM     11  C   UNL     1      36.149 -23.272 -15.618  0.00  0.00    +0.048 C 
ATOM     12  C   UNL     1      34.830 -23.399 -16.053  0.00  0.00    +0.015 C 
ATOM     13  C   UNL     1      37.047 -22.479 -16.333  0.00  0.00    +0.015 C 
ATOM     14  C   UNL     1      34.408 -22.733 -17.203  0.00  0.00    +0.006 C 
ATOM     15  C   UNL     1      36.624 -21.813 -17.484  0.00  0.00    +0.006 C 
ATOM     16  C   UNL     1      35.305 -21.940 -17.919  0.00  0.00    +0.054 C 
BRANCH  11  17
ATOM     17  N   UNL     1      36.574 -23.940 -14.464  0.00  0.00    -0.312 N 
ATOM     18  N   UNL     1      37.519 -25.095 -12.036  0.00  0.00    +0.389 N 
ATOM     19  C   UNL     1      38.049 -25.555 -13.325  0.00  0.00    -0.042 C 
ATOM     20  C   UNL     1      36.111 -24.706 -12.166  0.00  0.00    -0.042 C 
ATOM     21  C   UNL     1      37.950 -24.445 -14.382  0.00  0.00    +0.069 C 
ATOM     22  C   UNL     1      35.954 -23.569 -13.185  0.00  0.00    +0.069 C 
ATOM     23  C   UNL     1      35.584 -24.278 -10.797  0.00  0.00    -0.022 C 
ATOM     24  C   UNL     1      39.501 -25.992 -13.141  0.00  0.00    -0.022 C 
ATOM     25  H   UNL     1      38.062 -24.291 -11.719  0.00  0.00    -0.084 HD
ATOM     26  H   UNL     1      37.590 -25.857 -11.362  0.00  0.00    -0.084 HD
ENDBRANCH  11  17
ENDBRANCH   5  16
BRANCH   6  27
ATOM     27  C   UNL     1      34.058 -18.254 -23.878  0.00  0.00    +0.047 C 
BRANCH  27  28
ATOM     28  C   UNL     1      34.712 -17.081 -24.651  0.00  0.00    +0.033 C 
BRANCH  28  29
ATOM     29  C   UNL     1      34.274 -15.727 -24.146  0.00  0.00    -0.016 C 
ATOM     30  C   UNL     1      34.222 -15.477 -22.775  0.00  0.00    +0.033 C 
ATOM     31  C   UNL     1      33.923 -14.726 -25.051  0.00  0.00    +0.033 C 
ATOM     32  C   UNL     1      33.519 -13.474 -24.586  0.00  0.00    +0.141 C 
ATOM     33  C   UNL     1      33.819 -14.226 -22.309  0.00  0.00    +0.141 C 
ATOM     34  C   UNL     1      33.467 -13.224 -23.214  0.00  0.00    +0.074 C 
BRANCH  32  35
ATOM     35  O   UNL     1      33.177 -12.497 -25.469  0.00  0.00    -0.471 OA
ATOM     36  C   UNL     1      33.214 -12.834 -26.855  0.00  0.00    +0.252 C 
ENDBRANCH  32  35
BRANCH  33  37
ATOM     37  O   UNL     1      33.769 -13.980 -20.971  0.00  0.00    -0.471 OA
ATOM     38  C   UNL     1      32.494 -13.655 -20.418  0.00  0.00    +0.252 C 
ENDBRANCH  33  37
ENDBRANCH  28  29
ENDBRANCH  27  28
ENDBRANCH   6  27
TORSDOF 7
ENDMDL
MODEL 2
REMARK VINA RESULT:     -11.9      0.050      2.127
REMARK  Name = 51039095
REMARK  7 active torsions:
REMARK  status: ('A' for Active; 'I' for Inactive)
REMARK    1  A    between atoms: C_5  and  C_16
REMARK    2  A    between atoms: C_6  and  C_27
REMARK    3  A    between atoms: C_11  and  N_17
REMARK    4  A    between atoms: C_27  and  C_28
REMARK    5  A    between atoms: C_28  and  C_29
REMARK    6  A    between atoms: C_32  and  O_35
REMARK    7  A    between atoms: C_33  and  O_37
REMARK                            x       y       z     vdW  Elec       q    Type
REMARK                         _______ _______ _______ _____ _____    ______ ____
ROOT
ATOM      1  O   UNL     1      33.697 -21.423 -19.545  0.00  0.00    -0.270 OA
ATOM      2  N   UNL     1      35.818 -20.444 -19.772  0.00  0.00    -0.265 N 
ATOM      3  N   UNL     1      36.132 -18.408 -22.567  0.00  0.00    -0.239 N 
ATOM      4  N   UNL     1      36.682 -18.949 -21.466  0.00  0.00    -0.166 NA
ATOM      5  C   UNL     1      34.858 -21.248 -19.141  0.00  0.00    +0.251 C 
ATOM      6  C   UNL     1      34.833 -18.772 -22.770  0.00  0.00    +0.046 C 
ATOM      7  C   UNL     1      35.687 -19.681 -20.959  0.00  0.00    +0.153 C 
ATOM      8  C   UNL     1      34.511 -19.610 -21.730  0.00  0.00    +0.048 C 
ATOM      9  H   UNL     1      36.698 -20.403 -19.333  0.00  0.00    +0.157 HD
ATOM     10  H   UNL     1      36.622 -17.804 -23.170  0.00  0.00    +0.174 HD
ENDROOT
BRANCH   5  16
ATOM     11  C   UNL     1      36.143 -23.255 -15.629  0.00  0.00    +0.048 C 
ATOM     12  C   UNL     1      34.823 -23.381 -16.061  0.00  0.00    +0.015 C 
ATOM     13  C   UNL     1      37.043 -22.472 -16.353  0.00  0.00    +0.015 C 
ATOM     14  C   UNL     1      34.401 -22.721 -17.215  0.00  0.00    +0.006 C 
ATOM     15  C   UNL     1      36.620 -21.812 -17.507  0.00  0.00    +0.006 C 
ATOM     16  C   UNL     1      35.300 -21.937 -17.939  0.00  0.00    +0.054 C 
BRANCH  11  17
ATOM     17  N   UNL     1      36.569 -23.917 -14.472  0.00  0.00    -0.312 N 
ATOM     18  N   UNL     1      37.513 -25.059 -12.037  0.00  0.00    +0.389 N 
ATOM     19  C   UNL     1      38.043 -25.525 -13.323  0.00  0.00    -0.042 C 
ATOM     20  C   UNL     1      36.105 -24.671 -12.169  0.00  0.00    -0.042 C 
ATOM     21  C   UNL     1      37.944 -24.421 -14.386  0.00  0.00    +0.069 C 
ATOM     22  C   UNL     1      35.947 -23.539 -13.195  0.00  0.00    +0.069 C 
ATOM     23  C   UNL     1      35.577 -24.236 -10.804  0.00  0.00    -0.022 C 
ATOM     24  C   UNL     1      39.496 -25.960 -13.137  0.00  0.00    -0.022 C 
ATOM     25  H   UNL     1      38.055 -24.252 -11.725  0.00  0.00    -0.084 HD
ATOM     26  H   UNL     1      37.584 -25.816 -11.359  0.00  0.00    -0.084 HD
ENDBRANCH  11  17
ENDBRANCH   5  16
BRANCH   6  27
ATOM     27  C   UNL     1      34.054 -18.287 -23.920  0.00  0.00    +0.047 C 
BRANCH  27  28
ATOM     28  C   UNL     1      34.697 -17.104 -24.686  0.00  0.00    +0.033 C 
BRANCH  28  29
ATOM     29  C   UNL     1      34.246 -15.756 -24.175  0.00  0.00    -0.016 C 
ATOM     30  C   UNL     1      33.877 -14.756 -25.074  0.00  0.00    +0.033 C 
ATOM     31  C   UNL     1      34.196 -15.513 -22.803  0.00  0.00    +0.033 C 
ATOM     32  C   UNL     1      33.779 -14.270 -22.329  0.00  0.00    +0.141 C 
ATOM     33  C   UNL     1      33.459 -13.513 -24.601  0.00  0.00    +0.141 C 
ATOM     34  C   UNL     1      33.410 -13.269 -23.229  0.00  0.00    +0.074 C 
BRANCH  32  35
ATOM     35  O   UNL     1      33.730 -14.031 -20.989  0.00  0.00    -0.471 OA
ATOM     36  C   UNL     1      32.499 -13.539 -20.464  0.00  0.00    +0.252 C 
ENDBRANCH  32  35
BRANCH  33  37
ATOM     37  O   UNL     1      33.098 -12.536 -25.478  0.00  0.00    -0.471 OA
ATOM     38  C   UNL     1      33.285 -12.809 -26.866  0.00  0.00    +0.252 C 
ENDBRANCH  33  37
ENDBRANCH  28  29
ENDBRANCH  27  28
ENDBRANCH   6  27
TORSDOF 7
ENDMDL
MODEL 3
REMARK VINA RESULT:     -11.8      0.362      1.709
REMARK  Name = 51039095
REMARK  7 active torsions:
REMARK  status: ('A' for Active; 'I' for Inactive)
REMARK    1  A    between atoms: C_5  and  C_16
REMARK    2  A    between atoms: C_6  and  C_27
REMARK    3  A    between atoms: C_11  and  N_17
REMARK    4  A    between atoms: C_27  and  C_28
REMARK    5  A    between atoms: C_28  and  C_29
REMARK    6  A    between atoms: C_32  and  O_35
REMARK    7  A    between atoms: C_33  and  O_37
REMARK                            x       y       z     vdW  Elec       q    Type
REMARK                         _______ _______ _______ _____ _____    ______ ____
ROOT
ATOM      1  O   UNL     1      33.894 -21.551 -19.450  0.00  0.00    -0.270 OA
ATOM      2  N   UNL     1      35.964 -20.466 -19.664  0.00  0.00    -0.265 N 
ATOM      3  N   UNL     1      36.222 -18.482 -22.501  0.00  0.00    -0.239 N 
ATOM      4  N   UNL     1      36.779 -18.967 -21.378  0.00  0.00    -0.166 NA
ATOM      5  C   UNL     1      35.037 -21.306 -19.031  0.00  0.00    +0.251 C 
ATOM      6  C   UNL     1      34.948 -18.920 -22.718  0.00  0.00    +0.046 C 
ATOM      7  C   UNL     1      35.815 -19.740 -20.871  0.00  0.00    +0.153 C 
ATOM      8  C   UNL     1      34.652 -19.749 -21.664  0.00  0.00    +0.048 C 
ATOM      9  H   UNL     1      36.832 -20.369 -19.211  0.00  0.00    +0.157 HD
ATOM     10  H   UNL     1      36.691 -17.867 -23.110  0.00  0.00    +0.174 HD
ENDROOT
BRANCH   5  16
ATOM     11  C   UNL     1      36.366 -23.165 -15.455  0.00  0.00    +0.048 C 
ATOM     12  C   UNL     1      37.249 -22.392 -16.209  0.00  0.00    +0.015 C 
ATOM     13  C   UNL     1      35.046 -23.327 -15.875  0.00  0.00    +0.015 C 
ATOM     14  C   UNL     1      36.812 -21.781 -17.384  0.00  0.00    +0.006 C 
ATOM     15  C   UNL     1      34.609 -22.715 -17.050  0.00  0.00    +0.006 C 
ATOM     16  C   UNL     1      35.491 -21.942 -17.804  0.00  0.00    +0.054 C 
BRANCH  11  17
ATOM     17  N   UNL     1      36.804 -23.778 -14.275  0.00  0.00    -0.312 N 
ATOM     18  N   UNL     1      37.615 -25.229 -11.960  0.00  0.00    +0.389 N 
ATOM     19  C   UNL     1      36.642 -24.137 -11.841  0.00  0.00    -0.042 C 
ATOM     20  C   UNL     1      38.582 -24.945 -13.026  0.00  0.00    -0.042 C 
ATOM     21  C   UNL     1      35.871 -23.948 -13.156  0.00  0.00    +0.069 C 
ATOM     22  C   UNL     1      37.869 -24.785 -14.376  0.00  0.00    +0.069 C 
ATOM     23  C   UNL     1      39.602 -26.080 -13.088  0.00  0.00    -0.022 C 
ATOM     24  C   UNL     1      35.680 -24.446 -10.695  0.00  0.00    -0.022 C 
ATOM     25  H   UNL     1      37.121 -26.095 -12.177  0.00  0.00    -0.084 HD
ATOM     26  H   UNL     1      38.116 -25.320 -11.076  0.00  0.00    -0.084 HD
ENDBRANCH  11  17
ENDBRANCH   5  16
BRANCH   6  27
ATOM     27  C   UNL     1      34.166 -18.503 -23.893  0.00  0.00    +0.047 C 
BRANCH  27  28
ATOM     28  C   UNL     1      34.777 -17.328 -24.696  0.00  0.00    +0.033 C 
BRANCH  28  29
ATOM     29  C   UNL     1      34.245 -15.982 -24.266  0.00  0.00    -0.016 C 
ATOM     30  C   UNL     1      34.293 -15.608 -22.923  0.00  0.00    +0.033 C 
ATOM     31  C   UNL     1      33.707 -15.111 -25.213  0.00  0.00    +0.033 C 
ATOM     32  C   UNL     1      33.215 -13.867 -24.818  0.00  0.00    +0.141 C 
ATOM     33  C   UNL     1      33.802 -14.364 -22.527  0.00  0.00    +0.141 C 
ATOM     34  C   UNL     1      33.263 -13.493 -23.474  0.00  0.00    +0.074 C 
BRANCH  32  35
ATOM     35  O   UNL     1      32.690 -13.016 -25.741  0.00  0.00    -0.471 OA
ATOM     36  C   UNL     1      33.503 -12.704 -26.871  0.00  0.00    +0.252 C 
ENDBRANCH  32  35
BRANCH  33  37
ATOM     37  O   UNL     1      33.849 -13.999 -21.217  0.00  0.00    -0.471 OA
ATOM     38  C   UNL     1      32.627 -13.570 -20.618  0.00  0.00    +0.252 C 
ENDBRANCH  33  37
ENDBRANCH  28  29
ENDBRANCH  27  28
ENDBRANCH   6  27
TORSDOF 7
ENDMDL
MODEL 4
REMARK VINA RESULT:     -11.8      4.794     13.527
REMARK  Name = 51039095
REMARK  7 active torsions:
REMARK  status: ('A' for Active; 'I' for Inactive)
REMARK    1  A    between atoms: C_5  and  C_16
REMARK    2  A    between atoms: C_6  and  C_27
REMARK    3  A    between atoms: C_11  and  N_17
REMARK    4  A    between atoms: C_27  and  C_28
REMARK    5  A    between atoms: C_28  and  C_29
REMARK    6  A    between atoms: C_32  and  O_35
REMARK    7  A    between atoms: C_33  and  O_37
REMARK                            x       y       z     vdW  Elec       q    Type
REMARK                         _______ _______ _______ _____ _____    ______ ____
ROOT
ATOM      1  O   UNL     1      33.334 -13.928 -20.957  0.00  0.00    -0.270 OA
ATOM      2  N   UNL     1      34.083 -14.097 -23.175  0.00  0.00    -0.265 N 
ATOM      3  N   UNL     1      35.320 -17.234 -24.004  0.00  0.00    -0.239 N 
ATOM      4  N   UNL     1      35.041 -15.971 -24.368  0.00  0.00    -0.166 NA
ATOM      5  C   UNL     1      33.529 -13.426 -22.076  0.00  0.00    +0.251 C 
ATOM      6  C   UNL     1      35.000 -17.517 -22.708  0.00  0.00    +0.046 C 
ATOM      7  C   UNL     1      34.526 -15.440 -23.256  0.00  0.00    +0.153 C 
ATOM      8  C   UNL     1      34.477 -16.358 -22.189  0.00  0.00    +0.048 C 
ATOM      9  H   UNL     1      34.177 -13.566 -23.998  0.00  0.00    +0.157 HD
ATOM     10  H   UNL     1      35.716 -17.894 -24.616  0.00  0.00    +0.174 HD
ENDROOT
BRANCH   5  16
ATOM     11  C   UNL     1      32.552  -9.343 -22.702  0.00  0.00    +0.048 C 
ATOM     12  C   UNL     1      33.527  -9.956 -23.490  0.00  0.00    +0.015 C 
ATOM     13  C   UNL     1      31.897 -10.072 -21.709  0.00  0.00    +0.015 C 
ATOM     14  C   UNL     1      33.847 -11.298 -23.284  0.00  0.00    +0.006 C 
ATOM     15  C   UNL     1      32.219 -11.414 -21.504  0.00  0.00    +0.006 C 
ATOM     16  C   UNL     1      33.193 -12.027 -22.291  0.00  0.00    +0.054 C 
BRANCH  11  17
ATOM     17  N   UNL     1      32.229  -7.998 -22.908  0.00  0.00    -0.312 N 
ATOM     18  N   UNL     1      31.761  -5.202 -23.203  0.00  0.00    +0.389 N 
ATOM     19  C   UNL     1      30.766  -6.047 -22.535  0.00  0.00    -0.042 C 
ATOM     20  C   UNL     1      32.444  -5.949 -24.265  0.00  0.00    -0.042 C 
ATOM     21  C   UNL     1      31.433  -7.280 -21.906  0.00  0.00    +0.069 C 
ATOM     22  C   UNL     1      33.164  -7.175 -23.687  0.00  0.00    +0.069 C 
ATOM     23  C   UNL     1      33.437  -5.023 -24.966  0.00  0.00    -0.022 C 
ATOM     24  C   UNL     1      30.046  -5.224 -21.468  0.00  0.00    -0.022 C 
ATOM     25  H   UNL     1      32.448  -4.888 -22.518  0.00  0.00    -0.084 HD
ATOM     26  H   UNL     1      31.285  -4.401 -23.618  0.00  0.00    -0.084 HD
ENDBRANCH  11  17
ENDBRANCH   5  16
BRANCH   6  27
ATOM     27  C   UNL     1      35.227 -18.845 -22.117  0.00  0.00    +0.047 C 
BRANCH  27  28
ATOM     28  C   UNL     1      33.940 -19.588 -21.677  0.00  0.00    +0.033 C 
BRANCH  28  29
ATOM     29  C   UNL     1      34.149 -20.459 -20.462  0.00  0.00    -0.016 C 
ATOM     30  C   UNL     1      33.052 -21.007 -19.798  0.00  0.00    +0.033 C 
ATOM     31  C   UNL     1      35.441 -20.718 -20.005  0.00  0.00    +0.033 C 
ATOM     32  C   UNL     1      35.636 -21.524 -18.883  0.00  0.00    +0.141 C 
ATOM     33  C   UNL     1      33.246 -21.814 -18.677  0.00  0.00    +0.141 C 
ATOM     34  C   UNL     1      34.538 -22.072 -18.219  0.00  0.00    +0.074 C 
BRANCH  32  35
ATOM     35  O   UNL     1      36.897 -21.777 -18.436  0.00  0.00    -0.471 OA
ATOM     36  C   UNL     1      37.086 -21.823 -17.023  0.00  0.00    +0.252 C 
ENDBRANCH  32  35
BRANCH  33  37
ATOM     37  O   UNL     1      32.176 -22.349 -18.029  0.00  0.00    -0.471 OA
ATOM     38  C   UNL     1      32.440 -23.081 -16.833  0.00  0.00    +0.252 C 
ENDBRANCH  33  37
ENDBRANCH  28  29
ENDBRANCH  27  28
ENDBRANCH   6  27
TORSDOF 7
ENDMDL
MODEL 5
REMARK VINA RESULT:     -11.8      4.809     13.560
REMARK  Name = 51039095
REMARK  7 active torsions:
REMARK  status: ('A' for Active; 'I' for Inactive)
REMARK    1  A    between atoms: C_5  and  C_16
REMARK    2  A    between atoms: C_6  and  C_27
REMARK    3  A    between atoms: C_11  and  N_17
REMARK    4  A    between atoms: C_27  and  C_28
REMARK    5  A    between atoms: C_28  and  C_29
REMARK    6  A    between atoms: C_32  and  O_35
REMARK    7  A    between atoms: C_33  and  O_37
REMARK                            x       y       z     vdW  Elec       q    Type
REMARK                         _______ _______ _______ _____ _____    ______ ____
ROOT
ATOM      1  O   UNL     1      33.351 -13.886 -20.944  0.00  0.00    -0.270 OA
ATOM      2  N   UNL     1      34.085 -14.068 -23.165  0.00  0.00    -0.265 N 
ATOM      3  N   UNL     1      35.315 -17.210 -23.984  0.00  0.00    -0.239 N 
ATOM      4  N   UNL     1      35.034 -15.949 -24.354  0.00  0.00    -0.166 NA
ATOM      5  C   UNL     1      33.538 -13.390 -22.067  0.00  0.00    +0.251 C 
ATOM      6  C   UNL     1      35.004 -17.485 -22.684  0.00  0.00    +0.046 C 
ATOM      7  C   UNL     1      34.527 -15.412 -23.241  0.00  0.00    +0.153 C 
ATOM      8  C   UNL     1      34.484 -16.323 -22.169  0.00  0.00    +0.048 C 
ATOM      9  H   UNL     1      34.173 -13.542 -23.993  0.00  0.00    +0.157 HD
ATOM     10  H   UNL     1      35.708 -17.874 -24.595  0.00  0.00    +0.174 HD
ENDROOT
BRANCH   5  16
ATOM     11  C   UNL     1      32.557  -9.311 -22.711  0.00  0.00    +0.048 C 
ATOM     12  C   UNL     1      33.538  -9.925 -23.491  0.00  0.00    +0.015 C 
ATOM     13  C   UNL     1      31.898 -10.038 -21.720  0.00  0.00    +0.015 C 
ATOM     14  C   UNL     1      33.860 -11.265 -23.279  0.00  0.00    +0.006 C 
ATOM     15  C   UNL     1      32.220 -11.379 -21.509  0.00  0.00    +0.006 C 
ATOM     16  C   UNL     1      33.200 -11.993 -22.288  0.00  0.00    +0.054 C 
BRANCH  11  17
ATOM     17  N   UNL     1      32.233  -7.967 -22.923  0.00  0.00    -0.312 N 
ATOM     18  N   UNL     1      31.765  -5.172 -23.234  0.00  0.00    +0.389 N 
ATOM     19  C   UNL     1      30.781  -6.011 -22.541  0.00  0.00    -0.042 C 
ATOM     20  C   UNL     1      32.429  -5.930 -24.300  0.00  0.00    -0.042 C 
ATOM     21  C   UNL     1      31.456  -7.239 -21.913  0.00  0.00    +0.069 C 
ATOM     22  C   UNL     1      33.157  -7.153 -23.725  0.00  0.00    +0.069 C 
ATOM     23  C   UNL     1      33.411  -5.012 -25.027  0.00  0.00    -0.022 C 
ATOM     24  C   UNL     1      30.081  -5.177 -21.469  0.00  0.00    -0.022 C 
ATOM     25  H   UNL     1      32.465  -4.854 -22.563  0.00  0.00    -0.084 HD
ATOM     26  H   UNL     1      31.284  -4.374 -23.648  0.00  0.00    -0.084 HD
ENDBRANCH  11  17
ENDBRANCH   5  16
BRANCH   6  27
ATOM     27  C   UNL     1      35.235 -18.810 -22.086  0.00  0.00    +0.047 C 
BRANCH  27  28
ATOM     28  C   UNL     1      33.949 -19.558 -21.653  0.00  0.00    +0.033 C 
BRANCH  28  29
ATOM     29  C   UNL     1      34.162 -20.444 -20.448  0.00  0.00    -0.016 C 
ATOM     30  C   UNL     1      35.454 -20.697 -19.987  0.00  0.00    +0.033 C 
ATOM     31  C   UNL     1      33.066 -21.007 -19.796  0.00  0.00    +0.033 C 
ATOM     32  C   UNL     1      33.260 -21.824 -18.683  0.00  0.00    +0.141 C 
ATOM     33  C   UNL     1      35.649 -21.513 -18.874  0.00  0.00    +0.141 C 
ATOM     34  C   UNL     1      34.553 -22.078 -18.221  0.00  0.00    +0.074 C 
BRANCH  32  35
ATOM     35  O   UNL     1      32.191 -22.374 -18.045  0.00  0.00    -0.471 OA
ATOM     36  C   UNL     1      32.444 -23.029 -16.803  0.00  0.00    +0.252 C 
ENDBRANCH  32  35
BRANCH  33  37
ATOM     37  O   UNL     1      36.909 -21.760 -18.423  0.00  0.00    -0.471 OA
ATOM     38  C   UNL     1      37.088 -21.842 -17.009  0.00  0.00    +0.252 C 
ENDBRANCH  33  37
ENDBRANCH  28  29
ENDBRANCH  27  28
ENDBRANCH   6  27
TORSDOF 7
ENDMDL
MODEL 6
REMARK VINA RESULT:     -11.7      0.588      2.512
REMARK  Name = 51039095
REMARK  7 active torsions:
REMARK  status: ('A' for Active; 'I' for Inactive)
REMARK    1  A    between atoms: C_5  and  C_16
REMARK    2  A    between atoms: C_6  and  C_27
REMARK    3  A    between atoms: C_11  and  N_17
REMARK    4  A    between atoms: C_27  and  C_28
REMARK    5  A    between atoms: C_28  and  C_29
REMARK    6  A    between atoms: C_32  and  O_35
REMARK    7  A    between atoms: C_33  and  O_37
REMARK                            x       y       z     vdW  Elec       q    Type
REMARK                         _______ _______ _______ _____ _____    ______ ____
ROOT
ATOM      1  O   UNL     1      33.842 -21.280 -19.518  0.00  0.00    -0.270 OA
ATOM      2  N   UNL     1      35.975 -20.341 -19.786  0.00  0.00    -0.265 N 
ATOM      3  N   UNL     1      36.275 -18.317 -22.591  0.00  0.00    -0.239 N 
ATOM      4  N   UNL     1      36.835 -18.865 -21.499  0.00  0.00    -0.166 NA
ATOM      5  C   UNL     1      35.013 -21.126 -19.136  0.00  0.00    +0.251 C 
ATOM      6  C   UNL     1      34.966 -18.658 -22.770  0.00  0.00    +0.046 C 
ATOM      7  C   UNL     1      35.836 -19.579 -20.972  0.00  0.00    +0.153 C 
ATOM      8  C   UNL     1      34.648 -19.487 -21.722  0.00  0.00    +0.048 C 
ATOM      9  H   UNL     1      36.863 -20.315 -19.363  0.00  0.00    +0.157 HD
ATOM     10  H   UNL     1      36.765 -17.723 -23.205  0.00  0.00    +0.174 HD
ENDROOT
BRANCH   5  16
ATOM     11  C   UNL     1      36.325 -23.149 -15.643  0.00  0.00    +0.048 C 
ATOM     12  C   UNL     1      35.009 -23.296 -16.081  0.00  0.00    +0.015 C 
ATOM     13  C   UNL     1      37.211 -22.338 -16.353  0.00  0.00    +0.015 C 
ATOM     14  C   UNL     1      34.578 -22.631 -17.229  0.00  0.00    +0.006 C 
ATOM     15  C   UNL     1      36.779 -21.673 -17.501  0.00  0.00    +0.006 C 
ATOM     16  C   UNL     1      35.463 -21.820 -17.940  0.00  0.00    +0.054 C 
BRANCH  11  17
ATOM     17  N   UNL     1      36.759 -23.815 -14.492  0.00  0.00    -0.312 N 
ATOM     18  N   UNL     1      37.580 -25.372 -12.250  0.00  0.00    +0.389 N 
ATOM     19  C   UNL     1      36.533 -24.356 -12.096  0.00  0.00    -0.042 C 
ATOM     20  C   UNL     1      38.564 -24.952 -13.253  0.00  0.00    -0.042 C 
ATOM     21  C   UNL     1      35.799 -24.124 -13.426  0.00  0.00    +0.069 C 
ATOM     22  C   UNL     1      37.892 -24.742 -14.618  0.00  0.00    +0.069 C 
ATOM     23  C   UNL     1      39.660 -26.012 -13.352  0.00  0.00    -0.022 C 
ATOM     24  C   UNL     1      35.553 -24.807 -11.015  0.00  0.00    -0.022 C 
ATOM     25  H   UNL     1      37.153 -26.250 -12.547  0.00  0.00    -0.084 HD
ATOM     26  H   UNL     1      38.054 -25.494 -11.355  0.00  0.00    -0.084 HD
ENDBRANCH  11  17
ENDBRANCH   5  16
BRANCH   6  27
ATOM     27  C   UNL     1      34.175 -18.161 -23.907  0.00  0.00    +0.047 C 
BRANCH  27  28
ATOM     28  C   UNL     1      34.777 -16.929 -24.627  0.00  0.00    +0.033 C 
BRANCH  28  29
ATOM     29  C   UNL     1      34.367 -15.619 -23.996  0.00  0.00    -0.016 C 
ATOM     30  C   UNL     1      34.186 -14.488 -24.791  0.00  0.00    +0.033 C 
ATOM     31  C   UNL     1      34.168 -15.543 -22.618  0.00  0.00    +0.033 C 
ATOM     32  C   UNL     1      33.788 -14.335 -22.034  0.00  0.00    +0.141 C 
ATOM     33  C   UNL     1      33.806 -13.280 -24.207  0.00  0.00    +0.141 C 
ATOM     34  C   UNL     1      33.607 -13.202 -22.829  0.00  0.00    +0.074 C 
BRANCH  32  35
ATOM     35  O   UNL     1      33.593 -14.259 -20.689  0.00  0.00    -0.471 OA
ATOM     36  C   UNL     1      32.361 -13.694 -20.244  0.00  0.00    +0.252 C 
ENDBRANCH  32  35
BRANCH  33  37
ATOM     37  O   UNL     1      33.628 -12.175 -24.983  0.00  0.00    -0.471 OA
ATOM     38  C   UNL     1      34.122 -10.937 -24.472  0.00  0.00    +0.252 C 
ENDBRANCH  33  37
ENDBRANCH  28  29
ENDBRANCH  27  28
ENDBRANCH   6  27
TORSDOF 7
ENDMDL
MODEL 7
REMARK VINA RESULT:     -11.2      4.821     13.462
REMARK  Name = 51039095
REMARK  7 active torsions:
REMARK  status: ('A' for Active; 'I' for Inactive)
REMARK    1  A    between atoms: C_5  and  C_16
REMARK    2  A    between atoms: C_6  and  C_27
REMARK    3  A    between atoms: C_11  and  N_17
REMARK    4  A    between atoms: C_27  and  C_28
REMARK    5  A    between atoms: C_28  and  C_29
REMARK    6  A    between atoms: C_32  and  O_35
REMARK    7  A    between atoms: C_33  and  O_37
REMARK                            x       y       z     vdW  Elec       q    Type
REMARK                         _______ _______ _______ _____ _____    ______ ____
ROOT
ATOM      1  O   UNL     1      33.204 -13.915 -21.014  0.00  0.00    -0.270 OA
ATOM      2  N   UNL     1      34.099 -14.024 -23.180  0.00  0.00    -0.265 N 
ATOM      3  N   UNL     1      35.349 -17.150 -24.028  0.00  0.00    -0.239 N 
ATOM      4  N   UNL     1      35.111 -15.872 -24.368  0.00  0.00    -0.166 NA
ATOM      5  C   UNL     1      33.480 -13.380 -22.100  0.00  0.00    +0.251 C 
ATOM      6  C   UNL     1      34.939 -17.470 -22.766  0.00  0.00    +0.046 C 
ATOM      7  C   UNL     1      34.530 -15.370 -23.276  0.00  0.00    +0.153 C 
ATOM      8  C   UNL     1      34.396 -16.320 -22.246  0.00  0.00    +0.048 C 
ATOM      9  H   UNL     1      34.255 -13.468 -23.978  0.00  0.00    +0.157 HD
ATOM     10  H   UNL     1      35.778 -17.796 -24.634  0.00  0.00    +0.174 HD
ENDROOT
BRANCH   5  16
ATOM     11  C   UNL     1      32.591  -9.268 -22.658  0.00  0.00    +0.048 C 
ATOM     12  C   UNL     1      31.921  -9.999 -21.678  0.00  0.00    +0.015 C 
ATOM     13  C   UNL     1      33.555  -9.886 -23.455  0.00  0.00    +0.015 C 
ATOM     14  C   UNL     1      32.213 -11.350 -21.495  0.00  0.00    +0.006 C 
ATOM     15  C   UNL     1      33.847 -11.238 -23.270  0.00  0.00    +0.006 C 
ATOM     16  C   UNL     1      33.177 -11.970 -22.291  0.00  0.00    +0.054 C 
BRANCH  11  17
ATOM     17  N   UNL     1      32.299  -7.912 -22.844  0.00  0.00    -0.312 N 
ATOM     18  N   UNL     1      31.502  -5.216 -23.316  0.00  0.00    +0.389 N 
ATOM     19  C   UNL     1      32.722  -5.742 -23.937  0.00  0.00    -0.042 C 
ATOM     20  C   UNL     1      31.289  -5.826 -21.999  0.00  0.00    -0.042 C 
ATOM     21  C   UNL     1      32.629  -7.264 -24.118  0.00  0.00    +0.069 C 
ATOM     22  C   UNL     1      31.149  -7.350 -22.123  0.00  0.00    +0.069 C 
ATOM     23  C   UNL     1      30.037  -5.221 -21.366  0.00  0.00    -0.022 C 
ATOM     24  C   UNL     1      32.935  -5.053 -25.284  0.00  0.00    -0.022 C 
ATOM     25  H   UNL     1      30.704  -5.427 -23.916  0.00  0.00    -0.084 HD
ATOM     26  H   UNL     1      31.601  -4.208 -23.200  0.00  0.00    -0.084 HD
ENDBRANCH  11  17
ENDBRANCH   5  16
BRANCH   6  27
ATOM     27  C   UNL     1      35.109 -18.819 -22.205  0.00  0.00    +0.047 C 
BRANCH  27  28
ATOM     28  C   UNL     1      33.813 -19.454 -21.639  0.00  0.00    +0.033 C 
BRANCH  28  29
ATOM     29  C   UNL     1      34.070 -20.370 -20.467  0.00  0.00    -0.016 C 
ATOM     30  C   UNL     1      33.000 -20.968 -19.800  0.00  0.00    +0.033 C 
ATOM     31  C   UNL     1      35.377 -20.620 -20.052  0.00  0.00    +0.033 C 
ATOM     32  C   UNL     1      35.616 -21.467 -18.969  0.00  0.00    +0.141 C 
ATOM     33  C   UNL     1      33.238 -21.815 -18.719  0.00  0.00    +0.141 C 
ATOM     34  C   UNL     1      34.546 -22.064 -18.302  0.00  0.00    +0.074 C 
BRANCH  32  35
ATOM     35  O   UNL     1      36.892 -21.712 -18.563  0.00  0.00    -0.471 OA
ATOM     36  C   UNL     1      37.126 -21.758 -17.156  0.00  0.00    +0.252 C 
ENDBRANCH  32  35
BRANCH  33  37
ATOM     37  O   UNL     1      32.195 -22.399 -18.068  0.00  0.00    -0.471 OA
ATOM     38  C   UNL     1      32.493 -23.102 -16.863  0.00  0.00    +0.252 C 
ENDBRANCH  33  37
ENDBRANCH  28  29
ENDBRANCH  27  28
ENDBRANCH   6  27
TORSDOF 7
ENDMDL
MODEL 8
REMARK VINA RESULT:     -11.2      5.072     13.685
REMARK  Name = 51039095
REMARK  7 active torsions:
REMARK  status: ('A' for Active; 'I' for Inactive)
REMARK    1  A    between atoms: C_5  and  C_16
REMARK    2  A    between atoms: C_6  and  C_27
REMARK    3  A    between atoms: C_11  and  N_17
REMARK    4  A    between atoms: C_27  and  C_28
REMARK    5  A    between atoms: C_28  and  C_29
REMARK    6  A    between atoms: C_32  and  O_35
REMARK    7  A    between atoms: C_33  and  O_37
REMARK                            x       y       z     vdW  Elec       q    Type
REMARK                         _______ _______ _______ _____ _____    ______ ____
ROOT
ATOM      1  O   UNL     1      34.014 -13.528 -24.116  0.00  0.00    -0.270 OA
ATOM      2  N   UNL     1      34.038 -13.548 -21.770  0.00  0.00    -0.265 N 
ATOM      3  N   UNL     1      34.825 -16.640 -20.400  0.00  0.00    -0.239 N 
ATOM      4  N   UNL     1      34.502 -15.347 -20.221  0.00  0.00    -0.166 NA
ATOM      5  C   UNL     1      33.878 -12.948 -23.027  0.00  0.00    +0.251 C 
ATOM      6  C   UNL     1      34.909 -17.011 -21.711  0.00  0.00    +0.046 C 
ATOM      7  C   UNL     1      34.378 -14.890 -21.470  0.00  0.00    +0.153 C 
ATOM      8  C   UNL     1      34.619 -15.883 -22.439  0.00  0.00    +0.048 C 
ATOM      9  H   UNL     1      33.895 -12.960 -20.994  0.00  0.00    +0.157 HD
ATOM     10  H   UNL     1      34.988 -17.261 -19.654  0.00  0.00    +0.174 HD
ENDROOT
BRANCH   5  16
ATOM     11  C   UNL     1      32.758  -8.854 -22.997  0.00  0.00    +0.048 C 
ATOM     12  C   UNL     1      32.016  -9.786 -22.270  0.00  0.00    +0.015 C 
ATOM     13  C   UNL     1      33.869  -9.268 -23.732  0.00  0.00    +0.015 C 
ATOM     14  C   UNL     1      32.384 -11.131 -22.280  0.00  0.00    +0.006 C 
ATOM     15  C   UNL     1      34.237 -10.614 -23.741  0.00  0.00    +0.006 C 
ATOM     16  C   UNL     1      33.495 -11.545 -23.016  0.00  0.00    +0.054 C 
BRANCH  11  17
ATOM     17  N   UNL     1      32.391  -7.504 -22.987  0.00  0.00    -0.312 N 
ATOM     18  N   UNL     1      31.437  -4.819 -23.061  0.00  0.00    +0.389 N 
ATOM     19  C   UNL     1      32.644  -5.192 -23.807  0.00  0.00    -0.042 C 
ATOM     20  C   UNL     1      31.330  -5.604 -21.826  0.00  0.00    -0.042 C 
ATOM     21  C   UNL     1      32.615  -6.682 -24.181  0.00  0.00    +0.069 C 
ATOM     22  C   UNL     1      31.258  -7.104 -22.141  0.00  0.00    +0.069 C 
ATOM     23  C   UNL     1      30.089  -5.155 -21.056  0.00  0.00    -0.022 C 
ATOM     24  C   UNL     1      32.744  -4.326 -25.062  0.00  0.00    -0.022 C 
ATOM     25  H   UNL     1      30.617  -4.995 -23.642  0.00  0.00    -0.084 HD
ATOM     26  H   UNL     1      31.493  -3.830 -22.819  0.00  0.00    -0.084 HD
ENDBRANCH  11  17
ENDBRANCH   5  16
BRANCH   6  27
ATOM     27  C   UNL     1      35.251 -18.383 -22.117  0.00  0.00    +0.047 C 
BRANCH  27  28
ATOM     28  C   UNL     1      34.109 -19.415 -21.940  0.00  0.00    +0.033 C 
BRANCH  28  29
ATOM     29  C   UNL     1      34.284 -20.284 -20.718  0.00  0.00    -0.016 C 
ATOM     30  C   UNL     1      35.561 -20.528 -20.211  0.00  0.00    +0.033 C 
ATOM     31  C   UNL     1      33.168 -20.840 -20.093  0.00  0.00    +0.033 C 
ATOM     32  C   UNL     1      33.328 -21.642 -18.963  0.00  0.00    +0.141 C 
ATOM     33  C   UNL     1      35.721 -21.329 -19.082  0.00  0.00    +0.141 C 
ATOM     34  C   UNL     1      34.606 -21.887 -18.457  0.00  0.00    +0.074 C 
BRANCH  32  35
ATOM     35  O   UNL     1      32.240 -22.186 -18.353  0.00  0.00    -0.471 OA
ATOM     36  C   UNL     1      32.436 -22.742 -17.054  0.00  0.00    +0.252 C 
ENDBRANCH  32  35
BRANCH  33  37
ATOM     37  O   UNL     1      36.967 -21.567 -18.587  0.00  0.00    -0.471 OA
ATOM     38  C   UNL     1      37.082 -21.743 -17.175  0.00  0.00    +0.252 C 
ENDBRANCH  33  37
ENDBRANCH  28  29
ENDBRANCH  27  28
ENDBRANCH   6  27
TORSDOF 7
ENDMDL
MODEL 9
REMARK VINA RESULT:     -10.6      1.667      2.291
REMARK  Name = 51039095
REMARK  7 active torsions:
REMARK  status: ('A' for Active; 'I' for Inactive)
REMARK    1  A    between atoms: C_5  and  C_16
REMARK    2  A    between atoms: C_6  and  C_27
REMARK    3  A    between atoms: C_11  and  N_17
REMARK    4  A    between atoms: C_27  and  C_28
REMARK    5  A    between atoms: C_28  and  C_29
REMARK    6  A    between atoms: C_32  and  O_35
REMARK    7  A    between atoms: C_33  and  O_37
REMARK                            x       y       z     vdW  Elec       q    Type
REMARK                         _______ _______ _______ _____ _____    ______ ____
ROOT
ATOM      1  O   UNL     1      36.605 -18.946 -20.596  0.00  0.00    -0.270 OA
ATOM      2  N   UNL     1      34.616 -19.906 -21.389  0.00  0.00    -0.265 N 
ATOM      3  N   UNL     1      33.428 -18.462 -24.314  0.00  0.00    -0.239 N 
ATOM      4  N   UNL     1      33.288 -19.377 -23.340  0.00  0.00    -0.166 NA
ATOM      5  C   UNL     1      35.687 -19.775 -20.493  0.00  0.00    +0.251 C 
ATOM      6  C   UNL     1      34.536 -17.677 -24.178  0.00  0.00    +0.046 C 
ATOM      7  C   UNL     1      34.350 -19.157 -22.561  0.00  0.00    +0.153 C 
ATOM      8  C   UNL     1      35.163 -18.109 -23.034  0.00  0.00    +0.048 C 
ATOM      9  H   UNL     1      33.963 -20.611 -21.175  0.00  0.00    +0.157 HD
ATOM     10  H   UNL     1      32.791 -18.367 -25.058  0.00  0.00    +0.174 HD
ENDROOT
BRANCH   5  16
ATOM     11  C   UNL     1      35.648 -22.410 -17.166  0.00  0.00    +0.048 C 
ATOM     12  C   UNL     1      34.524 -22.305 -17.986  0.00  0.00    +0.015 C 
ATOM     13  C   UNL     1      36.786 -21.650 -17.440  0.00  0.00    +0.015 C 
ATOM     14  C   UNL     1      34.538 -21.439 -19.079  0.00  0.00    +0.006 C 
ATOM     15  C   UNL     1      36.798 -20.784 -18.534  0.00  0.00    +0.006 C 
ATOM     16  C   UNL     1      35.675 -20.679 -19.354  0.00  0.00    +0.054 C 
BRANCH  11  17
ATOM     17  N   UNL     1      35.637 -23.278 -16.069  0.00  0.00    -0.312 N 
ATOM     18  N   UNL     1      35.589 -24.859 -13.698  0.00  0.00    +0.389 N 
ATOM     19  C   UNL     1      36.764 -24.884 -14.575  0.00  0.00    -0.042 C 
ATOM     20  C   UNL     1      34.363 -24.672 -14.481  0.00  0.00    -0.042 C 
ATOM     21  C   UNL     1      36.888 -23.569 -15.359  0.00  0.00    +0.069 C 
ATOM     22  C   UNL     1      34.413 -23.349 -15.259  0.00  0.00    +0.069 C 
ATOM     23  C   UNL     1      33.160 -24.697 -13.540  0.00  0.00    -0.022 C 
ATOM     24  C   UNL     1      38.014 -25.124 -13.730  0.00  0.00    -0.022 C 
ATOM     25  H   UNL     1      35.683 -24.090 -13.034  0.00  0.00    -0.084 HD
ATOM     26  H   UNL     1      35.530 -25.748 -13.202  0.00  0.00    -0.084 HD
ENDBRANCH  11  17
ENDBRANCH   5  16
BRANCH   6  27
ATOM     27  C   UNL     1      34.869 -16.616 -25.141  0.00  0.00    +0.047 C 
BRANCH  27  28
ATOM     28  C   UNL     1      33.714 -15.627 -25.440  0.00  0.00    +0.033 C 
BRANCH  28  29
ATOM     29  C   UNL     1      33.641 -14.489 -24.451  0.00  0.00    -0.016 C 
ATOM     30  C   UNL     1      33.406 -14.751 -23.101  0.00  0.00    +0.033 C 
ATOM     31  C   UNL     1      33.812 -13.176 -24.886  0.00  0.00    +0.033 C 
ATOM     32  C   UNL     1      33.746 -12.123 -23.973  0.00  0.00    +0.141 C 
ATOM     33  C   UNL     1      33.341 -13.700 -22.187  0.00  0.00    +0.141 C 
ATOM     34  C   UNL     1      33.510 -12.386 -22.623  0.00  0.00    +0.074 C 
BRANCH  32  35
ATOM     35  O   UNL     1      33.913 -10.840 -24.397  0.00  0.00    -0.471 OA
ATOM     36  C   UNL     1      33.695  -9.808 -23.437  0.00  0.00    +0.252 C 
ENDBRANCH  32  35
BRANCH  33  37
ATOM     37  O   UNL     1      33.111 -13.955 -20.870  0.00  0.00    -0.471 OA
ATOM     38  C   UNL     1      32.036 -13.252 -20.250  0.00  0.00    +0.252 C 
ENDBRANCH  33  37
ENDBRANCH  28  29
ENDBRANCH  27  28
ENDBRANCH   6  27
TORSDOF 7
ENDMDL
