MODEL 1
REMARK VINA RESULT:     -11.6      0.000      0.000
REMARK  Name = 5326930
REMARK  4 active torsions:
REMARK  status: ('A' for Active; 'I' for Inactive)
REMARK    1  A    between atoms: C_7  and  C_21
REMARK    2  A    between atoms: C_21  and  C_22
REMARK    3  A    between atoms: C_22  and  C_23
REMARK    4  A    between atoms: C_28  and  O_29
REMARK                            x       y       z     vdW  Elec       q    Type
REMARK                         _______ _______ _______ _____ _____    ______ ____
ROOT
ATOM      1  O   UNL     1      34.568 -24.901 -11.619  0.00  0.00    -0.209 OA
ATOM      2  N   UNL     1      34.606 -22.980 -15.134  0.00  0.00    -0.275 N 
ATOM      3  N   UNL     1      29.761 -25.174 -13.725  0.00  0.00    -0.315 N 
ATOM      4  N   UNL     1      29.815 -24.101 -15.669  0.00  0.00    -0.316 N 
ATOM      5  N   UNL     1      35.747 -23.706 -13.177  0.00  0.00    -0.302 NA
ATOM      6  N   UNL     1      36.825 -22.476 -14.855  0.00  0.00    -0.320 N 
ATOM      7  C   UNL     1      32.248 -23.460 -15.531  0.00  0.00    +0.007 C 
ATOM      8  C   UNL     1      33.397 -23.556 -14.730  0.00  0.00    +0.060 C 
ATOM      9  C   UNL     1      31.056 -24.056 -15.079  0.00  0.00    +0.056 C 
ATOM     10  C   UNL     1      31.050 -24.723 -13.858  0.00  0.00    +0.060 C 
ATOM     11  C   UNL     1      33.350 -24.237 -13.504  0.00  0.00    +0.109 C 
ATOM     12  C   UNL     1      32.172 -24.838 -13.036  0.00  0.00    +0.029 C 
ATOM     13  C   UNL     1      34.600 -24.308 -12.694  0.00  0.00    +0.208 C 
ATOM     14  C   UNL     1      29.063 -24.779 -14.831  0.00  0.00    +0.182 C 
ATOM     15  C   UNL     1      35.716 -23.090 -14.328  0.00  0.00    +0.248 C 
ATOM     16  H   UNL     1      34.661 -22.498 -15.991  0.00  0.00    +0.156 HD
ATOM     17  H   UNL     1      29.404 -25.692 -12.968  0.00  0.00    +0.148 HD
ATOM     18  H   UNL     1      29.547 -23.710 -16.533  0.00  0.00    +0.148 HD
ATOM     19  H   UNL     1      36.769 -22.020 -15.725  0.00  0.00    +0.146 HD
ATOM     20  H   UNL     1      37.677 -22.493 -14.361  0.00  0.00    +0.146 HD
ENDROOT
BRANCH   7  21
ATOM     21  C   UNL     1      32.291 -22.736 -16.839  0.00  0.00    +0.034 C 
BRANCH  21  22
ATOM     22  C   UNL     1      33.399 -23.227 -17.788  0.00  0.00    +0.031 C 
BRANCH  22  23
ATOM     23  C   UNL     1      33.888 -22.161 -18.737  0.00  0.00    -0.022 C 
ATOM     24  C   UNL     1      32.966 -21.364 -19.396  0.00  0.00    -0.001 C 
ATOM     25  C   UNL     1      35.250 -21.999 -18.934  0.00  0.00    -0.001 C 
ATOM     26  C   UNL     1      33.416 -20.378 -20.273  0.00  0.00    +0.037 C 
ATOM     27  C   UNL     1      35.701 -21.013 -19.812  0.00  0.00    +0.037 C 
ATOM     28  C   UNL     1      34.784 -20.202 -20.481  0.00  0.00    +0.139 C 
BRANCH  28  29
ATOM     29  O   UNL     1      35.225 -19.241 -21.338  0.00  0.00    -0.471 OA
ATOM     30  C   UNL     1      34.485 -19.055 -22.543  0.00  0.00    +0.252 C 
ENDBRANCH  28  29
ENDBRANCH  22  23
ENDBRANCH  21  22
ENDBRANCH   7  21
TORSDOF 4
ENDMDL
MODEL 2
REMARK VINA RESULT:     -11.2      1.785      4.125
REMARK  Name = 5326930
REMARK  4 active torsions:
REMARK  status: ('A' for Active; 'I' for Inactive)
REMARK    1  A    between atoms: C_7  and  C_21
REMARK    2  A    between atoms: C_21  and  C_22
REMARK    3  A    between atoms: C_22  and  C_23
REMARK    4  A    between atoms: C_28  and  O_29
REMARK                            x       y       z     vdW  Elec       q    Type
REMARK                         _______ _______ _______ _____ _____    ______ ____
ROOT
ATOM      1  O   UNL     1      28.520 -25.587 -13.643  0.00  0.00    -0.209 OA
ATOM      2  N   UNL     1      29.752 -23.099 -16.530  0.00  0.00    -0.275 N 
ATOM      3  N   UNL     1      33.719 -24.957 -13.201  0.00  0.00    -0.315 N 
ATOM      4  N   UNL     1      34.370 -23.576 -14.814  0.00  0.00    -0.316 N 
ATOM      5  N   UNL     1      27.992 -24.277 -15.446  0.00  0.00    -0.302 NA
ATOM      6  N   UNL     1      27.602 -22.901 -17.301  0.00  0.00    -0.320 N 
ATOM      7  C   UNL     1      32.073 -23.239 -15.794  0.00  0.00    +0.007 C 
ATOM      8  C   UNL     1      30.723 -23.600 -15.657  0.00  0.00    +0.060 C 
ATOM      9  C   UNL     1      33.011 -23.770 -14.890  0.00  0.00    +0.056 C 
ATOM     10  C   UNL     1      32.576 -24.633 -13.889  0.00  0.00    +0.060 C 
ATOM     11  C   UNL     1      30.324 -24.473 -14.634  0.00  0.00    +0.109 C 
ATOM     12  C   UNL     1      31.244 -25.013 -13.722  0.00  0.00    +0.029 C 
ATOM     13  C   UNL     1      28.878 -24.823 -14.535  0.00  0.00    +0.208 C 
ATOM     14  C   UNL     1      34.762 -24.301 -13.792  0.00  0.00    +0.182 C 
ATOM     15  C   UNL     1      28.436 -23.469 -16.372  0.00  0.00    +0.248 C 
ATOM     16  H   UNL     1      30.010 -22.484 -17.255  0.00  0.00    +0.156 HD
ATOM     17  H   UNL     1      33.775 -25.555 -12.422  0.00  0.00    +0.148 HD
ATOM     18  H   UNL     1      34.929 -23.014 -15.400  0.00  0.00    +0.148 HD
ATOM     19  H   UNL     1      27.968 -22.296 -17.987  0.00  0.00    +0.146 HD
ATOM     20  H   UNL     1      26.637 -23.097 -17.282  0.00  0.00    +0.146 HD
ENDROOT
BRANCH   7  21
ATOM     21  C   UNL     1      32.505 -22.308 -16.882  0.00  0.00    +0.034 C 
BRANCH  21  22
ATOM     22  C   UNL     1      33.437 -22.955 -17.924  0.00  0.00    +0.031 C 
BRANCH  22  23
ATOM     23  C   UNL     1      34.062 -21.956 -18.866  0.00  0.00    -0.022 C 
ATOM     24  C   UNL     1      33.245 -21.147 -19.639  0.00  0.00    -0.001 C 
ATOM     25  C   UNL     1      35.443 -21.867 -18.943  0.00  0.00    -0.001 C 
ATOM     26  C   UNL     1      33.822 -20.224 -20.510  0.00  0.00    +0.037 C 
ATOM     27  C   UNL     1      36.021 -20.943 -19.815  0.00  0.00    +0.037 C 
ATOM     28  C   UNL     1      35.210 -20.122 -20.598  0.00  0.00    +0.139 C 
BRANCH  28  29
ATOM     29  O   UNL     1      35.774 -19.222 -21.449  0.00  0.00    -0.471 OA
ATOM     30  C   UNL     1      37.097 -18.782 -21.147  0.00  0.00    +0.252 C 
ENDBRANCH  28  29
ENDBRANCH  22  23
ENDBRANCH  21  22
ENDBRANCH   7  21
TORSDOF 4
ENDMDL
MODEL 3
REMARK VINA RESULT:     -11.1      1.741      2.329
REMARK  Name = 5326930
REMARK  4 active torsions:
REMARK  status: ('A' for Active; 'I' for Inactive)
REMARK    1  A    between atoms: C_7  and  C_21
REMARK    2  A    between atoms: C_21  and  C_22
REMARK    3  A    between atoms: C_22  and  C_23
REMARK    4  A    between atoms: C_28  and  O_29
REMARK                            x       y       z     vdW  Elec       q    Type
REMARK                         _______ _______ _______ _____ _____    ______ ____
ROOT
ATOM      1  O   UNL     1      36.502 -26.036 -11.473  0.00  0.00    -0.209 OA
ATOM      2  N   UNL     1      37.247 -24.270 -14.990  0.00  0.00    -0.275 N 
ATOM      3  N   UNL     1      32.143 -23.565 -13.059  0.00  0.00    -0.315 N 
ATOM      4  N   UNL     1      32.589 -22.597 -15.008  0.00  0.00    -0.316 N 
ATOM      5  N   UNL     1      37.989 -25.593 -13.156  0.00  0.00    -0.302 NA
ATOM      6  N   UNL     1      39.399 -25.059 -14.950  0.00  0.00    -0.320 N 
ATOM      7  C   UNL     1      34.981 -23.380 -15.132  0.00  0.00    +0.007 C 
ATOM      8  C   UNL     1      35.963 -24.121 -14.456  0.00  0.00    +0.060 C 
ATOM      9  C   UNL     1      33.705 -23.259 -14.553  0.00  0.00    +0.056 C 
ATOM     10  C   UNL     1      33.452 -23.876 -13.331  0.00  0.00    +0.060 C 
ATOM     11  C   UNL     1      35.669 -24.728 -13.225  0.00  0.00    +0.109 C 
ATOM     12  C   UNL     1      34.403 -24.619 -12.631  0.00  0.00    +0.029 C 
ATOM     13  C   UNL     1      36.750 -25.502 -12.550  0.00  0.00    +0.208 C 
ATOM     14  C   UNL     1      31.672 -22.802 -14.090  0.00  0.00    +0.182 C 
ATOM     15  C   UNL     1      38.190 -25.002 -14.304  0.00  0.00    +0.248 C 
ATOM     16  H   UNL     1      37.475 -23.853 -15.852  0.00  0.00    +0.156 HD
ATOM     17  H   UNL     1      31.636 -23.845 -12.264  0.00  0.00    +0.148 HD
ATOM     18  H   UNL     1      32.497 -22.081 -15.842  0.00  0.00    +0.148 HD
ATOM     19  H   UNL     1      39.519 -24.602 -15.814  0.00  0.00    +0.146 HD
ATOM     20  H   UNL     1      40.148 -25.558 -14.548  0.00  0.00    +0.146 HD
ENDROOT
BRANCH   7  21
ATOM     21  C   UNL     1      35.288 -22.730 -16.445  0.00  0.00    +0.034 C 
BRANCH  21  22
ATOM     22  C   UNL     1      34.235 -23.000 -17.535  0.00  0.00    +0.031 C 
BRANCH  22  23
ATOM     23  C   UNL     1      34.251 -21.979 -18.645  0.00  0.00    -0.022 C 
ATOM     24  C   UNL     1      33.054 -21.451 -19.102  0.00  0.00    -0.001 C 
ATOM     25  C   UNL     1      35.464 -21.588 -19.190  0.00  0.00    -0.001 C 
ATOM     26  C   UNL     1      33.068 -20.508 -20.128  0.00  0.00    +0.037 C 
ATOM     27  C   UNL     1      35.479 -20.643 -20.218  0.00  0.00    +0.037 C 
ATOM     28  C   UNL     1      34.281 -20.104 -20.686  0.00  0.00    +0.139 C 
BRANCH  28  29
ATOM     29  O   UNL     1      34.296 -19.183 -21.688  0.00  0.00    -0.471 OA
ATOM     30  C   UNL     1      35.564 -18.862 -22.257  0.00  0.00    +0.252 C 
ENDBRANCH  28  29
ENDBRANCH  22  23
ENDBRANCH  21  22
ENDBRANCH   7  21
TORSDOF 4
ENDMDL
MODEL 4
REMARK VINA RESULT:     -10.8      1.422      3.981
REMARK  Name = 5326930
REMARK  4 active torsions:
REMARK  status: ('A' for Active; 'I' for Inactive)
REMARK    1  A    between atoms: C_7  and  C_21
REMARK    2  A    between atoms: C_21  and  C_22
REMARK    3  A    between atoms: C_22  and  C_23
REMARK    4  A    between atoms: C_28  and  O_29
REMARK                            x       y       z     vdW  Elec       q    Type
REMARK                         _______ _______ _______ _____ _____    ______ ____
ROOT
ATOM      1  O   UNL     1      31.625 -25.197 -12.755  0.00  0.00    -0.209 OA
ATOM      2  N   UNL     1      32.468 -22.993 -15.992  0.00  0.00    -0.275 N 
ATOM      3  N   UNL     1      36.845 -24.978 -13.314  0.00  0.00    -0.315 N 
ATOM      4  N   UNL     1      37.280 -23.753 -15.115  0.00  0.00    -0.316 N 
ATOM      5  N   UNL     1      30.863 -23.955 -14.522  0.00  0.00    -0.302 NA
ATOM      6  N   UNL     1      30.232 -22.662 -16.371  0.00  0.00    -0.320 N 
ATOM      7  C   UNL     1      34.870 -23.284 -15.682  0.00  0.00    +0.007 C 
ATOM      8  C   UNL     1      33.547 -23.521 -15.276  0.00  0.00    +0.060 C 
ATOM      9  C   UNL     1      35.920 -23.837 -14.928  0.00  0.00    +0.056 C 
ATOM     10  C   UNL     1      35.620 -24.601 -13.804  0.00  0.00    +0.060 C 
ATOM     11  C   UNL     1      33.286 -24.297 -14.136  0.00  0.00    +0.109 C 
ATOM     12  C   UNL     1      34.319 -24.858 -13.370  0.00  0.00    +0.029 C 
ATOM     13  C   UNL     1      31.862 -24.519 -13.750  0.00  0.00    +0.208 C 
ATOM     14  C   UNL     1      37.804 -24.447 -14.131  0.00  0.00    +0.182 C 
ATOM     15  C   UNL     1      31.182 -23.243 -15.570  0.00  0.00    +0.248 C 
ATOM     16  H   UNL     1      32.629 -22.446 -16.794  0.00  0.00    +0.156 HD
ATOM     17  H   UNL     1      37.004 -25.532 -12.516  0.00  0.00    +0.148 HD
ATOM     18  H   UNL     1      37.757 -23.275 -15.832  0.00  0.00    +0.148 HD
ATOM     19  H   UNL     1      30.504 -22.132 -17.154  0.00  0.00    +0.146 HD
ATOM     20  H   UNL     1      29.276 -22.776 -16.162  0.00  0.00    +0.146 HD
ENDROOT
BRANCH   7  21
ATOM     21  C   UNL     1      35.156 -22.457 -16.896  0.00  0.00    +0.034 C 
BRANCH  21  22
ATOM     22  C   UNL     1      34.217 -22.744 -18.082  0.00  0.00    +0.031 C 
BRANCH  22  23
ATOM     23  C   UNL     1      34.257 -21.676 -19.147  0.00  0.00    -0.022 C 
ATOM     24  C   UNL     1      35.482 -21.239 -19.625  0.00  0.00    -0.001 C 
ATOM     25  C   UNL     1      33.069 -21.150 -19.627  0.00  0.00    -0.001 C 
ATOM     26  C   UNL     1      35.521 -20.252 -20.609  0.00  0.00    +0.037 C 
ATOM     27  C   UNL     1      33.107 -20.162 -20.612  0.00  0.00    +0.037 C 
ATOM     28  C   UNL     1      34.333 -19.713 -21.102  0.00  0.00    +0.139 C 
BRANCH  28  29
ATOM     29  O   UNL     1      34.370 -18.749 -22.062  0.00  0.00    -0.471 OA
ATOM     30  C   UNL     1      34.584 -19.177 -23.406  0.00  0.00    +0.252 C 
ENDBRANCH  28  29
ENDBRANCH  22  23
ENDBRANCH  21  22
ENDBRANCH   7  21
TORSDOF 4
ENDMDL
MODEL 5
REMARK VINA RESULT:     -10.6      3.154      6.113
REMARK  Name = 5326930
REMARK  4 active torsions:
REMARK  status: ('A' for Active; 'I' for Inactive)
REMARK    1  A    between atoms: C_7  and  C_21
REMARK    2  A    between atoms: C_21  and  C_22
REMARK    3  A    between atoms: C_22  and  C_23
REMARK    4  A    between atoms: C_28  and  O_29
REMARK                            x       y       z     vdW  Elec       q    Type
REMARK                         _______ _______ _______ _____ _____    ______ ____
ROOT
ATOM      1  O   UNL     1      37.360 -21.851 -16.633  0.00  0.00    -0.209 OA
ATOM      2  N   UNL     1      33.753 -23.542 -16.213  0.00  0.00    -0.275 N 
ATOM      3  N   UNL     1      36.997 -23.830 -11.778  0.00  0.00    -0.315 N 
ATOM      4  N   UNL     1      34.989 -24.758 -11.577  0.00  0.00    -0.316 N 
ATOM      5  N   UNL     1      35.329 -22.367 -17.555  0.00  0.00    -0.302 NA
ATOM      6  N   UNL     1      33.212 -22.963 -18.364  0.00  0.00    -0.320 N 
ATOM      7  C   UNL     1      34.226 -24.205 -13.914  0.00  0.00    +0.007 C 
ATOM      8  C   UNL     1      34.617 -23.589 -15.113  0.00  0.00    +0.060 C 
ATOM      9  C   UNL     1      35.130 -24.225 -12.837  0.00  0.00    +0.056 C 
ATOM     10  C   UNL     1      36.382 -23.637 -12.990  0.00  0.00    +0.060 C 
ATOM     11  C   UNL     1      35.888 -23.006 -15.228  0.00  0.00    +0.109 C 
ATOM     12  C   UNL     1      36.804 -23.015 -14.165  0.00  0.00    +0.029 C 
ATOM     13  C   UNL     1      36.250 -22.364 -16.524  0.00  0.00    +0.208 C 
ATOM     14  C   UNL     1      36.126 -24.504 -10.970  0.00  0.00    +0.182 C 
ATOM     15  C   UNL     1      34.163 -22.931 -17.376  0.00  0.00    +0.248 C 
ATOM     16  H   UNL     1      32.857 -23.945 -16.155  0.00  0.00    +0.156 HD
ATOM     17  H   UNL     1      37.905 -23.536 -11.537  0.00  0.00    +0.148 HD
ATOM     18  H   UNL     1      34.205 -25.228 -11.210  0.00  0.00    +0.148 HD
ATOM     19  H   UNL     1      32.343 -23.394 -18.197  0.00  0.00    +0.146 HD
ATOM     20  H   UNL     1      33.399 -22.553 -19.240  0.00  0.00    +0.146 HD
ENDROOT
BRANCH   7  21
ATOM     21  C   UNL     1      32.872 -24.829 -13.785  0.00  0.00    +0.034 C 
BRANCH  21  22
ATOM     22  C   UNL     1      31.766 -23.840 -13.373  0.00  0.00    +0.031 C 
BRANCH  22  23
ATOM     23  C   UNL     1      30.613 -23.796 -14.345  0.00  0.00    -0.022 C 
ATOM     24  C   UNL     1      30.548 -22.773 -15.277  0.00  0.00    -0.001 C 
ATOM     25  C   UNL     1      29.638 -24.779 -14.287  0.00  0.00    -0.001 C 
ATOM     26  C   UNL     1      29.483 -22.731 -16.176  0.00  0.00    +0.037 C 
ATOM     27  C   UNL     1      28.571 -24.738 -15.186  0.00  0.00    +0.037 C 
ATOM     28  C   UNL     1      28.494 -23.714 -16.130  0.00  0.00    +0.139 C 
BRANCH  28  29
ATOM     29  O   UNL     1      27.454 -23.674 -17.006  0.00  0.00    -0.471 OA
ATOM     30  C   UNL     1      26.863 -22.399 -17.256  0.00  0.00    +0.252 C 
ENDBRANCH  28  29
ENDBRANCH  22  23
ENDBRANCH  21  22
ENDBRANCH   7  21
TORSDOF 4
ENDMDL
MODEL 6
REMARK VINA RESULT:     -10.2      3.281      5.615
REMARK  Name = 5326930
REMARK  4 active torsions:
REMARK  status: ('A' for Active; 'I' for Inactive)
REMARK    1  A    between atoms: C_7  and  C_21
REMARK    2  A    between atoms: C_21  and  C_22
REMARK    3  A    between atoms: C_22  and  C_23
REMARK    4  A    between atoms: C_28  and  O_29
REMARK                            x       y       z     vdW  Elec       q    Type
REMARK                         _______ _______ _______ _____ _____    ______ ____
ROOT
ATOM      1  O   UNL     1      37.868 -22.909 -13.078  0.00  0.00    -0.209 OA
ATOM      2  N   UNL     1      34.417 -24.614 -11.970  0.00  0.00    -0.275 N 
ATOM      3  N   UNL     1      34.512 -22.665 -17.114  0.00  0.00    -0.315 N 
ATOM      4  N   UNL     1      32.612 -23.618 -16.470  0.00  0.00    -0.316 N 
ATOM      5  N   UNL     1      36.649 -23.970 -11.455  0.00  0.00    -0.302 NA
ATOM      6  N   UNL     1      35.284 -25.063  -9.896  0.00  0.00    -0.320 N 
ATOM      7  C   UNL     1      33.398 -24.188 -14.144  0.00  0.00    +0.007 C 
ATOM      8  C   UNL     1      34.492 -24.102 -13.270  0.00  0.00    +0.060 C 
ATOM      9  C   UNL     1      33.524 -23.658 -15.441  0.00  0.00    +0.056 C 
ATOM     10  C   UNL     1      34.725 -23.066 -15.819  0.00  0.00    +0.060 C 
ATOM     11  C   UNL     1      35.688 -23.498 -13.689  0.00  0.00    +0.109 C 
ATOM     12  C   UNL     1      35.834 -22.964 -14.978  0.00  0.00    +0.029 C 
ATOM     13  C   UNL     1      36.819 -23.436 -12.719  0.00  0.00    +0.208 C 
ATOM     14  C   UNL     1      33.237 -23.016 -17.456  0.00  0.00    +0.182 C 
ATOM     15  C   UNL     1      35.507 -24.517 -11.135  0.00  0.00    +0.248 C 
ATOM     16  H   UNL     1      33.588 -25.042 -11.655  0.00  0.00    +0.156 HD
ATOM     17  H   UNL     1      35.163 -22.205 -17.692  0.00  0.00    +0.148 HD
ATOM     18  H   UNL     1      31.690 -23.965 -16.467  0.00  0.00    +0.148 HD
ATOM     19  H   UNL     1      34.412 -25.468  -9.685  0.00  0.00    +0.146 HD
ATOM     20  H   UNL     1      35.997 -25.048  -9.217  0.00  0.00    +0.146 HD
ENDROOT
BRANCH   7  21
ATOM     21  C   UNL     1      32.120 -24.830 -13.704  0.00  0.00    +0.034 C 
BRANCH  21  22
ATOM     22  C   UNL     1      31.010 -23.827 -13.339  0.00  0.00    +0.031 C 
BRANCH  22  23
ATOM     23  C   UNL     1      29.960 -23.684 -14.413  0.00  0.00    -0.022 C 
ATOM     24  C   UNL     1      29.448 -22.429 -14.701  0.00  0.00    -0.001 C 
ATOM     25  C   UNL     1      29.524 -24.811 -15.091  0.00  0.00    -0.001 C 
ATOM     26  C   UNL     1      28.478 -22.296 -15.693  0.00  0.00    +0.037 C 
ATOM     27  C   UNL     1      28.552 -24.679 -16.084  0.00  0.00    +0.037 C 
ATOM     28  C   UNL     1      28.030 -23.421 -16.384  0.00  0.00    +0.139 C 
BRANCH  28  29
ATOM     29  O   UNL     1      27.081 -23.293 -17.352  0.00  0.00    -0.471 OA
ATOM     30  C   UNL     1      26.432 -22.027 -17.462  0.00  0.00    +0.252 C 
ENDBRANCH  28  29
ENDBRANCH  22  23
ENDBRANCH  21  22
ENDBRANCH   7  21
TORSDOF 4
ENDMDL
MODEL 7
REMARK VINA RESULT:      -9.9      3.179      5.885
REMARK  Name = 5326930
REMARK  4 active torsions:
REMARK  status: ('A' for Active; 'I' for Inactive)
REMARK    1  A    between atoms: C_7  and  C_21
REMARK    2  A    between atoms: C_21  and  C_22
REMARK    3  A    between atoms: C_22  and  C_23
REMARK    4  A    between atoms: C_28  and  O_29
REMARK                            x       y       z     vdW  Elec       q    Type
REMARK                         _______ _______ _______ _____ _____    ______ ____
ROOT
ATOM      1  O   UNL     1      38.307 -22.981 -15.259  0.00  0.00    -0.209 OA
ATOM      2  N   UNL     1      34.727 -24.365 -14.111  0.00  0.00    -0.275 N 
ATOM      3  N   UNL     1      34.750 -21.625 -18.882  0.00  0.00    -0.315 N 
ATOM      4  N   UNL     1      32.780 -22.406 -18.218  0.00  0.00    -0.316 N 
ATOM      5  N   UNL     1      37.061 -24.120 -13.713  0.00  0.00    -0.302 NA
ATOM      6  N   UNL     1      35.661 -25.261 -12.219  0.00  0.00    -0.320 N 
ATOM      7  C   UNL     1      33.633 -23.452 -16.090  0.00  0.00    +0.007 C 
ATOM      8  C   UNL     1      34.787 -23.660 -15.318  0.00  0.00    +0.060 C 
ATOM      9  C   UNL     1      33.745 -22.738 -17.297  0.00  0.00    +0.056 C 
ATOM     10  C   UNL     1      34.991 -22.259 -17.689  0.00  0.00    +0.060 C 
ATOM     11  C   UNL     1      36.026 -23.162 -15.749  0.00  0.00    +0.109 C 
ATOM     12  C   UNL     1      36.159 -22.447 -16.949  0.00  0.00    +0.029 C 
ATOM     13  C   UNL     1      37.219 -23.413 -14.890  0.00  0.00    +0.208 C 
ATOM     14  C   UNL     1      33.416 -21.740 -19.154  0.00  0.00    +0.182 C 
ATOM     15  C   UNL     1      35.875 -24.554 -13.375  0.00  0.00    +0.248 C 
ATOM     16  H   UNL     1      33.868 -24.723 -13.790  0.00  0.00    +0.156 HD
ATOM     17  H   UNL     1      35.419 -21.168 -19.441  0.00  0.00    +0.148 HD
ATOM     18  H   UNL     1      31.819 -22.622 -18.184  0.00  0.00    +0.148 HD
ATOM     19  H   UNL     1      34.756 -25.575 -11.993  0.00  0.00    +0.146 HD
ATOM     20  H   UNL     1      36.414 -25.455 -11.615  0.00  0.00    +0.146 HD
ENDROOT
BRANCH   7  21
ATOM     21  C   UNL     1      32.308 -23.981 -15.637  0.00  0.00    +0.034 C 
BRANCH  21  22
ATOM     22  C   UNL     1      31.533 -23.018 -14.719  0.00  0.00    +0.031 C 
BRANCH  22  23
ATOM     23  C   UNL     1      30.094 -22.831 -15.131  0.00  0.00    -0.022 C 
ATOM     24  C   UNL     1      29.729 -23.058 -16.448  0.00  0.00    -0.001 C 
ATOM     25  C   UNL     1      29.162 -22.434 -14.185  0.00  0.00    -0.001 C 
ATOM     26  C   UNL     1      28.399 -22.886 -16.830  0.00  0.00    +0.037 C 
ATOM     27  C   UNL     1      27.831 -22.262 -14.566  0.00  0.00    +0.037 C 
ATOM     28  C   UNL     1      27.450 -22.488 -15.889  0.00  0.00    +0.139 C 
BRANCH  28  29
ATOM     29  O   UNL     1      26.152 -22.318 -16.260  0.00  0.00    -0.471 OA
ATOM     30  C   UNL     1      25.899 -21.446 -17.360  0.00  0.00    +0.252 C 
ENDBRANCH  28  29
ENDBRANCH  22  23
ENDBRANCH  21  22
ENDBRANCH   7  21
TORSDOF 4
ENDMDL
MODEL 8
REMARK VINA RESULT:      -9.7      2.695      6.073
REMARK  Name = 5326930
REMARK  4 active torsions:
REMARK  status: ('A' for Active; 'I' for Inactive)
REMARK    1  A    between atoms: C_7  and  C_21
REMARK    2  A    between atoms: C_21  and  C_22
REMARK    3  A    between atoms: C_22  and  C_23
REMARK    4  A    between atoms: C_28  and  O_29
REMARK                            x       y       z     vdW  Elec       q    Type
REMARK                         _______ _______ _______ _____ _____    ______ ____
ROOT
ATOM      1  O   UNL     1      33.074 -22.640 -19.029  0.00  0.00    -0.209 OA
ATOM      2  N   UNL     1      35.284 -22.676 -15.688  0.00  0.00    -0.275 N 
ATOM      3  N   UNL     1      30.014 -24.105 -15.016  0.00  0.00    -0.315 N 
ATOM      4  N   UNL     1      31.267 -24.116 -13.182  0.00  0.00    -0.316 N 
ATOM      5  N   UNL     1      35.109 -22.309 -18.033  0.00  0.00    -0.302 NA
ATOM      6  N   UNL     1      37.127 -22.010 -16.879  0.00  0.00    -0.320 N 
ATOM      7  C   UNL     1      33.389 -23.386 -14.328  0.00  0.00    +0.007 C 
ATOM      8  C   UNL     1      33.936 -23.032 -15.571  0.00  0.00    +0.060 C 
ATOM      9  C   UNL     1      32.028 -23.736 -14.262  0.00  0.00    +0.056 C 
ATOM     10  C   UNL     1      31.266 -23.721 -15.426  0.00  0.00    +0.060 C 
ATOM     11  C   UNL     1      33.134 -23.029 -16.722  0.00  0.00    +0.109 C 
ATOM     12  C   UNL     1      31.776 -23.374 -16.678  0.00  0.00    +0.029 C 
ATOM     13  C   UNL     1      33.768 -22.645 -18.016  0.00  0.00    +0.208 C 
ATOM     14  C   UNL     1      30.065 -24.328 -13.669  0.00  0.00    +0.182 C 
ATOM     15  C   UNL     1      35.794 -22.333 -16.920  0.00  0.00    +0.248 C 
ATOM     16  H   UNL     1      35.865 -22.671 -14.893  0.00  0.00    +0.156 HD
ATOM     17  H   UNL     1      29.220 -24.200 -15.591  0.00  0.00    +0.148 HD
ATOM     18  H   UNL     1      31.559 -24.208 -12.245  0.00  0.00    +0.148 HD
ATOM     19  H   UNL     1      37.615 -22.039 -16.025  0.00  0.00    +0.146 HD
ATOM     20  H   UNL     1      37.595 -21.749 -17.705  0.00  0.00    +0.146 HD
ENDROOT
BRANCH   7  21
ATOM     21  C   UNL     1      34.238 -23.391 -13.096  0.00  0.00    +0.034 C 
BRANCH  21  22
ATOM     22  C   UNL     1      34.573 -24.800 -12.575  0.00  0.00    +0.031 C 
BRANCH  22  23
ATOM     23  C   UNL     1      35.905 -25.315 -13.062  0.00  0.00    -0.022 C 
ATOM     24  C   UNL     1      37.022 -25.186 -12.252  0.00  0.00    -0.001 C 
ATOM     25  C   UNL     1      35.989 -25.905 -14.313  0.00  0.00    -0.001 C 
ATOM     26  C   UNL     1      38.253 -25.661 -12.701  0.00  0.00    +0.037 C 
ATOM     27  C   UNL     1      37.221 -26.381 -14.764  0.00  0.00    +0.037 C 
ATOM     28  C   UNL     1      38.353 -26.259 -13.958  0.00  0.00    +0.139 C 
BRANCH  28  29
ATOM     29  O   UNL     1      39.554 -26.721 -14.398  0.00  0.00    -0.471 OA
ATOM     30  C   UNL     1      40.570 -25.753 -14.654  0.00  0.00    +0.252 C 
ENDBRANCH  28  29
ENDBRANCH  22  23
ENDBRANCH  21  22
ENDBRANCH   7  21
TORSDOF 4
ENDMDL
MODEL 9
REMARK VINA RESULT:      -9.7      2.939      6.769
REMARK  Name = 5326930
REMARK  4 active torsions:
REMARK  status: ('A' for Active; 'I' for Inactive)
REMARK    1  A    between atoms: C_7  and  C_21
REMARK    2  A    between atoms: C_21  and  C_22
REMARK    3  A    between atoms: C_22  and  C_23
REMARK    4  A    between atoms: C_28  and  O_29
REMARK                            x       y       z     vdW  Elec       q    Type
REMARK                         _______ _______ _______ _____ _____    ______ ____
ROOT
ATOM      1  O   UNL     1      37.061 -20.576 -19.052  0.00  0.00    -0.209 OA
ATOM      2  N   UNL     1      33.665 -22.422 -18.001  0.00  0.00    -0.275 N 
ATOM      3  N   UNL     1      37.936 -23.304 -14.646  0.00  0.00    -0.315 N 
ATOM      4  N   UNL     1      36.037 -24.314 -14.090  0.00  0.00    -0.316 N 
ATOM      5  N   UNL     1      34.855 -21.003 -19.495  0.00  0.00    -0.302 NA
ATOM      6  N   UNL     1      32.595 -21.529 -19.821  0.00  0.00    -0.320 N 
ATOM      7  C   UNL     1      34.705 -23.424 -16.035  0.00  0.00    +0.007 C 
ATOM      8  C   UNL     1      34.782 -22.615 -17.180  0.00  0.00    +0.060 C 
ATOM      9  C   UNL     1      35.856 -23.585 -15.243  0.00  0.00    +0.056 C 
ATOM     10  C   UNL     1      37.033 -22.942 -15.614  0.00  0.00    +0.060 C 
ATOM     11  C   UNL     1      35.987 -21.982 -17.521  0.00  0.00    +0.109 C 
ATOM     12  C   UNL     1      37.145 -22.131 -16.743  0.00  0.00    +0.029 C 
ATOM     13  C   UNL     1      36.011 -21.133 -18.747  0.00  0.00    +0.208 C 
ATOM     14  C   UNL     1      37.295 -24.123 -13.761  0.00  0.00    +0.182 C 
ATOM     15  C   UNL     1      33.769 -21.623 -19.116  0.00  0.00    +0.248 C 
ATOM     16  H   UNL     1      32.810 -22.857 -17.781  0.00  0.00    +0.156 HD
ATOM     17  H   UNL     1      38.879 -23.024 -14.601  0.00  0.00    +0.148 HD
ATOM     18  H   UNL     1      35.369 -24.860 -13.615  0.00  0.00    +0.148 HD
ATOM     19  H   UNL     1      31.794 -22.008 -19.509  0.00  0.00    +0.146 HD
ATOM     20  H   UNL     1      32.555 -20.981 -20.639  0.00  0.00    +0.146 HD
ENDROOT
BRANCH   7  21
ATOM     21  C   UNL     1      33.423 -24.101 -15.666  0.00  0.00    +0.034 C 
BRANCH  21  22
ATOM     22  C   UNL     1      32.588 -23.332 -14.626  0.00  0.00    +0.031 C 
BRANCH  22  23
ATOM     23  C   UNL     1      31.110 -23.338 -14.927  0.00  0.00    -0.022 C 
ATOM     24  C   UNL     1      30.239 -23.958 -14.045  0.00  0.00    -0.001 C 
ATOM     25  C   UNL     1      30.649 -22.724 -16.081  0.00  0.00    -0.001 C 
ATOM     26  C   UNL     1      28.872 -23.964 -14.322  0.00  0.00    +0.037 C 
ATOM     27  C   UNL     1      29.281 -22.730 -16.359  0.00  0.00    +0.037 C 
ATOM     28  C   UNL     1      28.394 -23.350 -15.480  0.00  0.00    +0.139 C 
BRANCH  28  29
ATOM     29  O   UNL     1      27.060 -23.356 -15.752  0.00  0.00    -0.471 OA
ATOM     30  C   UNL     1      26.359 -22.123 -15.598  0.00  0.00    +0.252 C 
ENDBRANCH  28  29
ENDBRANCH  22  23
ENDBRANCH  21  22
ENDBRANCH   7  21
TORSDOF 4
ENDMDL
