MODEL 1
REMARK VINA RESULT:     -12.3      0.000      0.000
REMARK  Name = 10389239
REMARK  2 active torsions:
REMARK  status: ('A' for Active; 'I' for Inactive)
REMARK    1  A    between atoms: C_2  and  C_14
REMARK    2  A    between atoms: C_4  and  C_20
REMARK                            x       y       z     vdW  Elec       q    Type
REMARK                         _______ _______ _______ _____ _____    ______ ____
ROOT
ATOM      1  N   UNL     1      32.316 -22.491 -17.636  0.00  0.00    -0.244 NA
ATOM      2  C   UNL     1      34.302 -23.523 -15.962  0.00  0.00    +0.016 C 
ATOM      3  C   UNL     1      34.649 -22.723 -17.044  0.00  0.00    +0.020 C 
ATOM      4  C   UNL     1      33.627 -22.236 -17.844  0.00  0.00    +0.083 C 
ATOM      5  C   UNL     1      32.964 -23.810 -15.715  0.00  0.00    +0.022 C 
ATOM      6  C   UNL     1      32.018 -23.273 -16.574  0.00  0.00    +0.099 C 
ENDROOT
BRANCH   2  14
ATOM      7  O   UNL     1      36.284 -25.874 -11.272  0.00  0.00    -0.270 OA
ATOM      8  N   UNL     1      36.658 -24.008 -15.431  0.00  0.00    -0.316 N 
ATOM      9  N   UNL     1      38.371 -25.948 -12.261  0.00  0.00    -0.300 N 
ATOM     10  C   UNL     1      37.385 -24.579 -14.427  0.00  0.00    +0.031 C 
ATOM     11  C   UNL     1      38.861 -24.706 -14.380  0.00  0.00    +0.063 C 
ATOM     12  C   UNL     1      36.521 -25.004 -13.440  0.00  0.00    +0.064 C 
ATOM     13  C   UNL     1      39.202 -25.891 -13.470  0.00  0.00    +0.096 C 
ATOM     14  C   UNL     1      35.326 -24.056 -15.096  0.00  0.00    +0.048 C 
ATOM     15  C   UNL     1      35.213 -24.664 -13.861  0.00  0.00    +0.020 C 
ATOM     16  C   UNL     1      37.011 -25.644 -12.234  0.00  0.00    +0.247 C 
ATOM     17  H   UNL     1      37.026 -23.626 -16.259  0.00  0.00    +0.152 HD
ATOM     18  H   UNL     1      38.802 -26.217 -11.418  0.00  0.00    +0.150 HD
ENDBRANCH   2  14
BRANCH   4  20
ATOM     19  N   UNL     1      33.107 -20.206 -20.925  0.00  0.00    -0.244 NA
ATOM     20  C   UNL     1      33.911 -21.399 -18.985  0.00  0.00    +0.037 C 
ATOM     21  C   UNL     1      35.203 -20.977 -19.263  0.00  0.00    +0.005 C 
ATOM     22  C   UNL     1      35.453 -20.164 -20.377  0.00  0.00    +0.018 C 
ATOM     23  C   UNL     1      34.362 -19.798 -21.193  0.00  0.00    +0.081 C 
ATOM     24  C   UNL     1      32.907 -20.990 -19.841  0.00  0.00    +0.100 C 
ATOM     25  C   UNL     1      36.750 -19.718 -20.687  0.00  0.00    +0.001 C 
ATOM     26  C   UNL     1      34.612 -18.991 -22.299  0.00  0.00    +0.019 C 
ATOM     27  C   UNL     1      36.971 -18.912 -21.800  0.00  0.00    +0.000 C 
ATOM     28  C   UNL     1      35.901 -18.548 -22.607  0.00  0.00    +0.002 C 
ENDBRANCH   4  20
TORSDOF 2
ENDMDL
MODEL 2
REMARK VINA RESULT:     -12.0      6.512     11.921
REMARK  Name = 10389239
REMARK  2 active torsions:
REMARK  status: ('A' for Active; 'I' for Inactive)
REMARK    1  A    between atoms: C_2  and  C_14
REMARK    2  A    between atoms: C_4  and  C_20
REMARK                            x       y       z     vdW  Elec       q    Type
REMARK                         _______ _______ _______ _____ _____    ______ ____
ROOT
ATOM      1  N   UNL     1      34.913 -17.614 -24.174  0.00  0.00    -0.244 NA
ATOM      2  C   UNL     1      34.043 -15.068 -23.421  0.00  0.00    +0.016 C 
ATOM      3  C   UNL     1      34.441 -15.983 -22.453  0.00  0.00    +0.020 C 
ATOM      4  C   UNL     1      34.864 -17.232 -22.878  0.00  0.00    +0.083 C 
ATOM      5  C   UNL     1      34.078 -15.423 -24.764  0.00  0.00    +0.022 C 
ATOM      6  C   UNL     1      34.519 -16.698 -25.086  0.00  0.00    +0.099 C 
ENDROOT
BRANCH   2  14
ATOM      7  O   UNL     1      33.957  -9.463 -23.599  0.00  0.00    -0.270 OA
ATOM      8  N   UNL     1      32.695 -13.562 -22.012  0.00  0.00    -0.316 N 
ATOM      9  N   UNL     1      32.206  -9.500 -22.092  0.00  0.00    -0.300 N 
ATOM     10  C   UNL     1      32.463 -12.225 -21.871  0.00  0.00    +0.031 C 
ATOM     11  C   UNL     1      31.577 -11.592 -20.866  0.00  0.00    +0.063 C 
ATOM     12  C   UNL     1      33.211 -11.545 -22.809  0.00  0.00    +0.064 C 
ATOM     13  C   UNL     1      31.126 -10.237 -21.424  0.00  0.00    +0.096 C 
ATOM     14  C   UNL     1      33.594 -13.752 -23.033  0.00  0.00    +0.048 C 
ATOM     15  C   UNL     1      33.936 -12.515 -23.542  0.00  0.00    +0.020 C 
ATOM     16  C   UNL     1      33.178 -10.097 -22.894  0.00  0.00    +0.247 C 
ATOM     17  H   UNL     1      32.284 -14.275 -21.471  0.00  0.00    +0.152 HD
ATOM     18  H   UNL     1      32.245  -8.525 -21.965  0.00  0.00    +0.150 HD
ENDBRANCH   2  14
BRANCH   4  20
ATOM     19  N   UNL     1      37.084 -19.277 -20.694  0.00  0.00    -0.244 NA
ATOM     20  C   UNL     1      35.292 -18.234 -21.931  0.00  0.00    +0.037 C 
ATOM     21  C   UNL     1      34.384 -19.106 -21.347  0.00  0.00    +0.005 C 
ATOM     22  C   UNL     1      34.824 -20.070 -20.430  0.00  0.00    +0.018 C 
ATOM     23  C   UNL     1      36.202 -20.122 -20.129  0.00  0.00    +0.081 C 
ATOM     24  C   UNL     1      36.620 -18.361 -21.574  0.00  0.00    +0.100 C 
ATOM     25  C   UNL     1      33.930 -20.967 -19.820  0.00  0.00    +0.001 C 
ATOM     26  C   UNL     1      36.637 -21.080 -19.218  0.00  0.00    +0.019 C 
ATOM     27  C   UNL     1      34.394 -21.916 -18.913  0.00  0.00    +0.000 C 
ATOM     28  C   UNL     1      35.749 -21.972 -18.611  0.00  0.00    +0.002 C 
ENDBRANCH   4  20
TORSDOF 2
ENDMDL
MODEL 3
REMARK VINA RESULT:     -11.7      1.353      1.956
REMARK  Name = 10389239
REMARK  2 active torsions:
REMARK  status: ('A' for Active; 'I' for Inactive)
REMARK    1  A    between atoms: C_2  and  C_14
REMARK    2  A    between atoms: C_4  and  C_20
REMARK                            x       y       z     vdW  Elec       q    Type
REMARK                         _______ _______ _______ _____ _____    ______ ____
ROOT
ATOM      1  N   UNL     1      32.944 -22.339 -18.209  0.00  0.00    -0.244 NA
ATOM      2  C   UNL     1      34.423 -23.322 -16.051  0.00  0.00    +0.016 C 
ATOM      3  C   UNL     1      35.036 -22.524 -17.010  0.00  0.00    +0.020 C 
ATOM      4  C   UNL     1      34.259 -22.062 -18.060  0.00  0.00    +0.083 C 
ATOM      5  C   UNL     1      33.073 -23.631 -16.169  0.00  0.00    +0.022 C 
ATOM      6  C   UNL     1      32.384 -23.117 -17.257  0.00  0.00    +0.099 C 
ENDROOT
BRANCH   2  14
ATOM      7  O   UNL     1      37.158 -27.247 -13.124  0.00  0.00    -0.270 OA
ATOM      8  N   UNL     1      35.469 -23.056 -13.836  0.00  0.00    -0.316 N 
ATOM      9  N   UNL     1      37.749 -25.614 -11.599  0.00  0.00    -0.300 N 
ATOM     10  C   UNL     1      36.195 -23.799 -12.950  0.00  0.00    +0.031 C 
ATOM     11  C   UNL     1      36.679 -23.349 -11.624  0.00  0.00    +0.063 C 
ATOM     12  C   UNL     1      36.387 -25.057 -13.480  0.00  0.00    +0.064 C 
ATOM     13  C   UNL     1      37.906 -24.194 -11.262  0.00  0.00    +0.096 C 
ATOM     14  C   UNL     1      35.186 -23.830 -14.936  0.00  0.00    +0.048 C 
ATOM     15  C   UNL     1      35.739 -25.079 -14.738  0.00  0.00    +0.020 C 
ATOM     16  C   UNL     1      37.120 -26.077 -12.753  0.00  0.00    +0.247 C 
ATOM     17  H   UNL     1      35.194 -22.120 -13.709  0.00  0.00    +0.152 HD
ATOM     18  H   UNL     1      38.110 -26.280 -10.970  0.00  0.00    +0.150 HD
ENDBRANCH   2  14
BRANCH   4  20
ATOM     19  N   UNL     1      36.763 -20.140 -20.041  0.00  0.00    -0.244 NA
ATOM     20  C   UNL     1      34.826 -21.228 -19.094  0.00  0.00    +0.037 C 
ATOM     21  C   UNL     1      34.040 -20.712 -20.113  0.00  0.00    +0.005 C 
ATOM     22  C   UNL     1      34.614 -19.905 -21.105  0.00  0.00    +0.018 C 
ATOM     23  C   UNL     1      35.998 -19.640 -21.029  0.00  0.00    +0.081 C 
ATOM     24  C   UNL     1      36.171 -20.914 -19.103  0.00  0.00    +0.100 C 
ATOM     25  C   UNL     1      33.845 -19.368 -22.153  0.00  0.00    +0.001 C 
ATOM     26  C   UNL     1      36.566 -18.839 -22.015  0.00  0.00    +0.019 C 
ATOM     27  C   UNL     1      34.441 -18.569 -23.125  0.00  0.00    +0.000 C 
ATOM     28  C   UNL     1      35.803 -18.304 -23.056  0.00  0.00    +0.002 C 
ENDBRANCH   4  20
TORSDOF 2
ENDMDL
MODEL 4
REMARK VINA RESULT:     -11.4      3.349      8.519
REMARK  Name = 10389239
REMARK  2 active torsions:
REMARK  status: ('A' for Active; 'I' for Inactive)
REMARK    1  A    between atoms: C_2  and  C_14
REMARK    2  A    between atoms: C_4  and  C_20
REMARK                            x       y       z     vdW  Elec       q    Type
REMARK                         _______ _______ _______ _____ _____    ______ ____
ROOT
ATOM      1  N   UNL     1      35.963 -23.338 -15.427  0.00  0.00    -0.244 NA
ATOM      2  C   UNL     1      35.926 -21.796 -17.757  0.00  0.00    +0.016 C 
ATOM      3  C   UNL     1      34.737 -22.278 -17.221  0.00  0.00    +0.020 C 
ATOM      4  C   UNL     1      34.810 -23.038 -16.065  0.00  0.00    +0.083 C 
ATOM      5  C   UNL     1      37.134 -22.085 -17.131  0.00  0.00    +0.022 C 
ATOM      6  C   UNL     1      37.098 -22.853 -15.978  0.00  0.00    +0.099 C 
ENDROOT
BRANCH   2  14
ATOM      7  O   UNL     1      38.144 -18.468 -21.689  0.00  0.00    -0.270 OA
ATOM      8  N   UNL     1      34.753 -20.780 -19.670  0.00  0.00    -0.316 N 
ATOM      9  N   UNL     1      36.134 -18.569 -22.825  0.00  0.00    -0.300 N 
ATOM     10  C   UNL     1      35.040 -19.995 -20.749  0.00  0.00    +0.031 C 
ATOM     11  C   UNL     1      34.070 -19.502 -21.755  0.00  0.00    +0.063 C 
ATOM     12  C   UNL     1      36.389 -19.708 -20.741  0.00  0.00    +0.064 C 
ATOM     13  C   UNL     1      34.839 -19.223 -23.051  0.00  0.00    +0.096 C 
ATOM     14  C   UNL     1      35.909 -21.000 -18.960  0.00  0.00    +0.048 C 
ATOM     15  C   UNL     1      36.939 -20.340 -19.600  0.00  0.00    +0.020 C 
ATOM     16  C   UNL     1      36.989 -18.876 -21.767  0.00  0.00    +0.247 C 
ATOM     17  H   UNL     1      33.864 -21.133 -19.439  0.00  0.00    +0.152 HD
ATOM     18  H   UNL     1      36.415 -17.871 -23.459  0.00  0.00    +0.150 HD
ENDBRANCH   2  14
BRANCH   4  20
ATOM     19  N   UNL     1      32.607 -24.877 -13.689  0.00  0.00    -0.244 NA
ATOM     20  C   UNL     1      33.617 -23.571 -15.450  0.00  0.00    +0.037 C 
ATOM     21  C   UNL     1      32.361 -23.322 -15.983  0.00  0.00    +0.005 C 
ATOM     22  C   UNL     1      31.218 -23.851 -15.369  0.00  0.00    +0.018 C 
ATOM     23  C   UNL     1      31.389 -24.635 -14.208  0.00  0.00    +0.081 C 
ATOM     24  C   UNL     1      33.685 -24.349 -14.312  0.00  0.00    +0.100 C 
ATOM     25  C   UNL     1      29.930 -23.617 -15.883  0.00  0.00    +0.001 C 
ATOM     26  C   UNL     1      30.253 -25.159 -13.598  0.00  0.00    +0.019 C 
ATOM     27  C   UNL     1      28.811 -24.155 -15.253  0.00  0.00    +0.000 C 
ATOM     28  C   UNL     1      28.973 -24.927 -14.109  0.00  0.00    +0.002 C 
ENDBRANCH   4  20
TORSDOF 2
ENDMDL
MODEL 5
REMARK VINA RESULT:     -11.1      9.572     13.621
REMARK  Name = 10389239
REMARK  2 active torsions:
REMARK  status: ('A' for Active; 'I' for Inactive)
REMARK    1  A    between atoms: C_2  and  C_14
REMARK    2  A    between atoms: C_4  and  C_20
REMARK                            x       y       z     vdW  Elec       q    Type
REMARK                         _______ _______ _______ _____ _____    ______ ____
ROOT
ATOM      1  N   UNL     1      31.482 -10.023 -20.785  0.00  0.00    -0.244 NA
ATOM      2  C   UNL     1      32.572 -12.372 -21.836  0.00  0.00    +0.016 C 
ATOM      3  C   UNL     1      32.724 -11.168 -22.515  0.00  0.00    +0.020 C 
ATOM      4  C   UNL     1      32.164 -10.033 -21.952  0.00  0.00    +0.083 C 
ATOM      5  C   UNL     1      31.876 -12.404 -20.633  0.00  0.00    +0.022 C 
ATOM      6  C   UNL     1      31.355 -11.212 -20.154  0.00  0.00    +0.099 C 
ENDROOT
BRANCH   2  14
ATOM      7  O   UNL     1      35.709 -17.019 -21.722  0.00  0.00    -0.270 OA
ATOM      8  N   UNL     1      32.922 -13.967 -23.680  0.00  0.00    -0.316 N 
ATOM      9  N   UNL     1      34.897 -17.549 -23.819  0.00  0.00    -0.300 N 
ATOM     10  C   UNL     1      33.576 -15.144 -23.907  0.00  0.00    +0.031 C 
ATOM     11  C   UNL     1      33.626 -15.883 -25.191  0.00  0.00    +0.063 C 
ATOM     12  C   UNL     1      34.211 -15.529 -22.745  0.00  0.00    +0.064 C 
ATOM     13  C   UNL     1      33.893 -17.358 -24.873  0.00  0.00    +0.096 C 
ATOM     14  C   UNL     1      33.135 -13.585 -22.378  0.00  0.00    +0.048 C 
ATOM     15  C   UNL     1      33.937 -14.534 -21.776  0.00  0.00    +0.020 C 
ATOM     16  C   UNL     1      35.000 -16.745 -22.685  0.00  0.00    +0.247 C 
ATOM     17  H   UNL     1      32.385 -13.474 -24.341  0.00  0.00    +0.152 HD
ATOM     18  H   UNL     1      35.536 -18.291 -23.920  0.00  0.00    +0.150 HD
ENDBRANCH   2  14
BRANCH   4  20
ATOM     19  N   UNL     1      31.254  -6.663 -23.255  0.00  0.00    -0.244 NA
ATOM     20  C   UNL     1      32.281  -8.748 -22.599  0.00  0.00    +0.037 C 
ATOM     21  C   UNL     1      33.473  -8.340 -23.180  0.00  0.00    +0.005 C 
ATOM     22  C   UNL     1      33.562  -7.088 -23.802  0.00  0.00    +0.018 C 
ATOM     23  C   UNL     1      32.412  -6.270 -23.818  0.00  0.00    +0.081 C 
ATOM     24  C   UNL     1      31.209  -7.879 -22.664  0.00  0.00    +0.100 C 
ATOM     25  C   UNL     1      34.755  -6.645 -24.399  0.00  0.00    +0.001 C 
ATOM     26  C   UNL     1      32.501  -5.026 -24.436  0.00  0.00    +0.019 C 
ATOM     27  C   UNL     1      34.815  -5.396 -25.011  0.00  0.00    +0.000 C 
ATOM     28  C   UNL     1      33.687  -4.586 -25.029  0.00  0.00    +0.002 C 
ENDBRANCH   4  20
TORSDOF 2
ENDMDL
MODEL 6
REMARK VINA RESULT:     -11.0      4.665     10.320
REMARK  Name = 10389239
REMARK  2 active torsions:
REMARK  status: ('A' for Active; 'I' for Inactive)
REMARK    1  A    between atoms: C_2  and  C_14
REMARK    2  A    between atoms: C_4  and  C_20
REMARK                            x       y       z     vdW  Elec       q    Type
REMARK                         _______ _______ _______ _____ _____    ______ ____
ROOT
ATOM      1  N   UNL     1      36.780 -20.455 -20.275  0.00  0.00    -0.244 NA
ATOM      2  C   UNL     1      35.636 -18.368 -21.740  0.00  0.00    +0.016 C 
ATOM      3  C   UNL     1      34.846 -19.144 -20.900  0.00  0.00    +0.020 C 
ATOM      4  C   UNL     1      35.461 -20.167 -20.195  0.00  0.00    +0.083 C 
ATOM      5  C   UNL     1      36.996 -18.634 -21.851  0.00  0.00    +0.022 C 
ATOM      6  C   UNL     1      37.515 -19.679 -21.102  0.00  0.00    +0.099 C 
ENDROOT
BRANCH   2  14
ATOM      7  O   UNL     1      33.279 -16.013 -26.252  0.00  0.00    -0.270 OA
ATOM      8  N   UNL     1      34.971 -16.011 -22.002  0.00  0.00    -0.316 N 
ATOM      9  N   UNL     1      32.998 -14.077 -25.021  0.00  0.00    -0.300 N 
ATOM     10  C   UNL     1      34.373 -15.212 -22.934  0.00  0.00    +0.031 C 
ATOM     11  C   UNL     1      34.124 -13.757 -22.807  0.00  0.00    +0.063 C 
ATOM     12  C   UNL     1      34.055 -15.978 -24.035  0.00  0.00    +0.064 C 
ATOM     13  C   UNL     1      32.944 -13.401 -23.719  0.00  0.00    +0.096 C 
ATOM     14  C   UNL     1      35.047 -17.290 -22.497  0.00  0.00    +0.048 C 
ATOM     15  C   UNL     1      34.491 -17.296 -23.761  0.00  0.00    +0.020 C 
ATOM     16  C   UNL     1      33.416 -15.395 -25.200  0.00  0.00    +0.247 C 
ATOM     17  H   UNL     1      35.293 -15.719 -21.119  0.00  0.00    +0.152 HD
ATOM     18  H   UNL     1      32.721 -13.568 -25.817  0.00  0.00    +0.150 HD
ENDBRANCH   2  14
BRANCH   4  20
ATOM     19  N   UNL     1      32.597 -22.030 -18.709  0.00  0.00    -0.244 NA
ATOM     20  C   UNL     1      34.705 -21.013 -19.303  0.00  0.00    +0.037 C 
ATOM     21  C   UNL     1      35.304 -21.620 -18.209  0.00  0.00    +0.005 C 
ATOM     22  C   UNL     1      34.549 -22.438 -17.357  0.00  0.00    +0.018 C 
ATOM     23  C   UNL     1      33.180 -22.618 -17.648  0.00  0.00    +0.081 C 
ATOM     24  C   UNL     1      33.360 -21.248 -19.507  0.00  0.00    +0.100 C 
ATOM     25  C   UNL     1      35.125 -23.068 -16.240  0.00  0.00    +0.001 C 
ATOM     26  C   UNL     1      32.432 -23.430 -16.802  0.00  0.00    +0.019 C 
ATOM     27  C   UNL     1      34.352 -23.876 -15.410  0.00  0.00    +0.000 C 
ATOM     28  C   UNL     1      33.004 -24.057 -15.692  0.00  0.00    +0.002 C 
ENDBRANCH   4  20
TORSDOF 2
ENDMDL
MODEL 7
REMARK VINA RESULT:     -10.9      6.778     10.615
REMARK  Name = 10389239
REMARK  2 active torsions:
REMARK  status: ('A' for Active; 'I' for Inactive)
REMARK    1  A    between atoms: C_2  and  C_14
REMARK    2  A    between atoms: C_4  and  C_20
REMARK                            x       y       z     vdW  Elec       q    Type
REMARK                         _______ _______ _______ _____ _____    ______ ____
ROOT
ATOM      1  N   UNL     1      33.331 -13.902 -25.260  0.00  0.00    -0.244 NA
ATOM      2  C   UNL     1      34.284 -15.942 -23.606  0.00  0.00    +0.016 C 
ATOM      3  C   UNL     1      34.161 -14.647 -23.115  0.00  0.00    +0.020 C 
ATOM      4  C   UNL     1      33.684 -13.671 -23.976  0.00  0.00    +0.083 C 
ATOM      5  C   UNL     1      33.932 -16.219 -24.922  0.00  0.00    +0.022 C 
ATOM      6  C   UNL     1      33.464 -15.172 -25.701  0.00  0.00    +0.099 C 
ENDROOT
BRANCH   2  14
ATOM      7  O   UNL     1      37.857 -18.314 -19.991  0.00  0.00    -0.270 OA
ATOM      8  N   UNL     1      34.165 -18.226 -22.690  0.00  0.00    -0.316 N 
ATOM      9  N   UNL     1      36.428 -20.125 -19.859  0.00  0.00    -0.300 N 
ATOM     10  C   UNL     1      34.848 -19.014 -21.810  0.00  0.00    +0.031 C 
ATOM     11  C   UNL     1      34.536 -20.423 -21.473  0.00  0.00    +0.063 C 
ATOM     12  C   UNL     1      35.903 -18.290 -21.294  0.00  0.00    +0.064 C 
ATOM     13  C   UNL     1      35.097 -20.706 -20.075  0.00  0.00    +0.096 C 
ATOM     14  C   UNL     1      34.776 -16.997 -22.752  0.00  0.00    +0.048 C 
ATOM     15  C   UNL     1      35.861 -17.011 -21.899  0.00  0.00    +0.020 C 
ATOM     16  C   UNL     1      36.820 -18.874 -20.333  0.00  0.00    +0.247 C 
ATOM     17  H   UNL     1      33.365 -18.494 -23.198  0.00  0.00    +0.152 HD
ATOM     18  H   UNL     1      37.083 -20.652 -19.347  0.00  0.00    +0.150 HD
ENDBRANCH   2  14
BRANCH   4  20
ATOM     19  N   UNL     1      32.340 -10.686 -22.196  0.00  0.00    -0.244 NA
ATOM     20  C   UNL     1      33.529 -12.305 -23.537  0.00  0.00    +0.037 C 
ATOM     21  C   UNL     1      34.371 -11.303 -23.996  0.00  0.00    +0.005 C 
ATOM     22  C   UNL     1      34.201  -9.983 -23.556  0.00  0.00    +0.018 C 
ATOM     23  C   UNL     1      33.158  -9.715 -22.644  0.00  0.00    +0.081 C 
ATOM     24  C   UNL     1      32.537 -11.947 -22.646  0.00  0.00    +0.100 C 
ATOM     25  C   UNL     1      35.037  -8.944 -24.002  0.00  0.00    +0.001 C 
ATOM     26  C   UNL     1      32.990  -8.405 -22.207  0.00  0.00    +0.019 C 
ATOM     27  C   UNL     1      34.846  -7.642 -23.548  0.00  0.00    +0.000 C 
ATOM     28  C   UNL     1      33.821  -7.372 -22.650  0.00  0.00    +0.002 C 
ENDBRANCH   4  20
TORSDOF 2
ENDMDL
MODEL 8
REMARK VINA RESULT:     -10.8     10.017     14.000
REMARK  Name = 10389239
REMARK  2 active torsions:
REMARK  status: ('A' for Active; 'I' for Inactive)
REMARK    1  A    between atoms: C_2  and  C_14
REMARK    2  A    between atoms: C_4  and  C_20
REMARK                            x       y       z     vdW  Elec       q    Type
REMARK                         _______ _______ _______ _____ _____    ______ ____
ROOT
ATOM      1  N   UNL     1      31.456  -9.966 -20.516  0.00  0.00    -0.244 NA
ATOM      2  C   UNL     1      32.524 -12.246 -21.730  0.00  0.00    +0.016 C 
ATOM      3  C   UNL     1      32.667 -11.003 -22.335  0.00  0.00    +0.020 C 
ATOM      4  C   UNL     1      32.119  -9.904 -21.693  0.00  0.00    +0.083 C 
ATOM      5  C   UNL     1      31.847 -12.353 -20.520  0.00  0.00    +0.022 C 
ATOM      6  C   UNL     1      31.338 -11.192 -19.959  0.00  0.00    +0.099 C 
ENDROOT
BRANCH   2  14
ATOM      7  O   UNL     1      35.722 -16.846 -21.989  0.00  0.00    -0.270 OA
ATOM      8  N   UNL     1      32.802 -13.748 -23.662  0.00  0.00    -0.316 N 
ATOM      9  N   UNL     1      34.813 -17.289 -24.067  0.00  0.00    -0.300 N 
ATOM     10  C   UNL     1      33.459 -14.903 -23.977  0.00  0.00    +0.031 C 
ATOM     11  C   UNL     1      33.455 -15.580 -25.295  0.00  0.00    +0.063 C 
ATOM     12  C   UNL     1      34.155 -15.332 -22.866  0.00  0.00    +0.064 C 
ATOM     13  C   UNL     1      33.756 -17.065 -25.060  0.00  0.00    +0.096 C 
ATOM     14  C   UNL     1      33.075 -13.424 -22.355  0.00  0.00    +0.048 C 
ATOM     15  C   UNL     1      33.918 -14.388 -21.839  0.00  0.00    +0.020 C 
ATOM     16  C   UNL     1      34.962 -16.537 -22.903  0.00  0.00    +0.247 C 
ATOM     17  H   UNL     1      32.227 -13.233 -24.272  0.00  0.00    +0.152 HD
ATOM     18  H   UNL     1      35.456 -18.016 -24.234  0.00  0.00    +0.150 HD
ENDBRANCH   2  14
BRANCH   4  20
ATOM     19  N   UNL     1      33.386  -7.049 -23.726  0.00  0.00    -0.244 NA
ATOM     20  C   UNL     1      32.228  -8.581 -22.261  0.00  0.00    +0.037 C 
ATOM     21  C   UNL     1      31.332  -7.577 -21.923  0.00  0.00    +0.005 C 
ATOM     22  C   UNL     1      31.459  -6.301 -22.488  0.00  0.00    +0.018 C 
ATOM     23  C   UNL     1      32.515  -6.077 -23.397  0.00  0.00    +0.081 C 
ATOM     24  C   UNL     1      33.230  -8.267 -23.159  0.00  0.00    +0.100 C 
ATOM     25  C   UNL     1      30.567  -5.262 -22.168  0.00  0.00    +0.001 C 
ATOM     26  C   UNL     1      32.640  -4.809 -23.957  0.00  0.00    +0.019 C 
ATOM     27  C   UNL     1      30.716  -4.003 -22.743  0.00  0.00    +0.000 C 
ATOM     28  C   UNL     1      31.754  -3.777 -23.639  0.00  0.00    +0.002 C 
ENDBRANCH   4  20
TORSDOF 2
ENDMDL
MODEL 9
REMARK VINA RESULT:     -10.8      7.979     12.200
REMARK  Name = 10389239
REMARK  2 active torsions:
REMARK  status: ('A' for Active; 'I' for Inactive)
REMARK    1  A    between atoms: C_2  and  C_14
REMARK    2  A    between atoms: C_4  and  C_20
REMARK                            x       y       z     vdW  Elec       q    Type
REMARK                         _______ _______ _______ _____ _____    ______ ____
ROOT
ATOM      1  N   UNL     1      33.372 -12.161 -25.925  0.00  0.00    -0.244 NA
ATOM      2  C   UNL     1      34.015 -14.515 -24.564  0.00  0.00    +0.016 C 
ATOM      3  C   UNL     1      34.086 -13.290 -23.910  0.00  0.00    +0.020 C 
ATOM      4  C   UNL     1      33.758 -12.152 -24.629  0.00  0.00    +0.083 C 
ATOM      5  C   UNL     1      33.624 -14.565 -25.897  0.00  0.00    +0.022 C 
ATOM      6  C   UNL     1      33.314 -13.370 -26.526  0.00  0.00    +0.099 C 
ENDROOT
BRANCH   2  14
ATOM      7  O   UNL     1      34.664 -20.059 -24.017  0.00  0.00    -0.270 OA
ATOM      8  N   UNL     1      34.683 -15.734 -22.530  0.00  0.00    -0.316 N 
ATOM      9  N   UNL     1      35.507 -19.692 -21.897  0.00  0.00    -0.300 N 
ATOM     10  C   UNL     1      34.939 -17.017 -22.142  0.00  0.00    +0.031 C 
ATOM     11  C   UNL     1      35.310 -17.460 -20.777  0.00  0.00    +0.063 C 
ATOM     12  C   UNL     1      34.774 -17.849 -23.229  0.00  0.00    +0.064 C 
ATOM     13  C   UNL     1      36.084 -18.777 -20.905  0.00  0.00    +0.096 C 
ATOM     14  C   UNL     1      34.347 -15.732 -23.862  0.00  0.00    +0.048 C 
ATOM     15  C   UNL     1      34.389 -17.034 -24.319  0.00  0.00    +0.020 C 
ATOM     16  C   UNL     1      34.969 -19.283 -23.117  0.00  0.00    +0.247 C 
ATOM     17  H   UNL     1      34.732 -14.939 -21.951  0.00  0.00    +0.152 HD
ATOM     18  H   UNL     1      35.499 -20.654 -21.688  0.00  0.00    +0.150 HD
ENDBRANCH   2  14
BRANCH   4  20
ATOM     19  N   UNL     1      35.017  -8.792 -23.625  0.00  0.00    -0.244 NA
ATOM     20  C   UNL     1      33.808 -10.846 -24.017  0.00  0.00    +0.037 C 
ATOM     21  C   UNL     1      32.754 -10.369 -23.251  0.00  0.00    +0.005 C 
ATOM     22  C   UNL     1      32.827  -9.097 -22.667  0.00  0.00    +0.018 C 
ATOM     23  C   UNL     1      33.993  -8.332 -22.882  0.00  0.00    +0.081 C 
ATOM     24  C   UNL     1      34.908 -10.025 -24.171  0.00  0.00    +0.100 C 
ATOM     25  C   UNL     1      31.776  -8.585 -21.887  0.00  0.00    +0.001 C 
ATOM     26  C   UNL     1      34.064  -7.069 -22.302  0.00  0.00    +0.019 C 
ATOM     27  C   UNL     1      31.874  -7.318 -21.318  0.00  0.00    +0.000 C 
ATOM     28  C   UNL     1      33.020  -6.559 -21.526  0.00  0.00    +0.002 C 
ENDBRANCH   4  20
TORSDOF 2
ENDMDL
