MODEL 1
REMARK VINA RESULT:     -11.3      0.000      0.000
REMARK  Name = 24963046
REMARK  6 active torsions:
REMARK  status: ('A' for Active; 'I' for Inactive)
REMARK    1  A    between atoms: N_1  and  C_27
REMARK    2  A    between atoms: C_4  and  C_16
REMARK    3  A    between atoms: C_13  and  C_22
REMARK    4  A    between atoms: N_21  and  C_24
REMARK    5  A    between atoms: C_27  and  C_28
REMARK    6  A    between atoms: C_28  and  N_30
REMARK                            x       y       z     vdW  Elec       q    Type
REMARK                         _______ _______ _______ _____ _____    ______ ____
ROOT
ATOM      1  N   UNL     1      33.351 -13.435 -25.806  0.00  0.00    -0.270 N 
ATOM      2  N   UNL     1      33.931 -14.443 -23.793  0.00  0.00    -0.338 NA
ATOM      3  N   UNL     1      33.807 -15.709 -25.840  0.00  0.00    -0.170 NA
ATOM      4  C   UNL     1      35.018 -17.868 -21.682  0.00  0.00    -0.000 C 
ATOM      5  C   UNL     1      34.780 -17.945 -23.051  0.00  0.00    +0.004 C 
ATOM      6  C   UNL     1      34.412 -16.792 -23.766  0.00  0.00    +0.050 C 
ATOM      7  C   UNL     1      33.712 -14.581 -25.117  0.00  0.00    +0.145 C 
ATOM      8  C   UNL     1      34.892 -16.645 -21.031  0.00  0.00    +0.003 C 
ATOM      9  C   UNL     1      34.281 -15.552 -23.119  0.00  0.00    +0.146 C 
ATOM     10  C   UNL     1      34.527 -15.504 -21.750  0.00  0.00    +0.033 C 
ATOM     11  C   UNL     1      34.160 -16.801 -25.134  0.00  0.00    +0.114 C 
ATOM     12  H   UNL     1      33.186 -13.507 -26.774  0.00  0.00    +0.159 HD
ENDROOT
BRANCH   4  16
ATOM     13  C   UNL     1      34.735 -21.010 -19.691  0.00  0.00    +0.053 C 
ATOM     14  C   UNL     1      34.395 -19.863 -20.408  0.00  0.00    +0.004 C 
ATOM     15  C   UNL     1      36.076 -21.346 -19.508  0.00  0.00    +0.004 C 
ATOM     16  C   UNL     1      35.396 -19.052 -20.942  0.00  0.00    -0.004 C 
ATOM     17  C   UNL     1      36.737 -19.388 -20.758  0.00  0.00    -0.022 C 
ATOM     18  C   UNL     1      37.078 -20.536 -20.042  0.00  0.00    -0.004 C 
ATOM     19  C   UNL     1      37.838 -18.543 -21.316  0.00  0.00    +0.031 C 
BRANCH  13  22
ATOM     20  O   UNL     1      32.590 -21.963 -19.703  0.00  0.00    -0.270 OA
ATOM     21  N   UNL     1      33.980 -22.519 -17.935  0.00  0.00    -0.302 N 
ATOM     22  C   UNL     1      33.692 -21.857 -19.134  0.00  0.00    +0.246 C 
ATOM     23  H   UNL     1      34.872 -22.393 -17.534  0.00  0.00    +0.150 HD
BRANCH  21  24
ATOM     24  C   UNL     1      33.042 -23.371 -17.257  0.00  0.00    +0.072 C 
ATOM     25  C   UNL     1      32.988 -23.430 -15.759  0.00  0.00    +0.021 C 
ATOM     26  C   UNL     1      31.863 -22.801 -16.528  0.00  0.00    +0.021 C 
ENDBRANCH  21  24
ENDBRANCH  13  22
ENDBRANCH   4  16
BRANCH   1  27
ATOM     27  C   UNL     1      33.205 -12.140 -25.186  0.00  0.00    +0.075 C 
BRANCH  27  28
ATOM     28  C   UNL     1      34.579 -11.533 -24.935  0.00  0.00    -0.055 C 
BRANCH  28  30
ATOM     29  O   UNL     1      33.608  -7.923 -23.026  0.00  0.00    -0.358 OA
ATOM     30  N   UNL     1      34.492 -10.472 -23.933  0.00  0.00    +0.391 N 
ATOM     31  C   UNL     1      33.094 -10.239 -23.542  0.00  0.00    -0.045 C 
ATOM     32  C   UNL     1      35.090  -9.228 -24.437  0.00  0.00    -0.045 C 
ATOM     33  C   UNL     1      33.027  -9.121 -22.506  0.00  0.00    +0.119 C 
ATOM     34  C   UNL     1      34.976  -8.134 -23.378  0.00  0.00    +0.119 C 
ATOM     35  H   UNL     1      35.014 -10.776 -23.110  0.00  0.00    -0.079 HD
ENDBRANCH  28  30
ENDBRANCH  27  28
ENDBRANCH   1  27
TORSDOF 6
ENDMDL
MODEL 2
REMARK VINA RESULT:     -11.1      3.624      6.998
REMARK  Name = 24963046
REMARK  6 active torsions:
REMARK  status: ('A' for Active; 'I' for Inactive)
REMARK    1  A    between atoms: N_1  and  C_27
REMARK    2  A    between atoms: C_4  and  C_16
REMARK    3  A    between atoms: C_13  and  C_22
REMARK    4  A    between atoms: N_21  and  C_24
REMARK    5  A    between atoms: C_27  and  C_28
REMARK    6  A    between atoms: C_28  and  N_30
REMARK                            x       y       z     vdW  Elec       q    Type
REMARK                         _______ _______ _______ _____ _____    ______ ____
ROOT
ATOM      1  N   UNL     1      35.575 -19.054 -22.204  0.00  0.00    -0.270 N 
ATOM      2  N   UNL     1      34.329 -20.317 -20.703  0.00  0.00    -0.338 NA
ATOM      3  N   UNL     1      36.691 -19.957 -20.382  0.00  0.00    -0.170 NA
ATOM      4  C   UNL     1      34.152 -22.599 -17.219  0.00  0.00    -0.000 C 
ATOM      5  C   UNL     1      35.364 -22.047 -17.625  0.00  0.00    +0.004 C 
ATOM      6  C   UNL     1      35.427 -21.277 -18.800  0.00  0.00    +0.050 C 
ATOM      7  C   UNL     1      35.532 -19.810 -21.044  0.00  0.00    +0.145 C 
ATOM      8  C   UNL     1      33.010 -22.382 -17.982  0.00  0.00    +0.003 C 
ATOM      9  C   UNL     1      34.280 -21.052 -19.578  0.00  0.00    +0.146 C 
ATOM     10  C   UNL     1      33.082 -21.615 -19.148  0.00  0.00    +0.033 C 
ATOM     11  C   UNL     1      36.606 -20.698 -19.260  0.00  0.00    +0.114 C 
ATOM     12  H   UNL     1      36.441 -18.670 -22.476  0.00  0.00    +0.159 HD
ENDROOT
BRANCH   4  16
ATOM     13  C   UNL     1      35.204 -24.750 -14.358  0.00  0.00    +0.053 C 
ATOM     14  C   UNL     1      35.247 -23.981 -15.521  0.00  0.00    +0.004 C 
ATOM     15  C   UNL     1      33.996 -24.930 -13.687  0.00  0.00    +0.004 C 
ATOM     16  C   UNL     1      34.082 -23.393 -16.012  0.00  0.00    -0.004 C 
ATOM     17  C   UNL     1      32.873 -23.574 -15.340  0.00  0.00    -0.022 C 
ATOM     18  C   UNL     1      32.830 -24.342 -14.176  0.00  0.00    -0.004 C 
ATOM     19  C   UNL     1      31.603 -22.958 -15.835  0.00  0.00    +0.031 C 
BRANCH  13  22
ATOM     20  O   UNL     1      36.488 -25.742 -12.663  0.00  0.00    -0.270 OA
ATOM     21  N   UNL     1      37.495 -25.485 -14.733  0.00  0.00    -0.302 N 
ATOM     22  C   UNL     1      36.419 -25.364 -13.846  0.00  0.00    +0.246 C 
ATOM     23  H   UNL     1      37.377 -25.166 -15.658  0.00  0.00    +0.150 HD
BRANCH  21  24
ATOM     24  C   UNL     1      38.763 -26.051 -14.364  0.00  0.00    +0.072 C 
ATOM     25  C   UNL     1      40.052 -25.441 -14.832  0.00  0.00    +0.021 C 
ATOM     26  C   UNL     1      39.665 -25.360 -13.385  0.00  0.00    +0.021 C 
ENDBRANCH  21  24
ENDBRANCH  13  22
ENDBRANCH   4  16
BRANCH   1  27
ATOM     27  C   UNL     1      34.425 -18.795 -23.036  0.00  0.00    +0.075 C 
BRANCH  27  28
ATOM     28  C   UNL     1      34.770 -17.732 -24.072  0.00  0.00    -0.055 C 
BRANCH  28  30
ATOM     29  O   UNL     1      34.009 -13.630 -23.619  0.00  0.00    -0.358 OA
ATOM     30  N   UNL     1      34.106 -16.471 -23.747  0.00  0.00    +0.391 N 
ATOM     31  C   UNL     1      33.921 -15.654 -24.955  0.00  0.00    -0.045 C 
ATOM     32  C   UNL     1      34.872 -15.721 -22.743  0.00  0.00    -0.045 C 
ATOM     33  C   UNL     1      33.238 -14.339 -24.590  0.00  0.00    +0.119 C 
ATOM     34  C   UNL     1      34.165 -14.405 -22.430  0.00  0.00    +0.119 C 
ATOM     35  H   UNL     1      33.188 -16.693 -23.361  0.00  0.00    -0.079 HD
ENDBRANCH  28  30
ENDBRANCH  27  28
ENDBRANCH   1  27
TORSDOF 6
ENDMDL
MODEL 3
REMARK VINA RESULT:     -11.1      3.421     11.546
REMARK  Name = 24963046
REMARK  6 active torsions:
REMARK  status: ('A' for Active; 'I' for Inactive)
REMARK    1  A    between atoms: N_1  and  C_27
REMARK    2  A    between atoms: C_4  and  C_16
REMARK    3  A    between atoms: C_13  and  C_22
REMARK    4  A    between atoms: N_21  and  C_24
REMARK    5  A    between atoms: C_27  and  C_28
REMARK    6  A    between atoms: C_28  and  N_30
REMARK                            x       y       z     vdW  Elec       q    Type
REMARK                         _______ _______ _______ _____ _____    ______ ____
ROOT
ATOM      1  N   UNL     1      34.147 -23.680 -16.403  0.00  0.00    -0.270 N 
ATOM      2  N   UNL     1      35.177 -22.271 -17.938  0.00  0.00    -0.338 NA
ATOM      3  N   UNL     1      32.782 -22.534 -17.887  0.00  0.00    -0.170 NA
ATOM      4  C   UNL     1      34.866 -19.585 -21.110  0.00  0.00    -0.000 C 
ATOM      5  C   UNL     1      33.717 -20.153 -20.568  0.00  0.00    +0.004 C 
ATOM      6  C   UNL     1      33.818 -21.060 -19.498  0.00  0.00    +0.050 C 
ATOM      7  C   UNL     1      34.028 -22.789 -17.457  0.00  0.00    +0.145 C 
ATOM      8  C   UNL     1      36.110 -19.919 -20.585  0.00  0.00    +0.003 C 
ATOM      9  C   UNL     1      35.069 -21.405 -18.960  0.00  0.00    +0.146 C 
ATOM     10  C   UNL     1      36.202 -20.821 -19.521  0.00  0.00    +0.033 C 
ATOM     11  C   UNL     1      32.709 -21.663 -18.913  0.00  0.00    +0.114 C 
ATOM     12  H   UNL     1      33.324 -24.072 -16.031  0.00  0.00    +0.159 HD
ENDROOT
BRANCH   4  16
ATOM     13  C   UNL     1      34.510 -16.377 -22.981  0.00  0.00    +0.053 C 
ATOM     14  C   UNL     1      34.608 -17.295 -21.935  0.00  0.00    +0.004 C 
ATOM     15  C   UNL     1      34.573 -16.818 -24.303  0.00  0.00    +0.004 C 
ATOM     16  C   UNL     1      34.767 -18.653 -22.211  0.00  0.00    -0.004 C 
ATOM     17  C   UNL     1      34.829 -19.093 -23.534  0.00  0.00    -0.022 C 
ATOM     18  C   UNL     1      34.732 -18.175 -24.580  0.00  0.00    -0.004 C 
ATOM     19  C   UNL     1      35.000 -20.541 -23.868  0.00  0.00    +0.031 C 
BRANCH  13  22
ATOM     20  O   UNL     1      34.960 -14.104 -23.354  0.00  0.00    -0.270 OA
ATOM     21  N   UNL     1      33.486 -14.620 -21.642  0.00  0.00    -0.302 N 
ATOM     22  C   UNL     1      34.344 -14.961 -22.695  0.00  0.00    +0.246 C 
ATOM     23  H   UNL     1      33.028 -15.346 -21.158  0.00  0.00    +0.150 HD
BRANCH  21  24
ATOM     24  C   UNL     1      33.240 -13.266 -21.231  0.00  0.00    +0.072 C 
ATOM     25  C   UNL     1      32.073 -12.490 -21.767  0.00  0.00    +0.021 C 
ATOM     26  C   UNL     1      32.090 -12.925 -20.331  0.00  0.00    +0.021 C 
ENDBRANCH  21  24
ENDBRANCH  13  22
ENDBRANCH   4  16
BRANCH   1  27
ATOM     27  C   UNL     1      35.409 -24.065 -15.817  0.00  0.00    +0.075 C 
BRANCH  27  28
ATOM     28  C   UNL     1      35.162 -24.802 -14.506  0.00  0.00    -0.055 C 
BRANCH  28  30
ATOM     29  O   UNL     1      37.401 -24.640 -10.961  0.00  0.00    -0.358 OA
ATOM     30  N   UNL     1      36.229 -24.512 -13.551  0.00  0.00    +0.391 N 
ATOM     31  C   UNL     1      36.818 -25.756 -13.035  0.00  0.00    -0.045 C 
ATOM     32  C   UNL     1      35.727 -23.693 -12.439  0.00  0.00    -0.045 C 
ATOM     33  C   UNL     1      37.921 -25.430 -12.032  0.00  0.00    +0.119 C 
ATOM     34  C   UNL     1      36.856 -23.414 -11.451  0.00  0.00    +0.119 C 
ATOM     35  H   UNL     1      36.954 -23.988 -14.042  0.00  0.00    -0.079 HD
ENDBRANCH  28  30
ENDBRANCH  27  28
ENDBRANCH   1  27
TORSDOF 6
ENDMDL
MODEL 4
REMARK VINA RESULT:     -10.8      3.320     11.701
REMARK  Name = 24963046
REMARK  6 active torsions:
REMARK  status: ('A' for Active; 'I' for Inactive)
REMARK    1  A    between atoms: N_1  and  C_27
REMARK    2  A    between atoms: C_4  and  C_16
REMARK    3  A    between atoms: C_13  and  C_22
REMARK    4  A    between atoms: N_21  and  C_24
REMARK    5  A    between atoms: C_27  and  C_28
REMARK    6  A    between atoms: C_28  and  N_30
REMARK                            x       y       z     vdW  Elec       q    Type
REMARK                         _______ _______ _______ _____ _____    ______ ____
ROOT
ATOM      1  N   UNL     1      35.835 -22.855 -16.753  0.00  0.00    -0.270 N 
ATOM      2  N   UNL     1      36.388 -21.280 -18.371  0.00  0.00    -0.338 NA
ATOM      3  N   UNL     1      34.163 -22.194 -18.219  0.00  0.00    -0.170 NA
ATOM      4  C   UNL     1      35.251 -18.918 -21.611  0.00  0.00    -0.000 C 
ATOM      5  C   UNL     1      34.321 -19.760 -21.008  0.00  0.00    +0.004 C 
ATOM      6  C   UNL     1      34.701 -20.558 -19.915  0.00  0.00    +0.050 C 
ATOM      7  C   UNL     1      35.443 -22.076 -17.829  0.00  0.00    +0.145 C 
ATOM      8  C   UNL     1      36.553 -18.873 -21.125  0.00  0.00    +0.003 C 
ATOM      9  C   UNL     1      36.014 -20.521 -19.415  0.00  0.00    +0.146 C 
ATOM     10  C   UNL     1      36.922 -19.670 -20.038  0.00  0.00    +0.033 C 
ATOM     11  C   UNL     1      33.822 -21.420 -19.267  0.00  0.00    +0.114 C 
ATOM     12  H   UNL     1      35.164 -23.445 -16.338  0.00  0.00    +0.159 HD
ENDROOT
BRANCH   4  16
ATOM     13  C   UNL     1      34.358 -15.908 -23.625  0.00  0.00    +0.053 C 
ATOM     14  C   UNL     1      34.729 -16.720 -22.554  0.00  0.00    +0.004 C 
ATOM     15  C   UNL     1      34.123 -16.471 -24.879  0.00  0.00    +0.004 C 
ATOM     16  C   UNL     1      34.865 -18.096 -22.737  0.00  0.00    -0.004 C 
ATOM     17  C   UNL     1      34.629 -18.659 -23.992  0.00  0.00    -0.022 C 
ATOM     18  C   UNL     1      34.258 -17.847 -25.063  0.00  0.00    -0.004 C 
ATOM     19  C   UNL     1      34.764 -20.131 -24.226  0.00  0.00    +0.031 C 
BRANCH  13  22
ATOM     20  O   UNL     1      34.656 -13.922 -22.410  0.00  0.00    -0.270 OA
ATOM     21  N   UNL     1      33.554 -13.759 -24.442  0.00  0.00    -0.302 N 
ATOM     22  C   UNL     1      34.217 -14.472 -23.436  0.00  0.00    +0.246 C 
ATOM     23  H   UNL     1      33.229 -14.254 -25.229  0.00  0.00    +0.150 HD
BRANCH  21  24
ATOM     24  C   UNL     1      33.322 -12.342 -24.383  0.00  0.00    +0.072 C 
ATOM     25  C   UNL     1      34.180 -11.448 -23.537  0.00  0.00    +0.021 C 
ATOM     26  C   UNL     1      34.264 -11.374 -25.033  0.00  0.00    +0.021 C 
ENDBRANCH  21  24
ENDBRANCH  13  22
ENDBRANCH   4  16
BRANCH   1  27
ATOM     27  C   UNL     1      37.170 -22.851 -16.205  0.00  0.00    +0.075 C 
BRANCH  27  28
ATOM     28  C   UNL     1      37.100 -22.891 -14.684  0.00  0.00    -0.055 C 
BRANCH  28  30
ATOM     29  O   UNL     1      38.380 -26.887 -14.568  0.00  0.00    -0.358 OA
ATOM     30  N   UNL     1      37.546 -24.192 -14.189  0.00  0.00    +0.391 N 
ATOM     31  C   UNL     1      38.883 -24.517 -14.707  0.00  0.00    -0.045 C 
ATOM     32  C   UNL     1      36.592 -25.247 -14.558  0.00  0.00    -0.045 C 
ATOM     33  C   UNL     1      39.321 -25.882 -14.187  0.00  0.00    +0.119 C 
ATOM     34  C   UNL     1      37.085 -26.595 -14.040  0.00  0.00    +0.119 C 
ATOM     35  H   UNL     1      37.596 -24.138 -13.171  0.00  0.00    -0.079 HD
ENDBRANCH  28  30
ENDBRANCH  27  28
ENDBRANCH   1  27
TORSDOF 6
ENDMDL
MODEL 5
REMARK VINA RESULT:     -10.3      3.295      6.507
REMARK  Name = 24963046
REMARK  6 active torsions:
REMARK  status: ('A' for Active; 'I' for Inactive)
REMARK    1  A    between atoms: N_1  and  C_27
REMARK    2  A    between atoms: C_4  and  C_16
REMARK    3  A    between atoms: C_13  and  C_22
REMARK    4  A    between atoms: N_21  and  C_24
REMARK    5  A    between atoms: C_27  and  C_28
REMARK    6  A    between atoms: C_28  and  N_30
REMARK                            x       y       z     vdW  Elec       q    Type
REMARK                         _______ _______ _______ _____ _____    ______ ____
ROOT
ATOM      1  N   UNL     1      31.580  -7.701 -20.312  0.00  0.00    -0.270 N 
ATOM      2  N   UNL     1      32.599  -9.043 -21.913  0.00  0.00    -0.338 NA
ATOM      3  N   UNL     1      31.273  -9.994 -20.139  0.00  0.00    -0.170 NA
ATOM      4  C   UNL     1      33.370 -12.843 -23.442  0.00  0.00    -0.000 C 
ATOM      5  C   UNL     1      32.580 -12.701 -22.305  0.00  0.00    +0.004 C 
ATOM      6  C   UNL     1      32.318 -11.421 -21.786  0.00  0.00    +0.050 C 
ATOM      7  C   UNL     1      31.827  -8.971 -20.808  0.00  0.00    +0.145 C 
ATOM      8  C   UNL     1      33.894 -11.712 -24.058  0.00  0.00    +0.003 C 
ATOM      9  C   UNL     1      32.843 -10.272 -22.400  0.00  0.00    +0.146 C 
ATOM     10  C   UNL     1      33.629 -10.443 -23.536  0.00  0.00    +0.033 C 
ATOM     11  C   UNL     1      31.537 -11.211 -20.654  0.00  0.00    +0.114 C 
ATOM     12  H   UNL     1      31.018  -7.619 -19.506  0.00  0.00    +0.159 HD
ENDROOT
BRANCH   4  16
ATOM     13  C   UNL     1      34.448 -16.409 -23.633  0.00  0.00    +0.053 C 
ATOM     14  C   UNL     1      34.177 -15.134 -23.138  0.00  0.00    +0.004 C 
ATOM     15  C   UNL     1      34.184 -16.709 -24.969  0.00  0.00    +0.004 C 
ATOM     16  C   UNL     1      33.643 -14.158 -23.978  0.00  0.00    -0.004 C 
ATOM     17  C   UNL     1      33.378 -14.458 -25.315  0.00  0.00    -0.022 C 
ATOM     18  C   UNL     1      33.648 -15.734 -25.811  0.00  0.00    -0.004 C 
ATOM     19  C   UNL     1      32.805 -13.438 -26.247  0.00  0.00    +0.031 C 
BRANCH  13  22
ATOM     20  O   UNL     1      36.040 -17.204 -22.103  0.00  0.00    -0.270 OA
ATOM     21  N   UNL     1      34.340 -18.659 -22.706  0.00  0.00    -0.302 N 
ATOM     22  C   UNL     1      35.006 -17.428 -22.757  0.00  0.00    +0.246 C 
ATOM     23  H   UNL     1      33.526 -18.773 -23.249  0.00  0.00    +0.150 HD
BRANCH  21  24
ATOM     24  C   UNL     1      34.785 -19.764 -21.903  0.00  0.00    +0.072 C 
ATOM     25  C   UNL     1      35.495 -19.542 -20.601  0.00  0.00    +0.021 C 
ATOM     26  C   UNL     1      34.105 -20.108 -20.612  0.00  0.00    +0.021 C 
ENDBRANCH  21  24
ENDBRANCH  13  22
ENDBRANCH   4  16
BRANCH   1  27
ATOM     27  C   UNL     1      32.096  -6.492 -20.907  0.00  0.00    +0.075 C 
BRANCH  27  28
ATOM     28  C   UNL     1      30.945  -5.662 -21.461  0.00  0.00    -0.055 C 
BRANCH  28  30
ATOM     29  O   UNL     1      32.780  -3.871 -24.784  0.00  0.00    -0.358 OA
ATOM     30  N   UNL     1      31.231  -5.248 -22.833  0.00  0.00    +0.391 N 
ATOM     31  C   UNL     1      32.542  -5.750 -23.267  0.00  0.00    -0.045 C 
ATOM     32  C   UNL     1      31.185  -3.784 -22.957  0.00  0.00    -0.045 C 
ATOM     33  C   UNL     1      32.823  -5.296 -24.696  0.00  0.00    +0.119 C 
ATOM     34  C   UNL     1      31.497  -3.377 -24.395  0.00  0.00    +0.119 C 
ATOM     35  H   UNL     1      30.513  -5.650 -23.436  0.00  0.00    -0.079 HD
ENDBRANCH  28  30
ENDBRANCH  27  28
ENDBRANCH   1  27
TORSDOF 6
ENDMDL
MODEL 6
REMARK VINA RESULT:     -10.3      3.194      5.301
REMARK  Name = 24963046
REMARK  6 active torsions:
REMARK  status: ('A' for Active; 'I' for Inactive)
REMARK    1  A    between atoms: N_1  and  C_27
REMARK    2  A    between atoms: C_4  and  C_16
REMARK    3  A    between atoms: C_13  and  C_22
REMARK    4  A    between atoms: N_21  and  C_24
REMARK    5  A    between atoms: C_27  and  C_28
REMARK    6  A    between atoms: C_28  and  N_30
REMARK                            x       y       z     vdW  Elec       q    Type
REMARK                         _______ _______ _______ _____ _____    ______ ____
ROOT
ATOM      1  N   UNL     1      31.574  -8.895 -21.204  0.00  0.00    -0.270 N 
ATOM      2  N   UNL     1      32.698 -10.496 -22.459  0.00  0.00    -0.338 NA
ATOM      3  N   UNL     1      31.465 -11.095 -20.477  0.00  0.00    -0.170 NA
ATOM      4  C   UNL     1      33.786 -14.477 -23.045  0.00  0.00    -0.000 C 
ATOM      5  C   UNL     1      32.991 -14.130 -21.957  0.00  0.00    +0.004 C 
ATOM      6  C   UNL     1      32.622 -12.788 -21.756  0.00  0.00    +0.050 C 
ATOM      7  C   UNL     1      31.927 -10.222 -21.386  0.00  0.00    +0.145 C 
ATOM      8  C   UNL     1      34.210 -13.490 -23.928  0.00  0.00    +0.003 C 
ATOM      9  C   UNL     1      33.045 -11.782 -22.641  0.00  0.00    +0.146 C 
ATOM     10  C   UNL     1      33.839 -12.159 -23.721  0.00  0.00    +0.033 C 
ATOM     11  C   UNL     1      31.830 -12.374 -20.689  0.00  0.00    +0.114 C 
ATOM     12  H   UNL     1      31.010  -8.667 -20.429  0.00  0.00    +0.159 HD
ENDROOT
BRANCH   4  16
ATOM     13  C   UNL     1      35.179 -17.878 -22.402  0.00  0.00    +0.053 C 
ATOM     14  C   UNL     1      34.801 -16.547 -22.223  0.00  0.00    +0.004 C 
ATOM     15  C   UNL     1      34.923 -18.517 -23.615  0.00  0.00    +0.004 C 
ATOM     16  C   UNL     1      34.169 -15.856 -23.255  0.00  0.00    -0.004 C 
ATOM     17  C   UNL     1      33.913 -16.496 -24.468  0.00  0.00    -0.022 C 
ATOM     18  C   UNL     1      34.289 -17.827 -24.648  0.00  0.00    -0.004 C 
ATOM     19  C   UNL     1      33.236 -15.788 -25.598  0.00  0.00    +0.031 C 
BRANCH  13  22
ATOM     20  O   UNL     1      37.020 -18.349 -21.025  0.00  0.00    -0.270 OA
ATOM     21  N   UNL     1      35.094 -19.588 -20.671  0.00  0.00    -0.302 N 
ATOM     22  C   UNL     1      35.839 -18.600 -21.326  0.00  0.00    +0.246 C 
ATOM     23  H   UNL     1      34.163 -19.739 -20.957  0.00  0.00    +0.150 HD
BRANCH  21  24
ATOM     24  C   UNL     1      35.619 -20.395 -19.604  0.00  0.00    +0.072 C 
ATOM     25  C   UNL     1      34.872 -21.593 -19.096  0.00  0.00    +0.021 C 
ATOM     26  C   UNL     1      36.149 -21.774 -19.863  0.00  0.00    +0.021 C 
ENDBRANCH  21  24
ENDBRANCH  13  22
ENDBRANCH   4  16
BRANCH   1  27
ATOM     27  C   UNL     1      31.983  -7.828 -22.086  0.00  0.00    +0.075 C 
BRANCH  27  28
ATOM     28  C   UNL     1      32.588  -6.693 -21.270  0.00  0.00    -0.055 C 
BRANCH  28  30
ATOM     29  O   UNL     1      30.264  -3.804 -23.238  0.00  0.00    -0.358 OA
ATOM     30  N   UNL     1      32.070  -5.405 -21.729  0.00  0.00    +0.391 N 
ATOM     31  C   UNL     1      30.670  -5.229 -21.316  0.00  0.00    -0.045 C 
ATOM     32  C   UNL     1      32.183  -5.287 -23.189  0.00  0.00    -0.045 C 
ATOM     33  C   UNL     1      30.148  -3.886 -21.817  0.00  0.00    +0.119 C 
ATOM     34  C   UNL     1      31.627  -3.941 -23.645  0.00  0.00    +0.119 C 
ATOM     35  H   UNL     1      32.631  -4.671 -21.297  0.00  0.00    -0.079 HD
ENDBRANCH  28  30
ENDBRANCH  27  28
ENDBRANCH   1  27
TORSDOF 6
ENDMDL
MODEL 7
REMARK VINA RESULT:     -10.1      3.084      5.931
REMARK  Name = 24963046
REMARK  6 active torsions:
REMARK  status: ('A' for Active; 'I' for Inactive)
REMARK    1  A    between atoms: N_1  and  C_27
REMARK    2  A    between atoms: C_4  and  C_16
REMARK    3  A    between atoms: C_13  and  C_22
REMARK    4  A    between atoms: N_21  and  C_24
REMARK    5  A    between atoms: C_27  and  C_28
REMARK    6  A    between atoms: C_28  and  N_30
REMARK                            x       y       z     vdW  Elec       q    Type
REMARK                         _______ _______ _______ _____ _____    ______ ____
ROOT
ATOM      1  N   UNL     1      35.429 -18.697 -22.960  0.00  0.00    -0.270 N 
ATOM      2  N   UNL     1      34.450 -19.976 -21.285  0.00  0.00    -0.338 NA
ATOM      3  N   UNL     1      36.788 -19.398 -21.216  0.00  0.00    -0.170 NA
ATOM      4  C   UNL     1      34.810 -22.066 -17.696  0.00  0.00    -0.000 C 
ATOM      5  C   UNL     1      35.923 -21.436 -18.245  0.00  0.00    +0.004 C 
ATOM      6  C   UNL     1      35.805 -20.730 -19.456  0.00  0.00    +0.050 C 
ATOM      7  C   UNL     1      35.564 -19.388 -21.767  0.00  0.00    +0.145 C 
ATOM      8  C   UNL     1      33.586 -21.991 -18.352  0.00  0.00    +0.003 C 
ATOM      9  C   UNL     1      34.574 -20.648 -20.127  0.00  0.00    +0.146 C 
ATOM     10  C   UNL     1      33.477 -21.287 -19.554  0.00  0.00    +0.033 C 
ATOM     11  C   UNL     1      36.877 -20.079 -20.057  0.00  0.00    +0.114 C 
ATOM     12  H   UNL     1      36.226 -18.256 -23.334  0.00  0.00    +0.159 HD
ENDROOT
BRANCH   4  16
ATOM     13  C   UNL     1      33.862 -24.009 -14.656  0.00  0.00    +0.053 C 
ATOM     14  C   UNL     1      33.774 -23.303 -15.856  0.00  0.00    +0.004 C 
ATOM     15  C   UNL     1      35.103 -24.205 -14.052  0.00  0.00    +0.004 C 
ATOM     16  C   UNL     1      34.926 -22.793 -16.452  0.00  0.00    -0.004 C 
ATOM     17  C   UNL     1      36.169 -22.990 -15.847  0.00  0.00    -0.022 C 
ATOM     18  C   UNL     1      36.257 -23.696 -14.648  0.00  0.00    -0.004 C 
ATOM     19  C   UNL     1      37.427 -22.459 -16.457  0.00  0.00    +0.031 C 
BRANCH  13  22
ATOM     20  O   UNL     1      32.649 -24.839 -12.826  0.00  0.00    -0.270 OA
ATOM     21  N   UNL     1      31.540 -24.715 -14.856  0.00  0.00    -0.302 N 
ATOM     22  C   UNL     1      32.660 -24.541 -14.033  0.00  0.00    +0.246 C 
ATOM     23  H   UNL     1      31.613 -24.460 -15.805  0.00  0.00    +0.150 HD
BRANCH  21  24
ATOM     24  C   UNL     1      30.291 -25.250 -14.388  0.00  0.00    +0.072 C 
ATOM     25  C   UNL     1      29.204 -24.351 -13.877  0.00  0.00    +0.021 C 
ATOM     26  C   UNL     1      29.029 -25.078 -15.178  0.00  0.00    +0.021 C 
ENDBRANCH  21  24
ENDBRANCH  13  22
ENDBRANCH   4  16
BRANCH   1  27
ATOM     27  C   UNL     1      34.186 -18.584 -23.685  0.00  0.00    +0.075 C 
BRANCH  27  28
ATOM     28  C   UNL     1      34.309 -17.500 -24.748  0.00  0.00    -0.055 C 
BRANCH  28  30
ATOM     29  O   UNL     1      34.128 -13.417 -23.796  0.00  0.00    -0.358 OA
ATOM     30  N   UNL     1      33.849 -16.217 -24.222  0.00  0.00    +0.391 N 
ATOM     31  C   UNL     1      33.644 -15.250 -25.310  0.00  0.00    -0.045 C 
ATOM     32  C   UNL     1      34.805 -15.680 -23.244  0.00  0.00    -0.045 C 
ATOM     33  C   UNL     1      33.176 -13.916 -24.736  0.00  0.00    +0.119 C 
ATOM     34  C   UNL     1      34.308 -14.337 -22.718  0.00  0.00    +0.119 C 
ATOM     35  H   UNL     1      32.956 -16.374 -23.754  0.00  0.00    -0.079 HD
ENDBRANCH  28  30
ENDBRANCH  27  28
ENDBRANCH   1  27
TORSDOF 6
ENDMDL
MODEL 8
REMARK VINA RESULT:      -9.9      2.948     10.948
REMARK  Name = 24963046
REMARK  6 active torsions:
REMARK  status: ('A' for Active; 'I' for Inactive)
REMARK    1  A    between atoms: N_1  and  C_27
REMARK    2  A    between atoms: C_4  and  C_16
REMARK    3  A    between atoms: C_13  and  C_22
REMARK    4  A    between atoms: N_21  and  C_24
REMARK    5  A    between atoms: C_27  and  C_28
REMARK    6  A    between atoms: C_28  and  N_30
REMARK                            x       y       z     vdW  Elec       q    Type
REMARK                         _______ _______ _______ _____ _____    ______ ____
ROOT
ATOM      1  N   UNL     1      35.130 -23.387 -16.411  0.00  0.00    -0.270 N 
ATOM      2  N   UNL     1      34.099 -22.167 -18.100  0.00  0.00    -0.338 NA
ATOM      3  N   UNL     1      36.480 -22.049 -17.741  0.00  0.00    -0.170 NA
ATOM      4  C   UNL     1      34.394 -19.482 -21.275  0.00  0.00    -0.000 C 
ATOM      5  C   UNL     1      35.539 -19.860 -20.579  0.00  0.00    +0.004 C 
ATOM      6  C   UNL     1      35.443 -20.765 -19.507  0.00  0.00    +0.050 C 
ATOM      7  C   UNL     1      35.243 -22.494 -17.464  0.00  0.00    +0.145 C 
ATOM      8  C   UNL     1      33.161 -20.006 -20.903  0.00  0.00    +0.003 C 
ATOM      9  C   UNL     1      34.202 -21.300 -19.122  0.00  0.00    +0.146 C 
ATOM     10  C   UNL     1      33.074 -20.905 -19.837  0.00  0.00    +0.033 C 
ATOM     11  C   UNL     1      36.547 -21.183 -18.771  0.00  0.00    +0.114 C 
ATOM     12  H   UNL     1      35.950 -23.644 -15.930  0.00  0.00    +0.159 HD
ENDROOT
BRANCH   4  16
ATOM     13  C   UNL     1      34.429 -16.270 -23.172  0.00  0.00    +0.053 C 
ATOM     14  C   UNL     1      34.342 -17.187 -22.124  0.00  0.00    +0.004 C 
ATOM     15  C   UNL     1      34.663 -16.717 -24.472  0.00  0.00    +0.004 C 
ATOM     16  C   UNL     1      34.488 -18.550 -22.377  0.00  0.00    -0.004 C 
ATOM     17  C   UNL     1      34.721 -18.997 -23.678  0.00  0.00    -0.022 C 
ATOM     18  C   UNL     1      34.809 -18.080 -24.726  0.00  0.00    -0.004 C 
ATOM     19  C   UNL     1      34.884 -20.452 -23.988  0.00  0.00    +0.031 C 
BRANCH  13  22
ATOM     20  O   UNL     1      34.887 -14.007 -23.594  0.00  0.00    -0.270 OA
ATOM     21  N   UNL     1      33.439 -14.481 -21.849  0.00  0.00    -0.302 N 
ATOM     22  C   UNL     1      34.277 -14.847 -22.909  0.00  0.00    +0.246 C 
ATOM     23  H   UNL     1      32.984 -15.195 -21.344  0.00  0.00    +0.150 HD
BRANCH  21  24
ATOM     24  C   UNL     1      33.209 -13.118 -21.459  0.00  0.00    +0.072 C 
ATOM     25  C   UNL     1      31.911 -12.430 -21.767  0.00  0.00    +0.021 C 
ATOM     26  C   UNL     1      32.259 -12.778 -20.349  0.00  0.00    +0.021 C 
ENDBRANCH  21  24
ENDBRANCH  13  22
ENDBRANCH   4  16
BRANCH   1  27
ATOM     27  C   UNL     1      33.878 -23.963 -15.980  0.00  0.00    +0.075 C 
BRANCH  27  28
ATOM     28  C   UNL     1      33.449 -23.328 -14.663  0.00  0.00    -0.055 C 
BRANCH  28  30
ATOM     29  O   UNL     1      29.451 -24.533 -15.094  0.00  0.00    -0.358 OA
ATOM     30  N   UNL     1      31.996 -23.397 -14.516  0.00  0.00    +0.391 N 
ATOM     31  C   UNL     1      31.590 -24.695 -13.958  0.00  0.00    -0.045 C 
ATOM     32  C   UNL     1      31.329 -23.172 -15.806  0.00  0.00    -0.045 C 
ATOM     33  C   UNL     1      30.071 -24.748 -13.825  0.00  0.00    +0.119 C 
ATOM     34  C   UNL     1      29.816 -23.259 -15.628  0.00  0.00    +0.119 C 
ATOM     35  H   UNL     1      31.713 -22.661 -13.868  0.00  0.00    -0.079 HD
ENDBRANCH  28  30
ENDBRANCH  27  28
ENDBRANCH   1  27
TORSDOF 6
ENDMDL
MODEL 9
REMARK VINA RESULT:      -9.7      3.209     11.638
REMARK  Name = 24963046
REMARK  6 active torsions:
REMARK  status: ('A' for Active; 'I' for Inactive)
REMARK    1  A    between atoms: N_1  and  C_27
REMARK    2  A    between atoms: C_4  and  C_16
REMARK    3  A    between atoms: C_13  and  C_22
REMARK    4  A    between atoms: N_21  and  C_24
REMARK    5  A    between atoms: C_27  and  C_28
REMARK    6  A    between atoms: C_28  and  N_30
REMARK                            x       y       z     vdW  Elec       q    Type
REMARK                         _______ _______ _______ _____ _____    ______ ____
ROOT
ATOM      1  N   UNL     1      33.635 -15.533 -25.523  0.00  0.00    -0.270 N 
ATOM      2  N   UNL     1      32.886 -14.181 -23.788  0.00  0.00    -0.338 NA
ATOM      3  N   UNL     1      33.995 -13.250 -25.714  0.00  0.00    -0.170 NA
ATOM      4  C   UNL     1      32.459 -10.380 -22.133  0.00  0.00    -0.000 C 
ATOM      5  C   UNL     1      33.083 -10.531 -23.367  0.00  0.00    +0.004 C 
ATOM      6  C   UNL     1      33.230 -11.812 -23.928  0.00  0.00    +0.050 C 
ATOM      7  C   UNL     1      33.501 -14.264 -24.986  0.00  0.00    +0.145 C 
ATOM      8  C   UNL     1      31.981 -11.501 -21.463  0.00  0.00    +0.003 C 
ATOM      9  C   UNL     1      32.752 -12.952 -23.261  0.00  0.00    +0.146 C 
ATOM     10  C   UNL     1      32.130 -12.771 -22.028  0.00  0.00    +0.033 C 
ATOM     11  C   UNL     1      33.844 -12.033 -25.157  0.00  0.00    +0.114 C 
ATOM     12  H   UNL     1      34.080 -15.623 -26.398  0.00  0.00    +0.159 HD
ENDROOT
BRANCH   4  16
ATOM     13  C   UNL     1      32.232  -6.667 -21.843  0.00  0.00    +0.053 C 
ATOM     14  C   UNL     1      32.376  -7.946 -22.382  0.00  0.00    +0.004 C 
ATOM     15  C   UNL     1      32.019  -6.507 -20.475  0.00  0.00    +0.004 C 
ATOM     16  C   UNL     1      32.307  -9.064 -21.552  0.00  0.00    -0.004 C 
ATOM     17  C   UNL     1      32.094  -8.903 -20.182  0.00  0.00    -0.022 C 
ATOM     18  C   UNL     1      31.949  -7.625 -19.643  0.00  0.00    -0.004 C 
ATOM     19  C   UNL     1      32.013 -10.079 -19.260  0.00  0.00    +0.031 C 
BRANCH  13  22
ATOM     20  O   UNL     1      32.994  -5.520 -23.743  0.00  0.00    -0.270 OA
ATOM     21  N   UNL     1      31.584  -4.367 -22.311  0.00  0.00    -0.302 N 
ATOM     22  C   UNL     1      32.304  -5.500 -22.709  0.00  0.00    +0.246 C 
ATOM     23  H   UNL     1      31.056  -4.416 -21.481  0.00  0.00    +0.150 HD
BRANCH  21  24
ATOM     24  C   UNL     1      31.576  -3.136 -23.053  0.00  0.00    +0.072 C 
ATOM     25  C   UNL     1      30.576  -2.893 -24.145  0.00  0.00    +0.021 C 
ATOM     26  C   UNL     1      30.489  -2.122 -22.860  0.00  0.00    +0.021 C 
ENDBRANCH  21  24
ENDBRANCH  13  22
ENDBRANCH   4  16
BRANCH   1  27
ATOM     27  C   UNL     1      33.160 -16.733 -24.876  0.00  0.00    +0.075 C 
BRANCH  27  28
ATOM     28  C   UNL     1      34.340 -17.639 -24.547  0.00  0.00    -0.055 C 
BRANCH  28  30
ATOM     29  O   UNL     1      35.688 -18.722 -20.722  0.00  0.00    -0.358 OA
ATOM     30  N   UNL     1      34.361 -17.948 -23.118  0.00  0.00    +0.391 N 
ATOM     31  C   UNL     1      35.247 -17.022 -22.398  0.00  0.00    -0.045 C 
ATOM     32  C   UNL     1      34.788 -19.335 -22.890  0.00  0.00    -0.045 C 
ATOM     33  C   UNL     1      35.263 -17.372 -20.913  0.00  0.00    +0.119 C 
ATOM     34  C   UNL     1      34.812 -19.629 -21.393  0.00  0.00    +0.119 C 
ATOM     35  H   UNL     1      33.412 -17.834 -22.761  0.00  0.00    -0.079 HD
ENDBRANCH  28  30
ENDBRANCH  27  28
ENDBRANCH   1  27
TORSDOF 6
ENDMDL
