MODEL 1
REMARK VINA RESULT:     -11.5      0.000      0.000
REMARK  Name = 17754438
REMARK  6 active torsions:
REMARK  status: ('A' for Active; 'I' for Inactive)
REMARK    1  A    between atoms: N_1  and  C_19
REMARK    2  A    between atoms: C_7  and  C_12
REMARK    3  A    between atoms: N_10  and  C_15
REMARK    4  A    between atoms: C_15  and  C_16
REMARK    5  A    between atoms: C_16  and  O_17
REMARK    6  A    between atoms: C_19  and  C_21
REMARK                            x       y       z     vdW  Elec       q    Type
REMARK                         _______ _______ _______ _____ _____    ______ ____
ROOT
ATOM      1  N   UNL     1      34.530 -20.452 -20.208  0.00  0.00    -0.163 N 
ATOM      2  N   UNL     1      35.570 -21.565 -18.298  0.00  0.00    -0.378 NA
ATOM      3  N   UNL     1      33.291 -20.381 -20.733  0.00  0.00    -0.033 NA
ATOM      4  N   UNL     1      32.841 -22.478 -17.968  0.00  0.00    -0.208 NA
ATOM      5  N   UNL     1      32.484 -21.124 -19.977  0.00  0.00    -0.086 NA
ATOM      6  C   UNL     1      34.547 -21.242 -19.102  0.00  0.00    +0.267 C 
ATOM      7  C   UNL     1      35.163 -22.383 -17.300  0.00  0.00    +0.140 C 
ATOM      8  C   UNL     1      33.236 -21.659 -18.972  0.00  0.00    +0.098 C 
ATOM      9  C   UNL     1      33.855 -22.820 -17.141  0.00  0.00    +0.195 C 
ENDROOT
BRANCH   7  12
ATOM     10  N   UNL     1      37.189 -23.829 -14.738  0.00  0.00    -0.208 N 
ATOM     11  N   UNL     1      38.147 -23.027 -15.236  0.00  0.00    -0.176 NA
ATOM     12  C   UNL     1      36.181 -22.793 -16.376  0.00  0.00    +0.064 C 
ATOM     13  C   UNL     1      35.993 -23.726 -15.385  0.00  0.00    +0.088 C 
ATOM     14  C   UNL     1      37.524 -22.397 -16.236  0.00  0.00    +0.121 C 
BRANCH  10  15
ATOM     15  C   UNL     1      37.487 -24.691 -13.619  0.00  0.00    +0.148 C 
BRANCH  15  16
ATOM     16  C   UNL     1      37.928 -26.081 -14.055  0.00  0.00    +0.161 C 
BRANCH  16  17
ATOM     17  O   UNL     1      38.924 -25.974 -15.064  0.00  0.00    -0.380 OA
ATOM     18  H   UNL     1      39.569 -25.295 -14.812  0.00  0.00    +0.211 HD
ENDBRANCH  16  17
ENDBRANCH  15  16
ENDBRANCH  10  15
ENDBRANCH   7  12
BRANCH   1  19
ATOM     19  C   UNL     1      35.647 -19.730 -20.827  0.00  0.00    +0.145 C 
BRANCH  19  21
ATOM     20  N   UNL     1      33.935 -16.586 -25.210  0.00  0.00    -0.244 NA
ATOM     21  C   UNL     1      35.198 -18.893 -21.977  0.00  0.00    -0.000 C 
ATOM     22  C   UNL     1      35.122 -17.509 -21.847  0.00  0.00    -0.001 C 
ATOM     23  C   UNL     1      34.698 -16.717 -22.929  0.00  0.00    +0.017 C 
ATOM     24  C   UNL     1      34.851 -19.490 -23.182  0.00  0.00    -0.001 C 
ATOM     25  C   UNL     1      34.345 -17.316 -24.155  0.00  0.00    +0.081 C 
ATOM     26  C   UNL     1      34.430 -18.702 -24.256  0.00  0.00    +0.019 C 
ATOM     27  C   UNL     1      34.613 -15.322 -22.825  0.00  0.00    +0.003 C 
ATOM     28  C   UNL     1      34.191 -14.567 -23.911  0.00  0.00    +0.021 C 
ATOM     29  C   UNL     1      33.867 -15.242 -25.070  0.00  0.00    +0.099 C 
ENDBRANCH  19  21
ENDBRANCH   1  19
TORSDOF 6
ENDMDL
MODEL 2
REMARK VINA RESULT:     -11.5      2.752      4.312
REMARK  Name = 17754438
REMARK  6 active torsions:
REMARK  status: ('A' for Active; 'I' for Inactive)
REMARK    1  A    between atoms: N_1  and  C_19
REMARK    2  A    between atoms: C_7  and  C_12
REMARK    3  A    between atoms: N_10  and  C_15
REMARK    4  A    between atoms: C_15  and  C_16
REMARK    5  A    between atoms: C_16  and  O_17
REMARK    6  A    between atoms: C_19  and  C_21
REMARK                            x       y       z     vdW  Elec       q    Type
REMARK                         _______ _______ _______ _____ _____    ______ ____
ROOT
ATOM      1  N   UNL     1      32.976 -23.200 -17.287  0.00  0.00    -0.163 N 
ATOM      2  N   UNL     1      34.747 -24.322 -16.032  0.00  0.00    -0.378 NA
ATOM      3  N   UNL     1      31.826 -22.564 -16.986  0.00  0.00    -0.033 NA
ATOM      4  N   UNL     1      33.028 -23.522 -13.842  0.00  0.00    -0.208 NA
ATOM      5  N   UNL     1      31.679 -22.593 -15.661  0.00  0.00    -0.086 NA
ATOM      6  C   UNL     1      33.594 -23.650 -16.163  0.00  0.00    +0.267 C 
ATOM      7  C   UNL     1      35.010 -24.583 -14.731  0.00  0.00    +0.140 C 
ATOM      8  C   UNL     1      32.753 -23.253 -15.141  0.00  0.00    +0.098 C 
ATOM      9  C   UNL     1      34.187 -24.200 -13.681  0.00  0.00    +0.195 C 
ENDROOT
BRANCH   7  12
ATOM     10  N   UNL     1      38.272 -25.745 -13.853  0.00  0.00    -0.208 N 
ATOM     11  N   UNL     1      37.819 -26.929 -14.301  0.00  0.00    -0.176 NA
ATOM     12  C   UNL     1      36.225 -25.302 -14.473  0.00  0.00    +0.064 C 
ATOM     13  C   UNL     1      37.356 -24.738 -13.934  0.00  0.00    +0.088 C 
ATOM     14  C   UNL     1      36.568 -26.652 -14.679  0.00  0.00    +0.121 C 
BRANCH  10  15
ATOM     15  C   UNL     1      39.619 -25.639 -13.344  0.00  0.00    +0.148 C 
BRANCH  15  16
ATOM     16  C   UNL     1      40.650 -26.233 -14.295  0.00  0.00    +0.161 C 
BRANCH  16  17
ATOM     17  O   UNL     1      40.291 -25.935 -15.638  0.00  0.00    -0.380 OA
ATOM     18  H   UNL     1      39.961 -25.025 -15.690  0.00  0.00    +0.211 HD
ENDBRANCH  16  17
ENDBRANCH  15  16
ENDBRANCH  10  15
ENDBRANCH   7  12
BRANCH   1  19
ATOM     19  C   UNL     1      33.414 -23.333 -18.680  0.00  0.00    +0.145 C 
BRANCH  19  21
ATOM     20  N   UNL     1      37.051 -19.247 -20.132  0.00  0.00    -0.244 NA
ATOM     21  C   UNL     1      34.365 -22.251 -19.069  0.00  0.00    -0.000 C 
ATOM     22  C   UNL     1      34.002 -21.310 -20.028  0.00  0.00    -0.001 C 
ATOM     23  C   UNL     1      34.896 -20.290 -20.397  0.00  0.00    +0.017 C 
ATOM     24  C   UNL     1      35.621 -22.179 -18.477  0.00  0.00    -0.001 C 
ATOM     25  C   UNL     1      36.171 -20.211 -19.801  0.00  0.00    +0.081 C 
ATOM     26  C   UNL     1      36.508 -21.165 -18.845  0.00  0.00    +0.019 C 
ATOM     27  C   UNL     1      34.555 -19.330 -21.359  0.00  0.00    +0.003 C 
ATOM     28  C   UNL     1      35.460 -18.335 -21.703  0.00  0.00    +0.021 C 
ATOM     29  C   UNL     1      36.683 -18.339 -21.065  0.00  0.00    +0.099 C 
ENDBRANCH  19  21
ENDBRANCH   1  19
TORSDOF 6
ENDMDL
MODEL 3
REMARK VINA RESULT:     -11.3      2.690      4.235
REMARK  Name = 17754438
REMARK  6 active torsions:
REMARK  status: ('A' for Active; 'I' for Inactive)
REMARK    1  A    between atoms: N_1  and  C_19
REMARK    2  A    between atoms: C_7  and  C_12
REMARK    3  A    between atoms: N_10  and  C_15
REMARK    4  A    between atoms: C_15  and  C_16
REMARK    5  A    between atoms: C_16  and  O_17
REMARK    6  A    between atoms: C_19  and  C_21
REMARK                            x       y       z     vdW  Elec       q    Type
REMARK                         _______ _______ _______ _____ _____    ______ ____
ROOT
ATOM      1  N   UNL     1      33.175 -23.386 -17.193  0.00  0.00    -0.163 N 
ATOM      2  N   UNL     1      34.738 -24.136 -15.470  0.00  0.00    -0.378 NA
ATOM      3  N   UNL     1      31.916 -22.905 -17.218  0.00  0.00    -0.033 NA
ATOM      4  N   UNL     1      32.476 -23.431 -13.804  0.00  0.00    -0.208 NA
ATOM      5  N   UNL     1      31.474 -22.853 -15.962  0.00  0.00    -0.086 NA
ATOM      6  C   UNL     1      33.571 -23.653 -15.920  0.00  0.00    +0.267 C 
ATOM      7  C   UNL     1      34.727 -24.255 -14.123  0.00  0.00    +0.140 C 
ATOM      8  C   UNL     1      32.475 -23.307 -15.153  0.00  0.00    +0.098 C 
ATOM      9  C   UNL     1      33.643 -23.917 -13.324  0.00  0.00    +0.195 C 
ENDROOT
BRANCH   7  12
ATOM     10  N   UNL     1      37.947 -25.581 -13.326  0.00  0.00    -0.208 N 
ATOM     11  N   UNL     1      37.522 -25.475 -12.055  0.00  0.00    -0.176 NA
ATOM     12  C   UNL     1      35.931 -24.765 -13.532  0.00  0.00    +0.064 C 
ATOM     13  C   UNL     1      37.031 -25.169 -14.249  0.00  0.00    +0.088 C 
ATOM     14  C   UNL     1      36.290 -24.976 -12.188  0.00  0.00    +0.121 C 
BRANCH  10  15
ATOM     15  C   UNL     1      39.269 -26.092 -13.599  0.00  0.00    +0.148 C 
BRANCH  15  16
ATOM     16  C   UNL     1      40.018 -25.253 -14.626  0.00  0.00    +0.161 C 
BRANCH  16  17
ATOM     17  O   UNL     1      40.438 -26.078 -15.705  0.00  0.00    -0.380 OA
ATOM     18  H   UNL     1      41.228 -26.575 -15.444  0.00  0.00    +0.211 HD
ENDBRANCH  16  17
ENDBRANCH  15  16
ENDBRANCH  10  15
ENDBRANCH   7  12
BRANCH   1  19
ATOM     19  C   UNL     1      33.935 -23.560 -18.436  0.00  0.00    +0.145 C 
BRANCH  19  21
ATOM     20  N   UNL     1      34.608 -18.652 -21.171  0.00  0.00    -0.244 NA
ATOM     21  C   UNL     1      34.122 -22.268 -19.157  0.00  0.00    -0.000 C 
ATOM     22  C   UNL     1      35.403 -21.767 -19.373  0.00  0.00    -0.001 C 
ATOM     23  C   UNL     1      35.583 -20.549 -20.051  0.00  0.00    +0.017 C 
ATOM     24  C   UNL     1      33.020 -21.557 -19.614  0.00  0.00    -0.001 C 
ATOM     25  C   UNL     1      34.469 -19.822 -20.519  0.00  0.00    +0.081 C 
ATOM     26  C   UNL     1      33.201 -20.346 -20.288  0.00  0.00    +0.019 C 
ATOM     27  C   UNL     1      36.861 -20.022 -20.283  0.00  0.00    +0.003 C 
ATOM     28  C   UNL     1      37.007 -18.817 -20.955  0.00  0.00    +0.021 C 
ATOM     29  C   UNL     1      35.858 -18.178 -21.375  0.00  0.00    +0.099 C 
ENDBRANCH  19  21
ENDBRANCH   1  19
TORSDOF 6
ENDMDL
MODEL 4
REMARK VINA RESULT:     -11.3      1.468      2.060
REMARK  Name = 17754438
REMARK  6 active torsions:
REMARK  status: ('A' for Active; 'I' for Inactive)
REMARK    1  A    between atoms: N_1  and  C_19
REMARK    2  A    between atoms: C_7  and  C_12
REMARK    3  A    between atoms: N_10  and  C_15
REMARK    4  A    between atoms: C_15  and  C_16
REMARK    5  A    between atoms: C_16  and  O_17
REMARK    6  A    between atoms: C_19  and  C_21
REMARK                            x       y       z     vdW  Elec       q    Type
REMARK                         _______ _______ _______ _____ _____    ______ ____
ROOT
ATOM      1  N   UNL     1      34.720 -21.256 -19.495  0.00  0.00    -0.163 N 
ATOM      2  N   UNL     1      35.664 -22.250 -17.472  0.00  0.00    -0.378 NA
ATOM      3  N   UNL     1      33.491 -21.144 -20.039  0.00  0.00    -0.033 NA
ATOM      4  N   UNL     1      32.872 -22.919 -17.087  0.00  0.00    -0.208 NA
ATOM      5  N   UNL     1      32.627 -21.747 -19.223  0.00  0.00    -0.086 NA
ATOM      6  C   UNL     1      34.672 -21.932 -18.317  0.00  0.00    +0.267 C 
ATOM      7  C   UNL     1      35.191 -22.932 -16.404  0.00  0.00    +0.140 C 
ATOM      8  C   UNL     1      33.332 -22.235 -18.162  0.00  0.00    +0.098 C 
ATOM      9  C   UNL     1      33.853 -23.253 -16.219  0.00  0.00    +0.195 C 
ENDROOT
BRANCH   7  12
ATOM     10  N   UNL     1      37.080 -24.224 -13.661  0.00  0.00    -0.208 N 
ATOM     11  N   UNL     1      38.117 -23.630 -14.275  0.00  0.00    -0.176 NA
ATOM     12  C   UNL     1      36.170 -23.325 -15.432  0.00  0.00    +0.064 C 
ATOM     13  C   UNL     1      35.891 -24.071 -14.313  0.00  0.00    +0.088 C 
ATOM     14  C   UNL     1      37.555 -23.082 -15.357  0.00  0.00    +0.121 C 
BRANCH  10  15
ATOM     15  C   UNL     1      37.294 -24.942 -12.427  0.00  0.00    +0.148 C 
BRANCH  15  16
ATOM     16  C   UNL     1      37.314 -24.023 -11.213  0.00  0.00    +0.161 C 
BRANCH  16  17
ATOM     17  O   UNL     1      38.484 -23.216 -11.242  0.00  0.00    -0.380 OA
ATOM     18  H   UNL     1      38.625 -22.884 -12.142  0.00  0.00    +0.211 HD
ENDBRANCH  16  17
ENDBRANCH  15  16
ENDBRANCH  10  15
ENDBRANCH   7  12
BRANCH   1  19
ATOM     19  C   UNL     1      35.891 -20.684 -20.168  0.00  0.00    +0.145 C 
BRANCH  19  21
ATOM     20  N   UNL     1      34.537 -16.194 -23.334  0.00  0.00    -0.244 NA
ATOM     21  C   UNL     1      35.529 -19.507 -21.009  0.00  0.00    -0.000 C 
ATOM     22  C   UNL     1      34.904 -19.691 -22.239  0.00  0.00    -0.001 C 
ATOM     23  C   UNL     1      34.562 -18.584 -23.035  0.00  0.00    +0.017 C 
ATOM     24  C   UNL     1      35.816 -18.220 -20.570  0.00  0.00    -0.001 C 
ATOM     25  C   UNL     1      34.850 -17.276 -22.596  0.00  0.00    +0.081 C 
ATOM     26  C   UNL     1      35.476 -17.121 -21.362  0.00  0.00    +0.019 C 
ATOM     27  C   UNL     1      33.931 -18.741 -24.276  0.00  0.00    +0.003 C 
ATOM     28  C   UNL     1      33.607 -17.628 -25.039  0.00  0.00    +0.021 C 
ATOM     29  C   UNL     1      33.928 -16.388 -24.527  0.00  0.00    +0.099 C 
ENDBRANCH  19  21
ENDBRANCH   1  19
TORSDOF 6
ENDMDL
MODEL 5
REMARK VINA RESULT:     -10.8      4.468      6.947
REMARK  Name = 17754438
REMARK  6 active torsions:
REMARK  status: ('A' for Active; 'I' for Inactive)
REMARK    1  A    between atoms: N_1  and  C_19
REMARK    2  A    between atoms: C_7  and  C_12
REMARK    3  A    between atoms: N_10  and  C_15
REMARK    4  A    between atoms: C_15  and  C_16
REMARK    5  A    between atoms: C_16  and  O_17
REMARK    6  A    between atoms: C_19  and  C_21
REMARK                            x       y       z     vdW  Elec       q    Type
REMARK                         _______ _______ _______ _____ _____    ______ ____
ROOT
ATOM      1  N   UNL     1      34.159 -23.293 -17.067  0.00  0.00    -0.163 N 
ATOM      2  N   UNL     1      31.773 -23.353 -16.543  0.00  0.00    -0.378 NA
ATOM      3  N   UNL     1      35.303 -23.146 -16.368  0.00  0.00    -0.033 NA
ATOM      4  N   UNL     1      32.847 -22.962 -13.881  0.00  0.00    -0.208 NA
ATOM      5  N   UNL     1      34.980 -23.002 -15.083  0.00  0.00    -0.086 NA
ATOM      6  C   UNL     1      33.077 -23.247 -16.246  0.00  0.00    +0.267 C 
ATOM      7  C   UNL     1      31.012 -23.253 -15.428  0.00  0.00    +0.140 C 
ATOM      8  C   UNL     1      33.621 -23.061 -14.989  0.00  0.00    +0.098 C 
ATOM      9  C   UNL     1      31.527 -23.066 -14.153  0.00  0.00    +0.195 C 
ENDROOT
BRANCH   7  12
ATOM     10  N   UNL     1      27.497 -22.794 -15.867  0.00  0.00    -0.208 N 
ATOM     11  N   UNL     1      27.478 -24.132 -15.987  0.00  0.00    -0.176 NA
ATOM     12  C   UNL     1      29.596 -23.353 -15.630  0.00  0.00    +0.064 C 
ATOM     13  C   UNL     1      28.741 -22.277 -15.652  0.00  0.00    +0.088 C 
ATOM     14  C   UNL     1      28.763 -24.468 -15.841  0.00  0.00    +0.121 C 
BRANCH  10  15
ATOM     15  C   UNL     1      26.266 -22.047 -15.973  0.00  0.00    +0.148 C 
BRANCH  15  16
ATOM     16  C   UNL     1      25.989 -21.577 -17.395  0.00  0.00    +0.161 C 
BRANCH  16  17
ATOM     17  O   UNL     1      25.932 -20.157 -17.428  0.00  0.00    -0.380 OA
ATOM     18  H   UNL     1      26.598 -19.821 -18.047  0.00  0.00    +0.211 HD
ENDBRANCH  16  17
ENDBRANCH  15  16
ENDBRANCH  10  15
ENDBRANCH   7  12
BRANCH   1  19
ATOM     19  C   UNL     1      34.189 -23.475 -18.522  0.00  0.00    +0.145 C 
BRANCH  19  21
ATOM     20  N   UNL     1      34.611 -18.535 -21.250  0.00  0.00    -0.244 NA
ATOM     21  C   UNL     1      34.311 -22.174 -19.241  0.00  0.00    -0.000 C 
ATOM     22  C   UNL     1      35.567 -21.637 -19.509  0.00  0.00    -0.001 C 
ATOM     23  C   UNL     1      35.685 -20.411 -20.186  0.00  0.00    +0.017 C 
ATOM     24  C   UNL     1      33.171 -21.490 -19.646  0.00  0.00    -0.001 C 
ATOM     25  C   UNL     1      34.533 -19.712 -20.600  0.00  0.00    +0.081 C 
ATOM     26  C   UNL     1      33.289 -20.272 -20.319  0.00  0.00    +0.019 C 
ATOM     27  C   UNL     1      36.937 -19.848 -20.469  0.00  0.00    +0.003 C 
ATOM     28  C   UNL     1      37.021 -18.635 -21.138  0.00  0.00    +0.021 C 
ATOM     29  C   UNL     1      35.838 -18.025 -21.504  0.00  0.00    +0.099 C 
ENDBRANCH  19  21
ENDBRANCH   1  19
TORSDOF 6
ENDMDL
MODEL 6
REMARK VINA RESULT:     -10.7      4.432     10.125
REMARK  Name = 17754438
REMARK  6 active torsions:
REMARK  status: ('A' for Active; 'I' for Inactive)
REMARK    1  A    between atoms: N_1  and  C_19
REMARK    2  A    between atoms: C_7  and  C_12
REMARK    3  A    between atoms: N_10  and  C_15
REMARK    4  A    between atoms: C_15  and  C_16
REMARK    5  A    between atoms: C_16  and  O_17
REMARK    6  A    between atoms: C_19  and  C_21
REMARK                            x       y       z     vdW  Elec       q    Type
REMARK                         _______ _______ _______ _____ _____    ______ ____
ROOT
ATOM      1  N   UNL     1      35.095 -18.845 -22.873  0.00  0.00    -0.163 N 
ATOM      2  N   UNL     1      34.445 -16.490 -22.852  0.00  0.00    -0.378 NA
ATOM      3  N   UNL     1      34.997 -19.872 -23.741  0.00  0.00    -0.033 NA
ATOM      4  N   UNL     1      33.482 -17.239 -25.479  0.00  0.00    -0.208 NA
ATOM      5  N   UNL     1      34.382 -19.423 -24.835  0.00  0.00    -0.086 NA
ATOM      6  C   UNL     1      34.547 -17.714 -23.390  0.00  0.00    +0.267 C 
ATOM      7  C   UNL     1      33.827 -15.637 -23.701  0.00  0.00    +0.140 C 
ATOM      8  C   UNL     1      34.099 -18.103 -24.638  0.00  0.00    +0.098 C 
ATOM      9  C   UNL     1      33.365 -15.996 -24.960  0.00  0.00    +0.195 C 
ENDROOT
BRANCH   7  12
ATOM     10  N   UNL     1      33.570 -12.112 -23.188  0.00  0.00    -0.208 N 
ATOM     11  N   UNL     1      33.284 -12.457 -21.920  0.00  0.00    -0.176 NA
ATOM     12  C   UNL     1      33.663 -14.294 -23.226  0.00  0.00    +0.064 C 
ATOM     13  C   UNL     1      33.805 -13.175 -24.010  0.00  0.00    +0.088 C 
ATOM     14  C   UNL     1      33.343 -13.792 -21.950  0.00  0.00    +0.121 C 
BRANCH  10  15
ATOM     15  C   UNL     1      33.600 -10.718 -23.560  0.00  0.00    +0.148 C 
BRANCH  15  16
ATOM     16  C   UNL     1      34.786 -10.378 -24.454  0.00  0.00    +0.161 C 
BRANCH  16  17
ATOM     17  O   UNL     1      35.642  -9.460 -23.786  0.00  0.00    -0.380 OA
ATOM     18  H   UNL     1      36.301  -9.120 -24.410  0.00  0.00    +0.211 HD
ENDBRANCH  16  17
ENDBRANCH  15  16
ENDBRANCH  10  15
ENDBRANCH   7  12
BRANCH   1  19
ATOM     19  C   UNL     1      35.732 -19.031 -21.565  0.00  0.00    +0.145 C 
BRANCH  19  21
ATOM     20  N   UNL     1      32.621 -22.347 -18.197  0.00  0.00    -0.244 NA
ATOM     21  C   UNL     1      34.921 -19.907 -20.672  0.00  0.00    -0.000 C 
ATOM     22  C   UNL     1      35.542 -20.676 -19.692  0.00  0.00    -0.001 C 
ATOM     23  C   UNL     1      34.781 -21.503 -18.849  0.00  0.00    +0.017 C 
ATOM     24  C   UNL     1      33.540 -19.962 -20.814  0.00  0.00    -0.001 C 
ATOM     25  C   UNL     1      33.379 -21.564 -18.987  0.00  0.00    +0.081 C 
ATOM     26  C   UNL     1      32.783 -20.784 -19.975  0.00  0.00    +0.019 C 
ATOM     27  C   UNL     1      35.381 -22.287 -17.855  0.00  0.00    +0.003 C 
ATOM     28  C   UNL     1      34.602 -23.095 -17.038  0.00  0.00    +0.021 C 
ATOM     29  C   UNL     1      33.239 -23.088 -17.249  0.00  0.00    +0.099 C 
ENDBRANCH  19  21
ENDBRANCH   1  19
TORSDOF 6
ENDMDL
MODEL 7
REMARK VINA RESULT:     -10.6      4.674     10.313
REMARK  Name = 17754438
REMARK  6 active torsions:
REMARK  status: ('A' for Active; 'I' for Inactive)
REMARK    1  A    between atoms: N_1  and  C_19
REMARK    2  A    between atoms: C_7  and  C_12
REMARK    3  A    between atoms: N_10  and  C_15
REMARK    4  A    between atoms: C_15  and  C_16
REMARK    5  A    between atoms: C_16  and  O_17
REMARK    6  A    between atoms: C_19  and  C_21
REMARK                            x       y       z     vdW  Elec       q    Type
REMARK                         _______ _______ _______ _____ _____    ______ ____
ROOT
ATOM      1  N   UNL     1      35.221 -17.863 -23.108  0.00  0.00    -0.163 N 
ATOM      2  N   UNL     1      34.431 -15.552 -23.198  0.00  0.00    -0.378 NA
ATOM      3  N   UNL     1      35.029 -18.983 -23.833  0.00  0.00    -0.033 NA
ATOM      4  N   UNL     1      33.043 -16.632 -25.500  0.00  0.00    -0.208 NA
ATOM      5  N   UNL     1      34.191 -18.687 -24.827  0.00  0.00    -0.086 NA
ATOM      6  C   UNL     1      34.511 -16.822 -23.620  0.00  0.00    +0.267 C 
ATOM      7  C   UNL     1      33.609 -14.828 -23.993  0.00  0.00    +0.140 C 
ATOM      8  C   UNL     1      33.864 -17.368 -24.712  0.00  0.00    +0.098 C 
ATOM      9  C   UNL     1      32.944 -15.345 -25.095  0.00  0.00    +0.195 C 
ENDROOT
BRANCH   7  12
ATOM     10  N   UNL     1      32.793 -11.651 -22.578  0.00  0.00    -0.208 N 
ATOM     11  N   UNL     1      33.583 -11.170 -23.553  0.00  0.00    -0.176 NA
ATOM     12  C   UNL     1      33.449 -13.449 -23.631  0.00  0.00    +0.064 C 
ATOM     13  C   UNL     1      32.679 -13.011 -22.581  0.00  0.00    +0.088 C 
ATOM     14  C   UNL     1      33.981 -12.273 -24.193  0.00  0.00    +0.121 C 
BRANCH  10  15
ATOM     15  C   UNL     1      32.162 -10.741 -21.652  0.00  0.00    +0.148 C 
BRANCH  15  16
ATOM     16  C   UNL     1      31.889  -9.376 -22.269  0.00  0.00    +0.161 C 
BRANCH  16  17
ATOM     17  O   UNL     1      32.991  -8.511 -22.027  0.00  0.00    -0.380 OA
ATOM     18  H   UNL     1      33.336  -8.670 -21.135  0.00  0.00    +0.211 HD
ENDBRANCH  16  17
ENDBRANCH  15  16
ENDBRANCH  10  15
ENDBRANCH   7  12
BRANCH   1  19
ATOM     19  C   UNL     1      36.103 -17.872 -21.936  0.00  0.00    +0.145 C 
BRANCH  19  21
ATOM     20  N   UNL     1      35.160 -22.335 -18.587  0.00  0.00    -0.244 NA
ATOM     21  C   UNL     1      35.844 -19.048 -21.056  0.00  0.00    -0.000 C 
ATOM     22  C   UNL     1      34.538 -19.445 -20.784  0.00  0.00    -0.001 C 
ATOM     23  C   UNL     1      34.291 -20.553 -19.954  0.00  0.00    +0.017 C 
ATOM     24  C   UNL     1      36.906 -19.751 -20.500  0.00  0.00    -0.001 C 
ATOM     25  C   UNL     1      35.363 -21.271 -19.387  0.00  0.00    +0.081 C 
ATOM     26  C   UNL     1      36.659 -20.851 -19.675  0.00  0.00    +0.019 C 
ATOM     27  C   UNL     1      32.986 -20.974 -19.666  0.00  0.00    +0.003 C 
ATOM     28  C   UNL     1      32.774 -22.071 -18.842  0.00  0.00    +0.021 C 
ATOM     29  C   UNL     1      33.886 -22.711 -18.333  0.00  0.00    +0.099 C 
ENDBRANCH  19  21
ENDBRANCH   1  19
TORSDOF 6
ENDMDL
MODEL 8
REMARK VINA RESULT:     -10.5      3.339      6.645
REMARK  Name = 17754438
REMARK  6 active torsions:
REMARK  status: ('A' for Active; 'I' for Inactive)
REMARK    1  A    between atoms: N_1  and  C_19
REMARK    2  A    between atoms: C_7  and  C_12
REMARK    3  A    between atoms: N_10  and  C_15
REMARK    4  A    between atoms: C_15  and  C_16
REMARK    5  A    between atoms: C_16  and  O_17
REMARK    6  A    between atoms: C_19  and  C_21
REMARK                            x       y       z     vdW  Elec       q    Type
REMARK                         _______ _______ _______ _____ _____    ______ ____
ROOT
ATOM      1  N   UNL     1      34.226 -15.369 -24.253  0.00  0.00    -0.163 N 
ATOM      2  N   UNL     1      34.862 -17.203 -22.768  0.00  0.00    -0.378 NA
ATOM      3  N   UNL     1      33.483 -15.237 -25.370  0.00  0.00    -0.033 NA
ATOM      4  N   UNL     1      33.240 -18.659 -24.676  0.00  0.00    -0.208 NA
ATOM      5  N   UNL     1      33.010 -16.442 -25.689  0.00  0.00    -0.086 NA
ATOM      6  C   UNL     1      34.246 -16.660 -23.829  0.00  0.00    +0.267 C 
ATOM      7  C   UNL     1      34.628 -18.534 -22.700  0.00  0.00    +0.140 C 
ATOM      8  C   UNL     1      33.466 -17.326 -24.756  0.00  0.00    +0.098 C 
ATOM      9  C   UNL     1      33.851 -19.232 -23.614  0.00  0.00    +0.195 C 
ENDROOT
BRANCH   7  12
ATOM     10  N   UNL     1      35.551 -20.614 -19.947  0.00  0.00    -0.208 N 
ATOM     11  N   UNL     1      36.692 -19.904 -19.973  0.00  0.00    -0.176 NA
ATOM     12  C   UNL     1      35.241 -19.219 -21.599  0.00  0.00    +0.064 C 
ATOM     13  C   UNL     1      34.649 -20.243 -20.901  0.00  0.00    +0.088 C 
ATOM     14  C   UNL     1      36.497 -19.053 -20.984  0.00  0.00    +0.121 C 
BRANCH  10  15
ATOM     15  C   UNL     1      35.380 -21.660 -18.967  0.00  0.00    +0.148 C 
BRANCH  15  16
ATOM     16  C   UNL     1      33.929 -22.101 -18.831  0.00  0.00    +0.161 C 
BRANCH  16  17
ATOM     17  O   UNL     1      33.820 -23.488 -19.124  0.00  0.00    -0.380 OA
ATOM     18  H   UNL     1      33.732 -23.610 -20.082  0.00  0.00    +0.211 HD
ENDBRANCH  16  17
ENDBRANCH  15  16
ENDBRANCH  10  15
ENDBRANCH   7  12
BRANCH   1  19
ATOM     19  C   UNL     1      34.886 -14.205 -23.652  0.00  0.00    +0.145 C 
BRANCH  19  21
ATOM     20  N   UNL     1      31.165 -10.762 -21.136  0.00  0.00    -0.244 NA
ATOM     21  C   UNL     1      33.907 -13.290 -22.996  0.00  0.00    -0.000 C 
ATOM     22  C   UNL     1      33.832 -11.954 -23.379  0.00  0.00    -0.001 C 
ATOM     23  C   UNL     1      32.912 -11.089 -22.762  0.00  0.00    +0.017 C 
ATOM     24  C   UNL     1      33.068 -13.766 -21.996  0.00  0.00    -0.001 C 
ATOM     25  C   UNL     1      32.057 -11.565 -21.747  0.00  0.00    +0.081 C 
ATOM     26  C   UNL     1      32.154 -12.905 -21.383  0.00  0.00    +0.019 C 
ATOM     27  C   UNL     1      32.814  -9.740 -23.130  0.00  0.00    +0.003 C 
ATOM     28  C   UNL     1      31.896  -8.911 -22.502  0.00  0.00    +0.021 C 
ATOM     29  C   UNL     1      31.102  -9.467 -21.520  0.00  0.00    +0.099 C 
ENDBRANCH  19  21
ENDBRANCH   1  19
TORSDOF 6
ENDMDL
MODEL 9
REMARK VINA RESULT:     -10.4      3.730      9.702
REMARK  Name = 17754438
REMARK  6 active torsions:
REMARK  status: ('A' for Active; 'I' for Inactive)
REMARK    1  A    between atoms: N_1  and  C_19
REMARK    2  A    between atoms: C_7  and  C_12
REMARK    3  A    between atoms: N_10  and  C_15
REMARK    4  A    between atoms: C_15  and  C_16
REMARK    5  A    between atoms: C_16  and  O_17
REMARK    6  A    between atoms: C_19  and  C_21
REMARK                            x       y       z     vdW  Elec       q    Type
REMARK                         _______ _______ _______ _____ _____    ______ ____
ROOT
ATOM      1  N   UNL     1      35.025 -21.577 -19.093  0.00  0.00    -0.163 N 
ATOM      2  N   UNL     1      34.676 -20.129 -21.030  0.00  0.00    -0.378 NA
ATOM      3  N   UNL     1      36.003 -21.763 -18.184  0.00  0.00    -0.033 NA
ATOM      4  N   UNL     1      37.309 -19.234 -20.220  0.00  0.00    -0.208 NA
ATOM      5  N   UNL     1      36.994 -20.919 -18.473  0.00  0.00    -0.086 NA
ATOM      6  C   UNL     1      35.365 -20.609 -19.985  0.00  0.00    +0.267 C 
ATOM      7  C   UNL     1      35.374 -19.162 -21.669  0.00  0.00    +0.140 C 
ATOM      8  C   UNL     1      36.620 -20.204 -19.572  0.00  0.00    +0.098 C 
ATOM      9  C   UNL     1      36.635 -18.733 -21.281  0.00  0.00    +0.195 C 
ENDROOT
BRANCH   7  12
ATOM     10  N   UNL     1      34.085 -17.106 -24.290  0.00  0.00    -0.208 N 
ATOM     11  N   UNL     1      33.485 -18.239 -24.695  0.00  0.00    -0.176 NA
ATOM     12  C   UNL     1      34.728 -18.577 -22.808  0.00  0.00    +0.064 C 
ATOM     13  C   UNL     1      34.841 -17.255 -23.164  0.00  0.00    +0.088 C 
ATOM     14  C   UNL     1      33.881 -19.133 -23.785  0.00  0.00    +0.121 C 
BRANCH  10  15
ATOM     15  C   UNL     1      33.894 -15.887 -25.039  0.00  0.00    +0.148 C 
BRANCH  15  16
ATOM     16  C   UNL     1      33.933 -14.647 -24.157  0.00  0.00    +0.161 C 
BRANCH  16  17
ATOM     17  O   UNL     1      32.626 -14.099 -24.044  0.00  0.00    -0.380 OA
ATOM     18  H   UNL     1      32.611 -13.215 -24.442  0.00  0.00    +0.211 HD
ENDBRANCH  16  17
ENDBRANCH  15  16
ENDBRANCH  10  15
ENDBRANCH   7  12
BRANCH   1  19
ATOM     19  C   UNL     1      33.791 -22.369 -19.037  0.00  0.00    +0.145 C 
BRANCH  19  21
ATOM     20  N   UNL     1      32.427 -23.710 -13.711  0.00  0.00    -0.244 NA
ATOM     21  C   UNL     1      33.422 -22.722 -17.636  0.00  0.00    -0.000 C 
ATOM     22  C   UNL     1      32.089 -22.692 -17.235  0.00  0.00    -0.001 C 
ATOM     23  C   UNL     1      31.737 -23.023 -15.915  0.00  0.00    +0.017 C 
ATOM     24  C   UNL     1      34.406 -23.080 -16.723  0.00  0.00    -0.001 C 
ATOM     25  C   UNL     1      32.730 -23.388 -14.983  0.00  0.00    +0.081 C 
ATOM     26  C   UNL     1      34.055 -23.409 -15.411  0.00  0.00    +0.019 C 
ATOM     27  C   UNL     1      30.403 -23.002 -15.485  0.00  0.00    +0.003 C 
ATOM     28  C   UNL     1      30.088 -23.333 -14.175  0.00  0.00    +0.021 C 
ATOM     29  C   UNL     1      31.128 -23.678 -13.336  0.00  0.00    +0.099 C 
ENDBRANCH  19  21
ENDBRANCH   1  19
TORSDOF 6
ENDMDL
