MODEL 1
REMARK VINA RESULT:     -11.7      0.000      0.000
REMARK  Name = 24978486
REMARK  5 active torsions:
REMARK  status: ('A' for Active; 'I' for Inactive)
REMARK    1  A    between atoms: O_1  and  C_6
REMARK    2  A    between atoms: O_1  and  C_18
REMARK    3  A    between atoms: C_18  and  C_20
REMARK    4  A    between atoms: N_19  and  C_26
REMARK    5  A    between atoms: C_26  and  C_29
REMARK                            x       y       z     vdW  Elec       q    Type
REMARK                         _______ _______ _______ _____ _____    ______ ____
ROOT
ATOM      1  O   UNL     1      35.286 -21.992 -18.560  0.00  0.00    -0.479 OA
ENDROOT
BRANCH   1   6
ATOM      2  N   UNL     1      32.807 -23.545 -14.696  0.00  0.00    -0.332 NA
ATOM      3  N   UNL     1      31.598 -23.124 -16.738  0.00  0.00    -0.317 NA
ATOM      4  N   UNL     1      32.684 -22.375 -18.661  0.00  0.00    -0.335 N 
ATOM      5  N   UNL     1      30.488 -23.877 -14.817  0.00  0.00    -0.283 N 
ATOM      6  C   UNL     1      35.195 -22.400 -17.252  0.00  0.00    +0.130 C 
ATOM      7  C   UNL     1      33.988 -22.775 -16.637  0.00  0.00    +0.177 C 
ATOM      8  C   UNL     1      36.382 -22.430 -16.528  0.00  0.00    +0.033 C 
ATOM      9  C   UNL     1      33.957 -23.183 -15.294  0.00  0.00    +0.137 C 
ATOM     10  C   UNL     1      32.766 -22.769 -17.305  0.00  0.00    +0.181 C 
ATOM     11  C   UNL     1      36.365 -22.831 -15.197  0.00  0.00    +0.005 C 
ATOM     12  C   UNL     1      35.160 -23.203 -14.593  0.00  0.00    +0.030 C 
ATOM     13  C   UNL     1      31.691 -23.495 -15.451  0.00  0.00    +0.197 C 
ATOM     14  H   UNL     1      31.814 -22.375 -19.122  0.00  0.00    +0.144 HD
ATOM     15  H   UNL     1      33.497 -22.102 -19.144  0.00  0.00    +0.144 HD
ATOM     16  H   UNL     1      30.497 -24.158 -13.874  0.00  0.00    +0.156 HD
ATOM     17  H   UNL     1      29.641 -23.862 -15.318  0.00  0.00    +0.156 HD
ENDBRANCH   1   6
BRANCH   1  18
ATOM     18  C   UNL     1      36.434 -21.246 -18.922  0.00  0.00    +0.205 C 
BRANCH  18  20
ATOM     19  N   UNL     1      35.324 -18.240 -21.818  0.00  0.00    +0.390 N 
ATOM     20  C   UNL     1      36.175 -20.580 -20.270  0.00  0.00    +0.040 C 
ATOM     21  C   UNL     1      37.068 -19.349 -20.457  0.00  0.00    -0.019 C 
ATOM     22  C   UNL     1      34.703 -20.179 -20.412  0.00  0.00    -0.019 C 
ATOM     23  C   UNL     1      36.742 -18.619 -21.762  0.00  0.00    -0.077 C 
ATOM     24  C   UNL     1      34.456 -19.421 -21.718  0.00  0.00    -0.077 C 
ATOM     25  H   UNL     1      35.127 -17.636 -21.019  0.00  0.00    -0.079 HD
BRANCH  19  26
ATOM     26  C   UNL     1      35.040 -17.499 -23.046  0.00  0.00    -0.049 C 
BRANCH  26  29
ATOM     27 CL   UNL     1      34.348 -15.730 -25.428  0.00  0.00    -0.082 Cl
ATOM     28 CL   UNL     1      33.525 -12.714 -24.686  0.00  0.00    -0.081 Cl
ATOM     29  C   UNL     1      34.647 -16.073 -22.763  0.00  0.00    -0.032 C 
ATOM     30  C   UNL     1      34.312 -15.182 -23.783  0.00  0.00    +0.062 C 
ATOM     31  C   UNL     1      34.623 -15.652 -21.434  0.00  0.00    -0.005 C 
ATOM     32  C   UNL     1      33.953 -13.870 -23.473  0.00  0.00    +0.068 C 
ATOM     33  C   UNL     1      34.264 -14.340 -21.124  0.00  0.00    +0.001 C 
ATOM     34  C   UNL     1      33.929 -13.450 -22.144  0.00  0.00    +0.012 C 
ENDBRANCH  26  29
ENDBRANCH  19  26
ENDBRANCH  18  20
ENDBRANCH   1  18
TORSDOF 5
ENDMDL
MODEL 2
REMARK VINA RESULT:     -11.4      2.202      3.262
REMARK  Name = 24978486
REMARK  5 active torsions:
REMARK  status: ('A' for Active; 'I' for Inactive)
REMARK    1  A    between atoms: O_1  and  C_6
REMARK    2  A    between atoms: O_1  and  C_18
REMARK    3  A    between atoms: C_18  and  C_20
REMARK    4  A    between atoms: N_19  and  C_26
REMARK    5  A    between atoms: C_26  and  C_29
REMARK                            x       y       z     vdW  Elec       q    Type
REMARK                         _______ _______ _______ _____ _____    ______ ____
ROOT
ATOM      1  O   UNL     1      34.722 -22.711 -17.217  0.00  0.00    -0.479 OA
ENDROOT
BRANCH   1   6
ATOM      2  N   UNL     1      35.833 -24.080 -12.704  0.00  0.00    -0.332 NA
ATOM      3  N   UNL     1      37.623 -23.403 -14.168  0.00  0.00    -0.317 NA
ATOM      4  N   UNL     1      37.211 -22.724 -16.360  0.00  0.00    -0.335 N 
ATOM      5  N   UNL     1      38.060 -24.081 -11.968  0.00  0.00    -0.283 N 
ATOM      6  C   UNL     1      34.392 -23.159 -15.963  0.00  0.00    +0.130 C 
ATOM      7  C   UNL     1      35.336 -23.393 -14.948  0.00  0.00    +0.177 C 
ATOM      8  C   UNL     1      33.041 -23.385 -15.721  0.00  0.00    +0.033 C 
ATOM      9  C   UNL     1      34.938 -23.854 -13.682  0.00  0.00    +0.137 C 
ATOM     10  C   UNL     1      36.701 -23.186 -15.124  0.00  0.00    +0.181 C 
ATOM     11  C   UNL     1      32.634 -23.842 -14.472  0.00  0.00    +0.005 C 
ATOM     12  C   UNL     1      33.580 -24.071 -13.467  0.00  0.00    +0.030 C 
ATOM     13  C   UNL     1      37.127 -23.843 -13.000  0.00  0.00    +0.197 C 
ATOM     14  H   UNL     1      38.178 -22.582 -16.472  0.00  0.00    +0.144 HD
ATOM     15  H   UNL     1      36.596 -22.543 -17.108  0.00  0.00    +0.144 HD
ATOM     16  H   UNL     1      37.752 -24.404 -11.091  0.00  0.00    +0.156 HD
ATOM     17  H   UNL     1      39.020 -23.924 -12.125  0.00  0.00    +0.156 HD
ENDBRANCH   1   6
BRANCH   1  18
ATOM     18  C   UNL     1      33.660 -22.533 -18.136  0.00  0.00    +0.205 C 
BRANCH  18  20
ATOM     19  N   UNL     1      35.113 -19.363 -20.685  0.00  0.00    +0.390 N 
ATOM     20  C   UNL     1      34.201 -21.820 -19.373  0.00  0.00    +0.040 C 
ATOM     21  C   UNL     1      35.575 -21.202 -19.095  0.00  0.00    -0.019 C 
ATOM     22  C   UNL     1      33.231 -20.735 -19.852  0.00  0.00    -0.019 C 
ATOM     23  C   UNL     1      36.078 -20.401 -20.299  0.00  0.00    -0.077 C 
ATOM     24  C   UNL     1      33.812 -19.951 -21.030  0.00  0.00    -0.077 C 
ATOM     25  H   UNL     1      34.978 -18.745 -19.885  0.00  0.00    -0.079 HD
BRANCH  19  26
ATOM     26  C   UNL     1      35.631 -18.574 -21.803  0.00  0.00    -0.049 C 
BRANCH  26  29
ATOM     27 CL   UNL     1      34.818 -17.412 -24.499  0.00  0.00    -0.082 Cl
ATOM     28 CL   UNL     1      33.620 -14.433 -24.389  0.00  0.00    -0.081 Cl
ATOM     29  C   UNL     1      35.062 -17.180 -21.817  0.00  0.00    -0.032 C 
ATOM     30  C   UNL     1      34.660 -16.557 -22.999  0.00  0.00    +0.062 C 
ATOM     31  C   UNL     1      34.943 -16.509 -20.600  0.00  0.00    -0.005 C 
ATOM     32  C   UNL     1      34.138 -15.264 -22.963  0.00  0.00    +0.068 C 
ATOM     33  C   UNL     1      34.421 -15.216 -20.564  0.00  0.00    +0.001 C 
ATOM     34  C   UNL     1      34.019 -14.594 -21.746  0.00  0.00    +0.012 C 
ENDBRANCH  26  29
ENDBRANCH  19  26
ENDBRANCH  18  20
ENDBRANCH   1  18
TORSDOF 5
ENDMDL
MODEL 3
REMARK VINA RESULT:     -11.4      2.253      3.711
REMARK  Name = 24978486
REMARK  5 active torsions:
REMARK  status: ('A' for Active; 'I' for Inactive)
REMARK    1  A    between atoms: O_1  and  C_6
REMARK    2  A    between atoms: O_1  and  C_18
REMARK    3  A    between atoms: C_18  and  C_20
REMARK    4  A    between atoms: N_19  and  C_26
REMARK    5  A    between atoms: C_26  and  C_29
REMARK                            x       y       z     vdW  Elec       q    Type
REMARK                         _______ _______ _______ _____ _____    ______ ____
ROOT
ATOM      1  O   UNL     1      34.409 -23.294 -17.060  0.00  0.00    -0.479 OA
ENDROOT
BRANCH   1   6
ATOM      2  N   UNL     1      33.673 -24.227 -12.363  0.00  0.00    -0.332 NA
ATOM      3  N   UNL     1      35.932 -24.276 -13.199  0.00  0.00    -0.317 NA
ATOM      4  N   UNL     1      36.409 -23.843 -15.439  0.00  0.00    -0.335 N 
ATOM      5  N   UNL     1      35.475 -24.714 -10.943  0.00  0.00    -0.283 N 
ATOM      6  C   UNL     1      33.605 -23.447 -15.959  0.00  0.00    +0.130 C 
ATOM      7  C   UNL     1      34.091 -23.772 -14.680  0.00  0.00    +0.177 C 
ATOM      8  C   UNL     1      32.240 -23.266 -16.158  0.00  0.00    +0.033 C 
ATOM      9  C   UNL     1      33.218 -23.918 -13.590  0.00  0.00    +0.137 C 
ATOM     10  C   UNL     1      35.443 -23.965 -14.414  0.00  0.00    +0.181 C 
ATOM     11  C   UNL     1      31.365 -23.409 -15.087  0.00  0.00    +0.005 C 
ATOM     12  C   UNL     1      31.857 -23.731 -13.818  0.00  0.00    +0.030 C 
ATOM     13  C   UNL     1      35.005 -24.390 -12.234  0.00  0.00    +0.197 C 
ATOM     14  H   UNL     1      37.362 -23.982 -15.238  0.00  0.00    +0.144 HD
ATOM     15  H   UNL     1      36.127 -23.617 -16.356  0.00  0.00    +0.144 HD
ATOM     16  H   UNL     1      34.839 -24.810 -10.197  0.00  0.00    +0.156 HD
ATOM     17  H   UNL     1      36.439 -24.843 -10.787  0.00  0.00    +0.156 HD
ENDBRANCH   1   6
BRANCH   1  18
ATOM     18  C   UNL     1      33.769 -22.993 -18.287  0.00  0.00    +0.205 C 
BRANCH  18  20
ATOM     19  N   UNL     1      35.266 -19.955 -20.969  0.00  0.00    +0.390 N 
ATOM     20  C   UNL     1      34.280 -21.643 -18.784  0.00  0.00    +0.040 C 
ATOM     21  C   UNL     1      33.353 -21.064 -19.857  0.00  0.00    -0.019 C 
ATOM     22  C   UNL     1      35.703 -21.764 -19.339  0.00  0.00    -0.019 C 
ATOM     23  C   UNL     1      33.913 -19.760 -20.430  0.00  0.00    -0.077 C 
ATOM     24  C   UNL     1      36.185 -20.437 -19.929  0.00  0.00    -0.077 C 
ATOM     25  H   UNL     1      35.215 -20.666 -21.699  0.00  0.00    -0.079 HD
BRANCH  19  26
ATOM     26  C   UNL     1      35.766 -18.714 -21.559  0.00  0.00    -0.049 C 
BRANCH  26  29
ATOM     27 CL   UNL     1      35.115 -15.754 -21.866  0.00  0.00    -0.082 Cl
ATOM     28 CL   UNL     1      33.393 -15.005 -24.473  0.00  0.00    -0.081 Cl
ATOM     29  C   UNL     1      34.960 -18.300 -22.761  0.00  0.00    -0.032 C 
ATOM     30  C   UNL     1      34.609 -16.970 -22.994  0.00  0.00    +0.062 C 
ATOM     31  C   UNL     1      34.562 -19.293 -23.657  0.00  0.00    -0.005 C 
ATOM     32  C   UNL     1      33.861 -16.633 -24.123  0.00  0.00    +0.068 C 
ATOM     33  C   UNL     1      33.815 -18.956 -24.785  0.00  0.00    +0.001 C 
ATOM     34  C   UNL     1      33.464 -17.626 -25.018  0.00  0.00    +0.012 C 
ENDBRANCH  26  29
ENDBRANCH  19  26
ENDBRANCH  18  20
ENDBRANCH   1  18
TORSDOF 5
ENDMDL
MODEL 4
REMARK VINA RESULT:     -11.2      2.349      4.059
REMARK  Name = 24978486
REMARK  5 active torsions:
REMARK  status: ('A' for Active; 'I' for Inactive)
REMARK    1  A    between atoms: O_1  and  C_6
REMARK    2  A    between atoms: O_1  and  C_18
REMARK    3  A    between atoms: C_18  and  C_20
REMARK    4  A    between atoms: N_19  and  C_26
REMARK    5  A    between atoms: C_26  and  C_29
REMARK                            x       y       z     vdW  Elec       q    Type
REMARK                         _______ _______ _______ _____ _____    ______ ____
ROOT
ATOM      1  O   UNL     1      34.296 -19.308 -21.601  0.00  0.00    -0.479 OA
ENDROOT
BRANCH   1   6
ATOM      2  N   UNL     1      34.861 -22.439 -17.946  0.00  0.00    -0.332 NA
ATOM      3  N   UNL     1      32.632 -22.023 -18.762  0.00  0.00    -0.317 NA
ATOM      4  N   UNL     1      32.237 -20.538 -20.515  0.00  0.00    -0.335 N 
ATOM      5  N   UNL     1      33.008 -23.520 -16.998  0.00  0.00    -0.283 N 
ATOM      6  C   UNL     1      35.061 -20.001 -20.696  0.00  0.00    +0.130 C 
ATOM      7  C   UNL     1      34.528 -20.898 -19.753  0.00  0.00    +0.177 C 
ATOM      8  C   UNL     1      36.432 -19.776 -20.742  0.00  0.00    +0.033 C 
ATOM      9  C   UNL     1      35.361 -21.578 -18.850  0.00  0.00    +0.137 C 
ATOM     10  C   UNL     1      33.166 -21.169 -19.655  0.00  0.00    +0.181 C 
ATOM     11  C   UNL     1      37.268 -20.443 -19.853  0.00  0.00    +0.005 C 
ATOM     12  C   UNL     1      36.730 -21.334 -18.919  0.00  0.00    +0.030 C 
ATOM     13  C   UNL     1      33.525 -22.614 -17.950  0.00  0.00    +0.197 C 
ATOM     14  H   UNL     1      31.277 -20.738 -20.435  0.00  0.00    +0.144 HD
ATOM     15  H   UNL     1      32.553 -19.900 -21.196  0.00  0.00    +0.144 HD
ATOM     16  H   UNL     1      33.616 -23.982 -16.378  0.00  0.00    +0.156 HD
ATOM     17  H   UNL     1      32.038 -23.690 -16.955  0.00  0.00    +0.156 HD
ENDBRANCH   1   6
BRANCH   1  18
ATOM     18  C   UNL     1      34.788 -19.222 -22.925  0.00  0.00    +0.205 C 
BRANCH  18  20
ATOM     19  N   UNL     1      33.874 -15.022 -23.340  0.00  0.00    +0.390 N 
ATOM     20  C   UNL     1      34.947 -17.749 -23.291  0.00  0.00    +0.040 C 
ATOM     21  C   UNL     1      34.896 -16.863 -22.042  0.00  0.00    -0.019 C 
ATOM     22  C   UNL     1      33.865 -17.308 -24.282  0.00  0.00    -0.019 C 
ATOM     23  C   UNL     1      34.954 -15.379 -22.410  0.00  0.00    -0.077 C 
ATOM     24  C   UNL     1      33.957 -15.810 -24.576  0.00  0.00    -0.077 C 
ATOM     25  H   UNL     1      32.985 -15.237 -22.888  0.00  0.00    -0.079 HD
BRANCH  19  26
ATOM     26  C   UNL     1      33.911 -13.591 -23.641  0.00  0.00    -0.049 C 
BRANCH  26  29
ATOM     27 CL   UNL     1      33.786 -10.574 -24.049  0.00  0.00    -0.082 Cl
ATOM     28 CL   UNL     1      32.052  -8.979 -21.865  0.00  0.00    -0.081 Cl
ATOM     29  C   UNL     1      33.113 -12.787 -22.649  0.00  0.00    -0.032 C 
ATOM     30  C   UNL     1      32.994 -11.401 -22.747  0.00  0.00    +0.062 C 
ATOM     31  C   UNL     1      32.483 -13.470 -21.609  0.00  0.00    -0.005 C 
ATOM     32  C   UNL     1      32.243 -10.698 -21.804  0.00  0.00    +0.068 C 
ATOM     33  C   UNL     1      31.733 -12.767 -20.667  0.00  0.00    +0.001 C 
ATOM     34  C   UNL     1      31.613 -11.381 -20.764  0.00  0.00    +0.012 C 
ENDBRANCH  26  29
ENDBRANCH  19  26
ENDBRANCH  18  20
ENDBRANCH   1  18
TORSDOF 5
ENDMDL
MODEL 5
REMARK VINA RESULT:     -11.1      3.786      6.775
REMARK  Name = 24978486
REMARK  5 active torsions:
REMARK  status: ('A' for Active; 'I' for Inactive)
REMARK    1  A    between atoms: O_1  and  C_6
REMARK    2  A    between atoms: O_1  and  C_18
REMARK    3  A    between atoms: C_18  and  C_20
REMARK    4  A    between atoms: N_19  and  C_26
REMARK    5  A    between atoms: C_26  and  C_29
REMARK                            x       y       z     vdW  Elec       q    Type
REMARK                         _______ _______ _______ _____ _____    ______ ____
ROOT
ATOM      1  O   UNL     1      34.480 -25.112 -12.880  0.00  0.00    -0.479 OA
ENDROOT
BRANCH   1   6
ATOM      2  N   UNL     1      39.325 -25.062 -12.841  0.00  0.00    -0.332 NA
ATOM      3  N   UNL     1      38.208 -26.612 -14.310  0.00  0.00    -0.317 NA
ATOM      4  N   UNL     1      35.882 -26.727 -14.415  0.00  0.00    -0.335 N 
ATOM      5  N   UNL     1      40.547 -26.514 -14.220  0.00  0.00    -0.283 N 
ATOM      6  C   UNL     1      35.691 -24.642 -12.438  0.00  0.00    +0.130 C 
ATOM      7  C   UNL     1      36.928 -25.126 -12.898  0.00  0.00    +0.177 C 
ATOM      8  C   UNL     1      35.652 -23.633 -11.482  0.00  0.00    +0.033 C 
ATOM      9  C   UNL     1      38.136 -24.606 -12.407  0.00  0.00    +0.137 C 
ATOM     10  C   UNL     1      37.036 -26.133 -13.854  0.00  0.00    +0.181 C 
ATOM     11  C   UNL     1      36.841 -23.110 -10.987  0.00  0.00    +0.005 C 
ATOM     12  C   UNL     1      38.068 -23.597 -11.450  0.00  0.00    +0.030 C 
ATOM     13  C   UNL     1      39.296 -26.040 -13.769  0.00  0.00    +0.197 C 
ATOM     14  H   UNL     1      35.972 -27.437 -15.090  0.00  0.00    +0.144 HD
ATOM     15  H   UNL     1      34.988 -26.428 -14.131  0.00  0.00    +0.144 HD
ATOM     16  H   UNL     1      41.378 -26.130 -13.857  0.00  0.00    +0.156 HD
ATOM     17  H   UNL     1      40.590 -27.226 -14.898  0.00  0.00    +0.156 HD
ENDBRANCH   1   6
BRANCH   1  18
ATOM     18  C   UNL     1      33.477 -24.150 -13.154  0.00  0.00    +0.205 C 
BRANCH  18  20
ATOM     19  N   UNL     1      33.252 -22.544 -17.157  0.00  0.00    +0.390 N 
ATOM     20  C   UNL     1      33.264 -24.086 -14.664  0.00  0.00    +0.040 C 
ATOM     21  C   UNL     1      34.553 -23.680 -15.385  0.00  0.00    -0.019 C 
ATOM     22  C   UNL     1      32.141 -23.107 -15.020  0.00  0.00    -0.019 C 
ATOM     23  C   UNL     1      34.320 -23.516 -16.889  0.00  0.00    -0.077 C 
ATOM     24  C   UNL     1      31.988 -22.962 -16.535  0.00  0.00    -0.077 C 
ATOM     25  H   UNL     1      33.526 -21.652 -16.745  0.00  0.00    -0.079 HD
BRANCH  19  26
ATOM     26  C   UNL     1      33.077 -22.360 -18.597  0.00  0.00    -0.049 C 
BRANCH  26  29
ATOM     27 CL   UNL     1      32.361 -20.263 -20.688  0.00  0.00    -0.082 Cl
ATOM     28 CL   UNL     1      34.858 -18.644 -21.898  0.00  0.00    -0.081 Cl
ATOM     29  C   UNL     1      34.205 -21.568 -19.203  0.00  0.00    -0.032 C 
ATOM     30  C   UNL     1      33.984 -20.585 -20.168  0.00  0.00    +0.062 C 
ATOM     31  C   UNL     1      35.503 -21.841 -18.771  0.00  0.00    -0.005 C 
ATOM     32  C   UNL     1      35.061 -19.875 -20.701  0.00  0.00    +0.068 C 
ATOM     33  C   UNL     1      36.579 -21.132 -19.303  0.00  0.00    +0.001 C 
ATOM     34  C   UNL     1      36.358 -20.149 -20.268  0.00  0.00    +0.012 C 
ENDBRANCH  26  29
ENDBRANCH  19  26
ENDBRANCH  18  20
ENDBRANCH   1  18
TORSDOF 5
ENDMDL
MODEL 6
REMARK VINA RESULT:     -10.9      4.323      9.940
REMARK  Name = 24978486
REMARK  5 active torsions:
REMARK  status: ('A' for Active; 'I' for Inactive)
REMARK    1  A    between atoms: O_1  and  C_6
REMARK    2  A    between atoms: O_1  and  C_18
REMARK    3  A    between atoms: C_18  and  C_20
REMARK    4  A    between atoms: N_19  and  C_26
REMARK    5  A    between atoms: C_26  and  C_29
REMARK                            x       y       z     vdW  Elec       q    Type
REMARK                         _______ _______ _______ _____ _____    ______ ____
ROOT
ATOM      1  O   UNL     1      34.960 -17.663 -22.612  0.00  0.00    -0.479 OA
ENDROOT
BRANCH   1   6
ATOM      2  N   UNL     1      33.468 -13.426 -24.428  0.00  0.00    -0.332 NA
ATOM      3  N   UNL     1      33.707 -15.294 -25.931  0.00  0.00    -0.317 NA
ATOM      4  N   UNL     1      34.417 -17.381 -25.172  0.00  0.00    -0.335 N 
ATOM      5  N   UNL     1      32.992 -13.205 -26.715  0.00  0.00    -0.283 N 
ATOM      6  C   UNL     1      34.617 -16.339 -22.495  0.00  0.00    +0.130 C 
ATOM      7  C   UNL     1      34.203 -15.545 -23.579  0.00  0.00    +0.177 C 
ATOM      8  C   UNL     1      34.697 -15.788 -21.221  0.00  0.00    +0.033 C 
ATOM      9  C   UNL     1      33.866 -14.194 -23.398  0.00  0.00    +0.137 C 
ATOM     10  C   UNL     1      34.101 -16.035 -24.878  0.00  0.00    +0.181 C 
ATOM     11  C   UNL     1      34.366 -14.451 -21.029  0.00  0.00    +0.005 C 
ATOM     12  C   UNL     1      33.955 -13.668 -22.112  0.00  0.00    +0.030 C 
ATOM     13  C   UNL     1      33.411 -14.017 -25.639  0.00  0.00    +0.197 C 
ATOM     14  H   UNL     1      34.340 -17.715 -26.095  0.00  0.00    +0.144 HD
ATOM     15  H   UNL     1      34.712 -17.985 -24.453  0.00  0.00    +0.144 HD
ATOM     16  H   UNL     1      32.762 -12.261 -26.558  0.00  0.00    +0.156 HD
ATOM     17  H   UNL     1      32.929 -13.582 -27.622  0.00  0.00    +0.156 HD
ENDBRANCH   1   6
BRANCH   1  18
ATOM     18  C   UNL     1      35.918 -18.162 -21.697  0.00  0.00    +0.205 C 
BRANCH  18  20
ATOM     19  N   UNL     1      34.583 -21.328 -19.080  0.00  0.00    +0.390 N 
ATOM     20  C   UNL     1      35.471 -19.545 -21.230  0.00  0.00    +0.040 C 
ATOM     21  C   UNL     1      34.049 -19.501 -20.662  0.00  0.00    -0.019 C 
ATOM     22  C   UNL     1      36.433 -20.108 -20.179  0.00  0.00    -0.019 C 
ATOM     23  C   UNL     1      33.633 -20.863 -20.101  0.00  0.00    -0.077 C 
ATOM     24  C   UNL     1      35.938 -21.449 -19.634  0.00  0.00    -0.077 C 
ATOM     25  H   UNL     1      34.608 -20.633 -18.334  0.00  0.00    -0.079 HD
BRANCH  19  26
ATOM     26  C   UNL     1      34.144 -22.605 -18.518  0.00  0.00    -0.049 C 
BRANCH  26  29
ATOM     27 CL   UNL     1      32.022 -23.505 -16.525  0.00  0.00    -0.082 Cl
ATOM     28 CL   UNL     1      33.042 -23.790 -13.492  0.00  0.00    -0.081 Cl
ATOM     29  C   UNL     1      34.560 -22.757 -17.079  0.00  0.00    -0.032 C 
ATOM     30  C   UNL     1      33.665 -23.163 -16.089  0.00  0.00    +0.062 C 
ATOM     31  C   UNL     1      35.886 -22.477 -16.748  0.00  0.00    -0.005 C 
ATOM     32  C   UNL     1      34.097 -23.290 -14.768  0.00  0.00    +0.068 C 
ATOM     33  C   UNL     1      36.318 -22.605 -15.428  0.00  0.00    +0.001 C 
ATOM     34  C   UNL     1      35.423 -23.011 -14.438  0.00  0.00    +0.012 C 
ENDBRANCH  26  29
ENDBRANCH  19  26
ENDBRANCH  18  20
ENDBRANCH   1  18
TORSDOF 5
ENDMDL
MODEL 7
REMARK VINA RESULT:     -10.9      1.672      2.744
REMARK  Name = 24978486
REMARK  5 active torsions:
REMARK  status: ('A' for Active; 'I' for Inactive)
REMARK    1  A    between atoms: O_1  and  C_6
REMARK    2  A    between atoms: O_1  and  C_18
REMARK    3  A    between atoms: C_18  and  C_20
REMARK    4  A    between atoms: N_19  and  C_26
REMARK    5  A    between atoms: C_26  and  C_29
REMARK                            x       y       z     vdW  Elec       q    Type
REMARK                         _______ _______ _______ _____ _____    ______ ____
ROOT
ATOM      1  O   UNL     1      32.821 -22.530 -17.542  0.00  0.00    -0.479 OA
ENDROOT
BRANCH   1   6
ATOM      2  N   UNL     1      32.280 -24.552 -13.172  0.00  0.00    -0.332 NA
ATOM      3  N   UNL     1      30.301 -23.925 -14.396  0.00  0.00    -0.317 NA
ATOM      4  N   UNL     1      30.437 -22.945 -16.507  0.00  0.00    -0.335 N 
ATOM      5  N   UNL     1      30.142 -24.909 -12.275  0.00  0.00    -0.283 N 
ATOM      6  C   UNL     1      33.310 -23.085 -16.386  0.00  0.00    +0.130 C 
ATOM      7  C   UNL     1      32.493 -23.548 -15.340  0.00  0.00    +0.177 C 
ATOM      8  C   UNL     1      34.694 -23.174 -16.279  0.00  0.00    +0.033 C 
ATOM      9  C   UNL     1      33.053 -24.105 -14.178  0.00  0.00    +0.137 C 
ATOM     10  C   UNL     1      31.103 -23.488 -15.384  0.00  0.00    +0.181 C 
ATOM     11  C   UNL     1      35.260 -23.723 -15.134  0.00  0.00    +0.005 C 
ATOM     12  C   UNL     1      34.440 -24.182 -14.098  0.00  0.00    +0.030 C 
ATOM     13  C   UNL     1      30.946 -24.437 -13.335  0.00  0.00    +0.197 C 
ATOM     14  H   UNL     1      29.453 -22.909 -16.526  0.00  0.00    +0.144 HD
ATOM     15  H   UNL     1      30.957 -22.605 -17.271  0.00  0.00    +0.144 HD
ATOM     16  H   UNL     1      30.562 -25.295 -11.473  0.00  0.00    +0.156 HD
ATOM     17  H   UNL     1      29.161 -24.853 -12.338  0.00  0.00    +0.156 HD
ENDBRANCH   1   6
BRANCH   1  18
ATOM     18  C   UNL     1      33.590 -22.710 -18.717  0.00  0.00    +0.205 C 
BRANCH  18  20
ATOM     19  N   UNL     1      35.265 -19.613 -21.220  0.00  0.00    +0.390 N 
ATOM     20  C   UNL     1      34.155 -21.356 -19.141  0.00  0.00    +0.040 C 
ATOM     21  C   UNL     1      33.284 -20.711 -20.223  0.00  0.00    -0.019 C 
ATOM     22  C   UNL     1      35.594 -21.495 -19.649  0.00  0.00    -0.019 C 
ATOM     23  C   UNL     1      33.899 -19.401 -20.723  0.00  0.00    -0.077 C 
ATOM     24  C   UNL     1      36.132 -20.160 -20.168  0.00  0.00    -0.077 C 
ATOM     25  H   UNL     1      35.222 -20.294 -21.979  0.00  0.00    -0.079 HD
BRANCH  19  26
ATOM     26  C   UNL     1      35.819 -18.364 -21.741  0.00  0.00    -0.049 C 
BRANCH  26  29
ATOM     27 CL   UNL     1      34.998 -15.439 -21.518  0.00  0.00    -0.082 Cl
ATOM     28 CL   UNL     1      33.194 -14.346 -23.943  0.00  0.00    -0.081 Cl
ATOM     29  C   UNL     1      34.971 -17.793 -22.847  0.00  0.00    -0.032 C 
ATOM     30  C   UNL     1      34.543 -16.466 -22.840  0.00  0.00    +0.062 C 
ATOM     31  C   UNL     1      34.616 -18.635 -23.901  0.00  0.00    -0.005 C 
ATOM     32  C   UNL     1      33.759 -15.980 -23.887  0.00  0.00    +0.068 C 
ATOM     33  C   UNL     1      33.833 -18.149 -24.948  0.00  0.00    +0.001 C 
ATOM     34  C   UNL     1      33.405 -16.822 -24.941  0.00  0.00    +0.012 C 
ENDBRANCH  26  29
ENDBRANCH  19  26
ENDBRANCH  18  20
ENDBRANCH   1  18
TORSDOF 5
ENDMDL
MODEL 8
REMARK VINA RESULT:     -10.8      5.286     10.946
REMARK  Name = 24978486
REMARK  5 active torsions:
REMARK  status: ('A' for Active; 'I' for Inactive)
REMARK    1  A    between atoms: O_1  and  C_6
REMARK    2  A    between atoms: O_1  and  C_18
REMARK    3  A    between atoms: C_18  and  C_20
REMARK    4  A    between atoms: N_19  and  C_26
REMARK    5  A    between atoms: C_26  and  C_29
REMARK                            x       y       z     vdW  Elec       q    Type
REMARK                         _______ _______ _______ _____ _____    ______ ____
ROOT
ATOM      1  O   UNL     1      33.952 -12.737 -23.217  0.00  0.00    -0.479 OA
ENDROOT
BRANCH   1   6
ATOM      2  N   UNL     1      32.012  -8.485 -21.940  0.00  0.00    -0.332 NA
ATOM      3  N   UNL     1      33.875  -8.479 -23.467  0.00  0.00    -0.317 NA
ATOM      4  N   UNL     1      34.890 -10.463 -24.154  0.00  0.00    -0.335 N 
ATOM      5  N   UNL     1      32.870  -6.474 -22.790  0.00  0.00    -0.283 N 
ATOM      6  C   UNL     1      33.046 -11.966 -22.533  0.00  0.00    +0.130 C 
ATOM      7  C   UNL     1      33.008 -10.563 -22.604  0.00  0.00    +0.177 C 
ATOM      8  C   UNL     1      32.132 -12.647 -21.735  0.00  0.00    +0.033 C 
ATOM      9  C   UNL     1      32.057  -9.827 -21.878  0.00  0.00    +0.137 C 
ATOM     10  C   UNL     1      33.892  -9.822 -23.383  0.00  0.00    +0.181 C 
ATOM     11  C   UNL     1      31.186 -11.930 -21.011  0.00  0.00    +0.005 C 
ATOM     12  C   UNL     1      31.155 -10.534 -21.087  0.00  0.00    +0.030 C 
ATOM     13  C   UNL     1      32.923  -7.883 -22.730  0.00  0.00    +0.197 C 
ATOM     14  H   UNL     1      35.509  -9.928 -24.701  0.00  0.00    +0.144 HD
ATOM     15  H   UNL     1      34.965 -11.444 -24.143  0.00  0.00    +0.144 HD
ATOM     16  H   UNL     1      32.192  -5.985 -22.271  0.00  0.00    +0.156 HD
ATOM     17  H   UNL     1      33.510  -5.979 -23.353  0.00  0.00    +0.156 HD
ENDBRANCH   1   6
BRANCH   1  18
ATOM     18  C   UNL     1      33.439 -13.831 -23.954  0.00  0.00    +0.205 C 
BRANCH  18  20
ATOM     19  N   UNL     1      34.688 -17.733 -22.585  0.00  0.00    +0.390 N 
ATOM     20  C   UNL     1      34.328 -15.047 -23.702  0.00  0.00    +0.040 C 
ATOM     21  C   UNL     1      33.751 -16.299 -24.371  0.00  0.00    -0.019 C 
ATOM     22  C   UNL     1      34.505 -15.296 -22.200  0.00  0.00    -0.019 C 
ATOM     23  C   UNL     1      34.583 -17.540 -24.037  0.00  0.00    -0.077 C 
ATOM     24  C   UNL     1      35.311 -16.570 -21.940  0.00  0.00    -0.077 C 
ATOM     25  H   UNL     1      33.744 -17.833 -22.212  0.00  0.00    -0.079 HD
BRANCH  19  26
ATOM     26  C   UNL     1      35.441 -18.950 -22.284  0.00  0.00    -0.049 C 
BRANCH  26  29
ATOM     27 CL   UNL     1      37.222 -20.319 -20.226  0.00  0.00    -0.082 Cl
ATOM     28 CL   UNL     1      35.660 -22.054 -18.019  0.00  0.00    -0.081 Cl
ATOM     29  C   UNL     1      34.767 -19.779 -21.223  0.00  0.00    -0.032 C 
ATOM     30  C   UNL     1      35.492 -20.446 -20.235  0.00  0.00    +0.062 C 
ATOM     31  C   UNL     1      33.376 -19.869 -21.247  0.00  0.00    -0.005 C 
ATOM     32  C   UNL     1      34.825 -21.203 -19.272  0.00  0.00    +0.068 C 
ATOM     33  C   UNL     1      32.708 -20.625 -20.284  0.00  0.00    +0.001 C 
ATOM     34  C   UNL     1      33.433 -21.292 -19.296  0.00  0.00    +0.012 C 
ENDBRANCH  26  29
ENDBRANCH  19  26
ENDBRANCH  18  20
ENDBRANCH   1  18
TORSDOF 5
ENDMDL
MODEL 9
REMARK VINA RESULT:     -10.6      5.174     10.867
REMARK  Name = 24978486
REMARK  5 active torsions:
REMARK  status: ('A' for Active; 'I' for Inactive)
REMARK    1  A    between atoms: O_1  and  C_6
REMARK    2  A    between atoms: O_1  and  C_18
REMARK    3  A    between atoms: C_18  and  C_20
REMARK    4  A    between atoms: N_19  and  C_26
REMARK    5  A    between atoms: C_26  and  C_29
REMARK                            x       y       z     vdW  Elec       q    Type
REMARK                         _______ _______ _______ _____ _____    ______ ____
ROOT
ATOM      1  O   UNL     1      32.958 -12.995 -23.216  0.00  0.00    -0.479 OA
ENDROOT
BRANCH   1   6
ATOM      2  N   UNL     1      33.016  -8.261 -22.184  0.00  0.00    -0.332 NA
ATOM      3  N   UNL     1      31.519  -9.684 -20.943  0.00  0.00    -0.317 NA
ATOM      4  N   UNL     1      31.404 -11.977 -21.351  0.00  0.00    -0.335 N 
ATOM      5  N   UNL     1      31.619  -7.382 -20.516  0.00  0.00    -0.283 N 
ATOM      6  C   UNL     1      33.414 -11.713 -23.396  0.00  0.00    +0.130 C 
ATOM      7  C   UNL     1      32.949 -10.612 -22.656  0.00  0.00    +0.177 C 
ATOM      8  C   UNL     1      34.386 -11.533 -24.374  0.00  0.00    +0.033 C 
ATOM      9  C   UNL     1      33.453  -9.321 -22.887  0.00  0.00    +0.137 C 
ATOM     10  C   UNL     1      31.979 -10.723 -21.664  0.00  0.00    +0.181 C 
ATOM     11  C   UNL     1      34.893 -10.260 -24.612  0.00  0.00    +0.005 C 
ATOM     12  C   UNL     1      34.426  -9.170 -23.871  0.00  0.00    +0.030 C 
ATOM     13  C   UNL     1      32.073  -8.500 -21.250  0.00  0.00    +0.197 C 
ATOM     14  H   UNL     1      30.719 -12.043 -20.647  0.00  0.00    +0.144 HD
ATOM     15  H   UNL     1      31.690 -12.784 -21.836  0.00  0.00    +0.144 HD
ATOM     16  H   UNL     1      31.991  -6.490 -20.700  0.00  0.00    +0.156 HD
ATOM     17  H   UNL     1      30.932  -7.496 -19.820  0.00  0.00    +0.156 HD
ENDBRANCH   1   6
BRANCH   1  18
ATOM     18  C   UNL     1      33.101 -13.888 -24.305  0.00  0.00    +0.205 C 
BRANCH  18  20
ATOM     19  N   UNL     1      34.677 -17.545 -22.634  0.00  0.00    +0.390 N 
ATOM     20  C   UNL     1      34.102 -14.973 -23.916  0.00  0.00    +0.040 C 
ATOM     21  C   UNL     1      33.741 -16.313 -24.564  0.00  0.00    -0.019 C 
ATOM     22  C   UNL     1      34.172 -15.136 -22.394  0.00  0.00    -0.019 C 
ATOM     23  C   UNL     1      34.681 -17.427 -24.098  0.00  0.00    -0.077 C 
ATOM     24  C   UNL     1      35.098 -16.288 -22.000  0.00  0.00    -0.077 C 
ATOM     25  H   UNL     1      33.722 -17.744 -22.336  0.00  0.00    -0.079 HD
BRANCH  19  26
ATOM     26  C   UNL     1      35.540 -18.647 -22.208  0.00  0.00    -0.049 C 
BRANCH  26  29
ATOM     27 CL   UNL     1      37.266 -20.098 -20.159  0.00  0.00    -0.082 Cl
ATOM     28 CL   UNL     1      35.658 -22.012 -18.141  0.00  0.00    -0.081 Cl
ATOM     29  C   UNL     1      34.844 -19.560 -21.234  0.00  0.00    -0.032 C 
ATOM     30  C   UNL     1      35.543 -20.270 -20.257  0.00  0.00    +0.062 C 
ATOM     31  C   UNL     1      33.458 -19.685 -21.329  0.00  0.00    -0.005 C 
ATOM     32  C   UNL     1      34.855 -21.104 -19.375  0.00  0.00    +0.068 C 
ATOM     33  C   UNL     1      32.771 -20.519 -20.447  0.00  0.00    +0.001 C 
ATOM     34  C   UNL     1      33.470 -21.229 -19.470  0.00  0.00    +0.012 C 
ENDBRANCH  26  29
ENDBRANCH  19  26
ENDBRANCH  18  20
ENDBRANCH   1  18
TORSDOF 5
ENDMDL
