MODEL 1
REMARK VINA RESULT:     -11.9      0.000      0.000
REMARK  Name = 46937091
REMARK  8 active torsions:
REMARK  status: ('A' for Active; 'I' for Inactive)
REMARK    1  A    between atoms: C_1  and  C_4
REMARK    2  A    between atoms: C_1  and  C_18
REMARK    3  A    between atoms: C_10  and  C_12
REMARK    4  A    between atoms: C_18  and  C_19
REMARK    5  A    between atoms: C_19  and  N_20
REMARK    6  A    between atoms: C_19  and  C_30
REMARK    7  A    between atoms: C_24  and  C_27
REMARK    8  A    between atoms: C_30  and  O_32
REMARK                            x       y       z     vdW  Elec       q    Type
REMARK                         _______ _______ _______ _____ _____    ______ ____
ROOT
ATOM      1  C   UNL     1      34.665 -24.538 -14.174  0.00  0.00    +0.031 C 
ENDROOT
BRANCH   1   4
ATOM      2  O   UNL     1      33.757 -22.974 -16.639  0.00  0.00    -0.425 OA
ATOM      3  N   UNL     1      31.635 -22.554 -17.315  0.00  0.00    -0.368 NA
ATOM      4  C   UNL     1      33.244 -24.273 -14.601  0.00  0.00    +0.014 C 
ATOM      5  C   UNL     1      32.907 -23.550 -15.740  0.00  0.00    +0.170 C 
ATOM      6  C   UNL     1      32.167 -24.756 -13.850  0.00  0.00    -0.005 C 
ATOM      7  C   UNL     1      31.610 -23.292 -16.156  0.00  0.00    +0.151 C 
ATOM      8  C   UNL     1      30.842 -24.517 -14.236  0.00  0.00    -0.019 C 
ATOM      9  C   UNL     1      30.542 -23.783 -15.393  0.00  0.00    +0.088 C 
ATOM     10  C   UNL     1      32.920 -22.400 -17.548  0.00  0.00    +0.282 C 
BRANCH  10  12
ATOM     11 CL   UNL     1      35.615 -19.544 -22.014  0.00  0.00    -0.082 Cl
ATOM     12  C   UNL     1      33.572 -21.710 -18.627  0.00  0.00    +0.066 C 
ATOM     13  C   UNL     1      32.821 -20.947 -19.521  0.00  0.00    +0.007 C 
ATOM     14  C   UNL     1      34.955 -21.802 -18.780  0.00  0.00    +0.007 C 
ATOM     15  C   UNL     1      33.453 -20.277 -20.568  0.00  0.00    +0.012 C 
ATOM     16  C   UNL     1      35.587 -21.133 -19.828  0.00  0.00    +0.012 C 
ATOM     17  C   UNL     1      34.835 -20.370 -20.722  0.00  0.00    +0.058 C 
ENDBRANCH  10  12
ENDBRANCH   1   4
BRANCH   1  18
ATOM     18  C   UNL     1      34.929 -24.319 -12.674  0.00  0.00    +0.023 C 
BRANCH  18  19
ATOM     19  C   UNL     1      36.283 -23.641 -12.335  0.00  0.00    +0.087 C 
BRANCH  19  20
ATOM     20  N   UNL     1      37.400 -24.047 -13.288  0.00  0.00    -0.246 NA
ATOM     21  N   UNL     1      38.745 -24.005 -15.054  0.00  0.00    -0.251 NA
ATOM     22  C   UNL     1      38.247 -25.107 -13.137  0.00  0.00    +0.125 C 
ATOM     23  C   UNL     1      37.736 -23.414 -14.452  0.00  0.00    +0.201 C 
ATOM     24  C   UNL     1      39.069 -25.061 -14.238  0.00  0.00    +0.124 C 
BRANCH  24  27
ATOM     25  O   UNL     1      40.559 -26.141 -15.708  0.00  0.00    -0.269 OA
ATOM     26  N   UNL     1      40.727 -26.679 -13.486  0.00  0.00    -0.324 N 
ATOM     27  C   UNL     1      40.132 -25.969 -14.539  0.00  0.00    +0.257 C 
ATOM     28  H   UNL     1      41.461 -27.310 -13.669  0.00  0.00    +0.145 HD
ATOM     29  H   UNL     1      40.412 -26.546 -12.563  0.00  0.00    +0.145 HD
ENDBRANCH  24  27
ENDBRANCH  19  20
BRANCH  19  30
ATOM     30  C   UNL     1      36.647 -23.871 -10.843  0.00  0.00    +0.125 C 
ATOM     31  C   UNL     1      35.494 -24.409 -10.003  0.00  0.00    +0.033 C 
BRANCH  30  32
ATOM     32  O   UNL     1      37.139 -22.671 -10.251  0.00  0.00    -0.383 OA
ATOM     33  H   UNL     1      36.625 -22.469  -9.454  0.00  0.00    +0.210 HD
ENDBRANCH  30  32
ENDBRANCH  19  30
ENDBRANCH  18  19
ENDBRANCH   1  18
TORSDOF 8
ENDMDL
MODEL 2
REMARK VINA RESULT:     -11.3      3.681      7.378
REMARK  Name = 46937091
REMARK  8 active torsions:
REMARK  status: ('A' for Active; 'I' for Inactive)
REMARK    1  A    between atoms: C_1  and  C_4
REMARK    2  A    between atoms: C_1  and  C_18
REMARK    3  A    between atoms: C_10  and  C_12
REMARK    4  A    between atoms: C_18  and  C_19
REMARK    5  A    between atoms: C_19  and  N_20
REMARK    6  A    between atoms: C_19  and  C_30
REMARK    7  A    between atoms: C_24  and  C_27
REMARK    8  A    between atoms: C_30  and  O_32
REMARK                            x       y       z     vdW  Elec       q    Type
REMARK                         _______ _______ _______ _____ _____    ______ ____
ROOT
ATOM      1  C   UNL     1      32.943 -23.430 -16.830  0.00  0.00    +0.031 C 
ENDROOT
BRANCH   1   4
ATOM      2  O   UNL     1      34.632 -21.618 -18.622  0.00  0.00    -0.425 OA
ATOM      3  N   UNL     1      36.811 -21.051 -18.367  0.00  0.00    -0.368 NA
ATOM      4  C   UNL     1      34.393 -23.069 -16.636  0.00  0.00    +0.014 C 
ATOM      5  C   UNL     1      35.098 -22.235 -17.497  0.00  0.00    +0.170 C 
ATOM      6  C   UNL     1      35.120 -23.570 -15.551  0.00  0.00    -0.005 C 
ATOM      7  C   UNL     1      36.431 -21.886 -17.344  0.00  0.00    +0.151 C 
ATOM      8  C   UNL     1      36.468 -23.242 -15.359  0.00  0.00    -0.019 C 
ATOM      9  C   UNL     1      37.145 -22.396 -16.250  0.00  0.00    +0.088 C 
ATOM     10  C   UNL     1      35.714 -20.932 -19.082  0.00  0.00    +0.282 C 
BRANCH  10  12
ATOM     11 CL   UNL     1      34.792 -17.814 -24.062  0.00  0.00    -0.082 Cl
ATOM     12  C   UNL     1      35.492 -20.178 -20.286  0.00  0.00    +0.066 C 
ATOM     13  C   UNL     1      34.235 -20.184 -20.889  0.00  0.00    +0.007 C 
ATOM     14  C   UNL     1      36.533 -19.441 -20.850  0.00  0.00    +0.007 C 
ATOM     15  C   UNL     1      34.018 -19.453 -22.057  0.00  0.00    +0.012 C 
ATOM     16  C   UNL     1      36.316 -18.710 -22.018  0.00  0.00    +0.012 C 
ATOM     17  C   UNL     1      35.059 -18.715 -22.621  0.00  0.00    +0.058 C 
ENDBRANCH  10  12
ENDBRANCH   1   4
BRANCH   1  18
ATOM     18  C   UNL     1      32.023 -23.013 -15.669  0.00  0.00    +0.023 C 
BRANCH  18  19
ATOM     19  C   UNL     1      30.985 -24.081 -15.235  0.00  0.00    +0.087 C 
BRANCH  19  20
ATOM     20  N   UNL     1      29.579 -23.774 -15.734  0.00  0.00    -0.246 NA
ATOM     21  N   UNL     1      27.645 -24.031 -16.796  0.00  0.00    -0.251 NA
ATOM     22  C   UNL     1      28.851 -22.651 -15.461  0.00  0.00    +0.125 C 
ATOM     23  C   UNL     1      28.815 -24.573 -16.538  0.00  0.00    +0.201 C 
ATOM     24  C   UNL     1      27.661 -22.832 -16.127  0.00  0.00    +0.124 C 
BRANCH  24  27
ATOM     25  O   UNL     1      26.366 -21.122 -17.100  0.00  0.00    -0.269 OA
ATOM     26  N   UNL     1      25.651 -21.938 -15.080  0.00  0.00    -0.324 N 
ATOM     27  C   UNL     1      26.558 -21.922 -16.150  0.00  0.00    +0.257 C 
ATOM     28  H   UNL     1      24.884 -21.320 -15.075  0.00  0.00    +0.145 HD
ATOM     29  H   UNL     1      25.781 -22.567 -14.335  0.00  0.00    +0.145 HD
ENDBRANCH  24  27
ENDBRANCH  19  20
BRANCH  19  30
ATOM     30  C   UNL     1      31.046 -24.306 -13.700  0.00  0.00    +0.125 C 
ATOM     31  C   UNL     1      32.437 -24.659 -13.184  0.00  0.00    +0.033 C 
BRANCH  30  32
ATOM     32  O   UNL     1      30.125 -25.318 -13.299  0.00  0.00    -0.383 OA
ATOM     33  H   UNL     1      30.602 -26.024 -12.835  0.00  0.00    +0.210 HD
ENDBRANCH  30  32
ENDBRANCH  19  30
ENDBRANCH  18  19
ENDBRANCH   1  18
TORSDOF 8
ENDMDL
MODEL 3
REMARK VINA RESULT:     -10.7     11.242     15.173
REMARK  Name = 46937091
REMARK  8 active torsions:
REMARK  status: ('A' for Active; 'I' for Inactive)
REMARK    1  A    between atoms: C_1  and  C_4
REMARK    2  A    between atoms: C_1  and  C_18
REMARK    3  A    between atoms: C_10  and  C_12
REMARK    4  A    between atoms: C_18  and  C_19
REMARK    5  A    between atoms: C_19  and  N_20
REMARK    6  A    between atoms: C_19  and  C_30
REMARK    7  A    between atoms: C_24  and  C_27
REMARK    8  A    between atoms: C_30  and  O_32
REMARK                            x       y       z     vdW  Elec       q    Type
REMARK                         _______ _______ _______ _____ _____    ______ ____
ROOT
ATOM      1  C   UNL     1      31.833 -12.045 -22.344  0.00  0.00    +0.031 C 
ENDROOT
BRANCH   1   4
ATOM      2  O   UNL     1      32.618  -9.098 -22.563  0.00  0.00    -0.425 OA
ATOM      3  N   UNL     1      32.648  -7.542 -20.917  0.00  0.00    -0.368 NA
ATOM      4  C   UNL     1      31.843 -11.029 -21.231  0.00  0.00    +0.014 C 
ATOM      5  C   UNL     1      32.214  -9.701 -21.407  0.00  0.00    +0.170 C 
ATOM      6  C   UNL     1      31.469 -11.385 -19.930  0.00  0.00    -0.005 C 
ATOM      7  C   UNL     1      32.233  -8.746 -20.401  0.00  0.00    +0.151 C 
ATOM      8  C   UNL     1      31.474 -10.452 -18.887  0.00  0.00    -0.019 C 
ATOM      9  C   UNL     1      31.855  -9.119 -19.104  0.00  0.00    +0.088 C 
ATOM     10  C   UNL     1      32.858  -7.812 -22.186  0.00  0.00    +0.282 C 
BRANCH  10  12
ATOM     11 CL   UNL     1      34.717  -4.211 -26.539  0.00  0.00    -0.082 Cl
ATOM     12  C   UNL     1      33.307  -6.941 -23.238  0.00  0.00    +0.066 C 
ATOM     13  C   UNL     1      34.646  -6.951 -23.627  0.00  0.00    +0.007 C 
ATOM     14  C   UNL     1      32.403  -6.088 -23.870  0.00  0.00    +0.007 C 
ATOM     15  C   UNL     1      35.082  -6.107 -24.647  0.00  0.00    +0.012 C 
ATOM     16  C   UNL     1      32.839  -5.243 -24.891  0.00  0.00    +0.012 C 
ATOM     17  C   UNL     1      34.179  -5.253 -25.280  0.00  0.00    +0.058 C 
ENDBRANCH  10  12
ENDBRANCH   1   4
BRANCH   1  18
ATOM     18  C   UNL     1      33.194 -12.713 -22.607  0.00  0.00    +0.023 C 
BRANCH  18  19
ATOM     19  C   UNL     1      33.265 -13.579 -23.893  0.00  0.00    +0.087 C 
BRANCH  19  20
ATOM     20  N   UNL     1      33.919 -14.934 -23.655  0.00  0.00    -0.246 NA
ATOM     21  N   UNL     1      34.660 -16.987 -24.065  0.00  0.00    -0.251 NA
ATOM     22  C   UNL     1      34.482 -15.368 -22.489  0.00  0.00    +0.125 C 
ATOM     23  C   UNL     1      34.050 -15.939 -24.573  0.00  0.00    +0.201 C 
ATOM     24  C   UNL     1      34.933 -16.637 -22.766  0.00  0.00    +0.124 C 
BRANCH  24  27
ATOM     25  O   UNL     1      35.294 -17.581 -20.639  0.00  0.00    -0.269 OA
ATOM     26  N   UNL     1      36.622 -18.341 -22.346  0.00  0.00    -0.324 N 
ATOM     27  C   UNL     1      35.601 -17.514 -21.855  0.00  0.00    +0.257 C 
ATOM     28  H   UNL     1      37.096 -18.954 -21.738  0.00  0.00    +0.145 HD
ATOM     29  H   UNL     1      36.865 -18.310 -23.300  0.00  0.00    +0.145 HD
ENDBRANCH  24  27
ENDBRANCH  19  20
BRANCH  19  30
ATOM     30  C   UNL     1      33.927 -12.782 -25.049  0.00  0.00    +0.125 C 
ATOM     31  C   UNL     1      34.189 -11.317 -24.716  0.00  0.00    +0.033 C 
BRANCH  30  32
ATOM     32  O   UNL     1      33.140 -12.861 -26.235  0.00  0.00    -0.383 OA
ATOM     33  H   UNL     1      33.708 -13.101 -26.984  0.00  0.00    +0.210 HD
ENDBRANCH  30  32
ENDBRANCH  19  30
ENDBRANCH  18  19
ENDBRANCH   1  18
TORSDOF 8
ENDMDL
MODEL 4
REMARK VINA RESULT:     -10.2     10.191     14.176
REMARK  Name = 46937091
REMARK  8 active torsions:
REMARK  status: ('A' for Active; 'I' for Inactive)
REMARK    1  A    between atoms: C_1  and  C_4
REMARK    2  A    between atoms: C_1  and  C_18
REMARK    3  A    between atoms: C_10  and  C_12
REMARK    4  A    between atoms: C_18  and  C_19
REMARK    5  A    between atoms: C_19  and  N_20
REMARK    6  A    between atoms: C_19  and  C_30
REMARK    7  A    between atoms: C_24  and  C_27
REMARK    8  A    between atoms: C_30  and  O_32
REMARK                            x       y       z     vdW  Elec       q    Type
REMARK                         _______ _______ _______ _____ _____    ______ ____
ROOT
ATOM      1  C   UNL     1      33.539 -12.800 -23.665  0.00  0.00    +0.031 C 
ENDROOT
BRANCH   1   4
ATOM      2  O   UNL     1      32.599 -10.039 -22.746  0.00  0.00    -0.425 OA
ATOM      3  N   UNL     1      31.579  -9.497 -20.797  0.00  0.00    -0.368 NA
ATOM      4  C   UNL     1      32.861 -12.466 -22.361  0.00  0.00    +0.014 C 
ATOM      5  C   UNL     1      32.461 -11.182 -22.011  0.00  0.00    +0.170 C 
ATOM      6  C   UNL     1      32.596 -13.461 -21.414  0.00  0.00    -0.005 C 
ATOM      7  C   UNL     1      31.836 -10.846 -20.819  0.00  0.00    +0.151 C 
ATOM      8  C   UNL     1      31.968 -13.165 -20.199  0.00  0.00    -0.019 C 
ATOM      9  C   UNL     1      31.577 -11.855 -19.881  0.00  0.00    +0.088 C 
ATOM     10  C   UNL     1      32.048  -9.080 -21.952  0.00  0.00    +0.282 C 
BRANCH  10  12
ATOM     11 CL   UNL     1      32.112  -3.582 -24.220  0.00  0.00    -0.082 Cl
ATOM     12  C   UNL     1      32.064  -7.751 -22.500  0.00  0.00    +0.066 C 
ATOM     13  C   UNL     1      30.948  -6.927 -22.361  0.00  0.00    +0.007 C 
ATOM     14  C   UNL     1      33.195  -7.286 -23.170  0.00  0.00    +0.007 C 
ATOM     15  C   UNL     1      30.962  -5.638 -22.893  0.00  0.00    +0.012 C 
ATOM     16  C   UNL     1      33.210  -5.997 -23.702  0.00  0.00    +0.012 C 
ATOM     17  C   UNL     1      32.094  -5.173 -23.563  0.00  0.00    +0.058 C 
ENDBRANCH  10  12
ENDBRANCH   1   4
BRANCH   1  18
ATOM     18  C   UNL     1      34.403 -14.072 -23.625  0.00  0.00    +0.023 C 
BRANCH  18  19
ATOM     19  C   UNL     1      33.682 -15.372 -24.070  0.00  0.00    +0.087 C 
BRANCH  19  20
ATOM     20  N   UNL     1      34.353 -16.631 -23.535  0.00  0.00    -0.246 NA
ATOM     21  N   UNL     1      34.906 -18.773 -23.344  0.00  0.00    -0.251 NA
ATOM     22  C   UNL     1      35.224 -16.700 -22.486  0.00  0.00    +0.125 C 
ATOM     23  C   UNL     1      34.192 -17.899 -24.019  0.00  0.00    +0.201 C 
ATOM     24  C   UNL     1      35.552 -18.032 -22.386  0.00  0.00    +0.124 C 
BRANCH  24  27
ATOM     25  O   UNL     1      36.031 -19.161 -20.376  0.00  0.00    -0.269 OA
ATOM     26  N   UNL     1      37.819 -18.588 -21.691  0.00  0.00    -0.324 N 
ATOM     27  C   UNL     1      36.441 -18.614 -21.430  0.00  0.00    +0.257 C 
ATOM     28  H   UNL     1      38.451 -18.984 -21.047  0.00  0.00    +0.145 HD
ATOM     29  H   UNL     1      38.156 -18.175 -22.519  0.00  0.00    +0.145 HD
ENDBRANCH  24  27
ENDBRANCH  19  20
BRANCH  19  30
ATOM     30  C   UNL     1      33.501 -15.393 -25.612  0.00  0.00    +0.125 C 
ATOM     31  C   UNL     1      33.307 -14.011 -26.228  0.00  0.00    +0.033 C 
BRANCH  30  32
ATOM     32  O   UNL     1      32.407 -16.230 -25.983  0.00  0.00    -0.383 OA
ATOM     33  H   UNL     1      32.260 -16.163 -26.939  0.00  0.00    +0.210 HD
ENDBRANCH  30  32
ENDBRANCH  19  30
ENDBRANCH  18  19
ENDBRANCH   1  18
TORSDOF 8
ENDMDL
MODEL 5
REMARK VINA RESULT:     -10.2      3.002      5.771
REMARK  Name = 46937091
REMARK  8 active torsions:
REMARK  status: ('A' for Active; 'I' for Inactive)
REMARK    1  A    between atoms: C_1  and  C_4
REMARK    2  A    between atoms: C_1  and  C_18
REMARK    3  A    between atoms: C_10  and  C_12
REMARK    4  A    between atoms: C_18  and  C_19
REMARK    5  A    between atoms: C_19  and  N_20
REMARK    6  A    between atoms: C_19  and  C_30
REMARK    7  A    between atoms: C_24  and  C_27
REMARK    8  A    between atoms: C_30  and  O_32
REMARK                            x       y       z     vdW  Elec       q    Type
REMARK                         _______ _______ _______ _____ _____    ______ ____
ROOT
ATOM      1  C   UNL     1      32.722 -22.430 -18.000  0.00  0.00    +0.031 C 
ENDROOT
BRANCH   1   4
ATOM      2  O   UNL     1      34.340 -20.632 -19.870  0.00  0.00    -0.425 OA
ATOM      3  N   UNL     1      36.567 -20.216 -19.816  0.00  0.00    -0.368 NA
ATOM      4  C   UNL     1      34.205 -22.169 -17.941  0.00  0.00    +0.014 C 
ATOM      5  C   UNL     1      34.874 -21.336 -18.830  0.00  0.00    +0.170 C 
ATOM      6  C   UNL     1      35.002 -22.773 -16.961  0.00  0.00    -0.005 C 
ATOM      7  C   UNL     1      36.237 -21.079 -18.799  0.00  0.00    +0.151 C 
ATOM      8  C   UNL     1      36.381 -22.540 -16.896  0.00  0.00    -0.019 C 
ATOM      9  C   UNL     1      37.020 -21.691 -17.811  0.00  0.00    +0.088 C 
ATOM     10  C   UNL     1      35.415 -19.990 -20.407  0.00  0.00    +0.282 C 
BRANCH  10  12
ATOM     11 CL   UNL     1      34.213 -16.554 -25.110  0.00  0.00    -0.082 Cl
ATOM     12  C   UNL     1      35.124 -19.160 -21.544  0.00  0.00    +0.066 C 
ATOM     13  C   UNL     1      35.399 -17.794 -21.498  0.00  0.00    +0.007 C 
ATOM     14  C   UNL     1      34.569 -19.721 -22.694  0.00  0.00    +0.007 C 
ATOM     15  C   UNL     1      35.117 -16.988 -22.600  0.00  0.00    +0.012 C 
ATOM     16  C   UNL     1      34.286 -18.915 -23.796  0.00  0.00    +0.012 C 
ATOM     17  C   UNL     1      34.561 -17.549 -23.750  0.00  0.00    +0.058 C 
ENDBRANCH  10  12
ENDBRANCH   1   4
BRANCH   1  18
ATOM     18  C   UNL     1      32.217 -23.469 -16.984  0.00  0.00    +0.023 C 
BRANCH  18  19
ATOM     19  C   UNL     1      31.549 -22.878 -15.714  0.00  0.00    +0.087 C 
BRANCH  19  20
ATOM     20  N   UNL     1      32.239 -23.316 -14.427  0.00  0.00    -0.246 NA
ATOM     21  N   UNL     1      32.592 -23.619 -12.256  0.00  0.00    -0.251 NA
ATOM     22  C   UNL     1      33.436 -23.965 -14.332  0.00  0.00    +0.125 C 
ATOM     23  C   UNL     1      31.769 -23.129 -13.157  0.00  0.00    +0.201 C 
ATOM     24  C   UNL     1      33.634 -24.142 -12.982  0.00  0.00    +0.124 C 
BRANCH  24  27
ATOM     25  O   UNL     1      34.845 -24.939 -11.126  0.00  0.00    -0.269 OA
ATOM     26  N   UNL     1      35.790 -25.256 -13.190  0.00  0.00    -0.324 N 
ATOM     27  C   UNL     1      34.758 -24.779 -12.369  0.00  0.00    +0.257 C 
ATOM     28  H   UNL     1      36.574 -25.698 -12.790  0.00  0.00    +0.145 HD
ATOM     29  H   UNL     1      35.731 -25.149 -14.167  0.00  0.00    +0.145 HD
ENDBRANCH  24  27
ENDBRANCH  19  20
BRANCH  19  30
ATOM     30  C   UNL     1      30.025 -23.173 -15.714  0.00  0.00    +0.125 C 
ATOM     31  C   UNL     1      29.685 -24.659 -15.696  0.00  0.00    +0.033 C 
BRANCH  30  32
ATOM     32  O   UNL     1      29.391 -22.559 -16.834  0.00  0.00    -0.383 OA
ATOM     33  H   UNL     1      29.963 -22.640 -17.613  0.00  0.00    +0.210 HD
ENDBRANCH  30  32
ENDBRANCH  19  30
ENDBRANCH  18  19
ENDBRANCH   1  18
TORSDOF 8
ENDMDL
MODEL 6
REMARK VINA RESULT:     -10.1      2.775      7.128
REMARK  Name = 46937091
REMARK  8 active torsions:
REMARK  status: ('A' for Active; 'I' for Inactive)
REMARK    1  A    between atoms: C_1  and  C_4
REMARK    2  A    between atoms: C_1  and  C_18
REMARK    3  A    between atoms: C_10  and  C_12
REMARK    4  A    between atoms: C_18  and  C_19
REMARK    5  A    between atoms: C_19  and  N_20
REMARK    6  A    between atoms: C_19  and  C_30
REMARK    7  A    between atoms: C_24  and  C_27
REMARK    8  A    between atoms: C_30  and  O_32
REMARK                            x       y       z     vdW  Elec       q    Type
REMARK                         _______ _______ _______ _____ _____    ______ ____
ROOT
ATOM      1  C   UNL     1      33.271 -24.895 -14.632  0.00  0.00    +0.031 C 
ENDROOT
BRANCH   1   4
ATOM      2  O   UNL     1      34.646 -23.039 -16.636  0.00  0.00    -0.425 OA
ATOM      3  N   UNL     1      36.777 -22.271 -16.584  0.00  0.00    -0.368 NA
ATOM      4  C   UNL     1      34.693 -24.397 -14.573  0.00  0.00    +0.014 C 
ATOM      5  C   UNL     1      35.251 -23.552 -15.525  0.00  0.00    +0.170 C 
ATOM      6  C   UNL     1      35.542 -24.775 -13.527  0.00  0.00    -0.005 C 
ATOM      7  C   UNL     1      36.555 -23.080 -15.495  0.00  0.00    +0.151 C 
ATOM      8  C   UNL     1      36.865 -24.320 -13.460  0.00  0.00    -0.019 C 
ATOM      9  C   UNL     1      37.392 -23.467 -14.441  0.00  0.00    +0.088 C 
ATOM     10  C   UNL     1      35.623 -22.286 -17.213  0.00  0.00    +0.282 C 
BRANCH  10  12
ATOM     11 CL   UNL     1      34.050 -19.528 -22.242  0.00  0.00    -0.082 Cl
ATOM     12  C   UNL     1      35.242 -21.620 -18.428  0.00  0.00    +0.066 C 
ATOM     13  C   UNL     1      36.215 -21.022 -19.230  0.00  0.00    +0.007 C 
ATOM     14  C   UNL     1      33.901 -21.571 -18.807  0.00  0.00    +0.007 C 
ATOM     15  C   UNL     1      35.846 -20.375 -20.409  0.00  0.00    +0.012 C 
ATOM     16  C   UNL     1      33.532 -20.924 -19.986  0.00  0.00    +0.012 C 
ATOM     17  C   UNL     1      34.505 -20.326 -20.787  0.00  0.00    +0.058 C 
ENDBRANCH  10  12
ENDBRANCH   1   4
BRANCH   1  18
ATOM     18  C   UNL     1      32.215 -23.785 -14.771  0.00  0.00    +0.023 C 
BRANCH  18  19
ATOM     19  C   UNL     1      30.767 -24.205 -14.404  0.00  0.00    +0.087 C 
BRANCH  19  20
ATOM     20  N   UNL     1      29.713 -23.454 -15.208  0.00  0.00    -0.246 NA
ATOM     21  N   UNL     1      28.815 -22.233 -16.832  0.00  0.00    -0.251 NA
ATOM     22  C   UNL     1      28.391 -23.329 -14.893  0.00  0.00    +0.125 C 
ATOM     23  C   UNL     1      29.922 -22.780 -16.380  0.00  0.00    +0.201 C 
ATOM     24  C   UNL     1      27.856 -22.572 -15.909  0.00  0.00    +0.124 C 
BRANCH  24  27
ATOM     25  O   UNL     1      25.659 -22.312 -15.101  0.00  0.00    -0.269 OA
ATOM     26  N   UNL     1      26.073 -21.567 -17.230  0.00  0.00    -0.324 N 
ATOM     27  C   UNL     1      26.490 -22.166 -16.032  0.00  0.00    +0.257 C 
ATOM     28  H   UNL     1      25.137 -21.278 -17.337  0.00  0.00    +0.145 HD
ATOM     29  H   UNL     1      26.715 -21.434 -17.963  0.00  0.00    +0.145 HD
ENDBRANCH  24  27
ENDBRANCH  19  20
BRANCH  19  30
ATOM     30  C   UNL     1      30.544 -24.103 -12.871  0.00  0.00    +0.125 C 
ATOM     31  C   UNL     1      31.363 -23.006 -12.201  0.00  0.00    +0.033 C 
BRANCH  30  32
ATOM     32  O   UNL     1      30.818 -25.350 -12.235  0.00  0.00    -0.383 OA
ATOM     33  H   UNL     1      31.124 -25.989 -12.897  0.00  0.00    +0.210 HD
ENDBRANCH  30  32
ENDBRANCH  19  30
ENDBRANCH  18  19
ENDBRANCH   1  18
TORSDOF 8
ENDMDL
MODEL 7
REMARK VINA RESULT:     -10.0      3.617      7.722
REMARK  Name = 46937091
REMARK  8 active torsions:
REMARK  status: ('A' for Active; 'I' for Inactive)
REMARK    1  A    between atoms: C_1  and  C_4
REMARK    2  A    between atoms: C_1  and  C_18
REMARK    3  A    between atoms: C_10  and  C_12
REMARK    4  A    between atoms: C_18  and  C_19
REMARK    5  A    between atoms: C_19  and  N_20
REMARK    6  A    between atoms: C_19  and  C_30
REMARK    7  A    between atoms: C_24  and  C_27
REMARK    8  A    between atoms: C_30  and  O_32
REMARK                            x       y       z     vdW  Elec       q    Type
REMARK                         _______ _______ _______ _____ _____    ______ ____
ROOT
ATOM      1  C   UNL     1      36.997 -22.074 -16.901  0.00  0.00    +0.031 C 
ENDROOT
BRANCH   1   4
ATOM      2  O   UNL     1      34.445 -23.013 -15.503  0.00  0.00    -0.425 OA
ATOM      3  N   UNL     1      34.265 -24.423 -13.739  0.00  0.00    -0.368 NA
ATOM      4  C   UNL     1      36.906 -23.015 -15.728  0.00  0.00    +0.014 C 
ATOM      5  C   UNL     1      35.704 -23.397 -15.143  0.00  0.00    +0.170 C 
ATOM      6  C   UNL     1      38.059 -23.563 -15.155  0.00  0.00    -0.005 C 
ATOM      7  C   UNL     1      35.590 -24.261 -14.063  0.00  0.00    +0.151 C 
ATOM      8  C   UNL     1      37.988 -24.438 -14.064  0.00  0.00    -0.019 C 
ATOM      9  C   UNL     1      36.755 -24.802 -13.501  0.00  0.00    +0.088 C 
ATOM     10  C   UNL     1      33.644 -23.668 -14.618  0.00  0.00    +0.282 C 
BRANCH  10  12
ATOM     11 CL   UNL     1      27.815 -22.693 -15.284  0.00  0.00    -0.082 Cl
ATOM     12  C   UNL     1      32.236 -23.432 -14.779  0.00  0.00    +0.066 C 
ATOM     13  C   UNL     1      31.384 -23.520 -13.678  0.00  0.00    +0.007 C 
ATOM     14  C   UNL     1      31.721 -23.115 -16.036  0.00  0.00    +0.007 C 
ATOM     15  C   UNL     1      30.017 -23.292 -13.835  0.00  0.00    +0.012 C 
ATOM     16  C   UNL     1      30.354 -22.887 -16.192  0.00  0.00    +0.012 C 
ATOM     17  C   UNL     1      29.502 -22.975 -15.091  0.00  0.00    +0.058 C 
ENDBRANCH  10  12
ENDBRANCH   1   4
BRANCH   1  18
ATOM     18  C   UNL     1      35.638 -21.639 -17.475  0.00  0.00    +0.023 C 
BRANCH  18  19
ATOM     19  C   UNL     1      35.438 -21.931 -18.987  0.00  0.00    +0.087 C 
BRANCH  19  20
ATOM     20  N   UNL     1      35.724 -20.719 -19.864  0.00  0.00    -0.246 NA
ATOM     21  N   UNL     1      36.787 -18.952 -20.687  0.00  0.00    -0.251 NA
ATOM     22  C   UNL     1      34.925 -20.233 -20.858  0.00  0.00    +0.125 C 
ATOM     23  C   UNL     1      36.830 -19.918 -19.797  0.00  0.00    +0.201 C 
ATOM     24  C   UNL     1      35.601 -19.142 -21.353  0.00  0.00    +0.124 C 
BRANCH  24  27
ATOM     25  O   UNL     1      34.277 -18.632 -23.232  0.00  0.00    -0.269 OA
ATOM     26  N   UNL     1      35.749 -17.018 -22.536  0.00  0.00    -0.324 N 
ATOM     27  C   UNL     1      35.168 -18.289 -22.416  0.00  0.00    +0.257 C 
ATOM     28  H   UNL     1      35.466 -16.413 -23.260  0.00  0.00    +0.145 HD
ATOM     29  H   UNL     1      36.439 -16.730 -21.896  0.00  0.00    +0.145 HD
ENDBRANCH  24  27
ENDBRANCH  19  20
BRANCH  19  30
ATOM     30  C   UNL     1      34.034 -22.544 -19.240  0.00  0.00    +0.125 C 
ATOM     31  C   UNL     1      32.881 -21.622 -18.856  0.00  0.00    +0.033 C 
BRANCH  30  32
ATOM     32  O   UNL     1      33.891 -23.786 -18.555  0.00  0.00    -0.383 OA
ATOM     33  H   UNL     1      34.757 -24.073 -18.224  0.00  0.00    +0.210 HD
ENDBRANCH  30  32
ENDBRANCH  19  30
ENDBRANCH  18  19
ENDBRANCH   1  18
TORSDOF 8
ENDMDL
MODEL 8
REMARK VINA RESULT:      -9.8     10.814     15.855
REMARK  Name = 46937091
REMARK  8 active torsions:
REMARK  status: ('A' for Active; 'I' for Inactive)
REMARK    1  A    between atoms: C_1  and  C_4
REMARK    2  A    between atoms: C_1  and  C_18
REMARK    3  A    between atoms: C_10  and  C_12
REMARK    4  A    between atoms: C_18  and  C_19
REMARK    5  A    between atoms: C_19  and  N_20
REMARK    6  A    between atoms: C_19  and  C_30
REMARK    7  A    between atoms: C_24  and  C_27
REMARK    8  A    between atoms: C_30  and  O_32
REMARK                            x       y       z     vdW  Elec       q    Type
REMARK                         _______ _______ _______ _____ _____    ______ ____
ROOT
ATOM      1  C   UNL     1      33.726 -11.910 -23.079  0.00  0.00    +0.031 C 
ENDROOT
BRANCH   1   4
ATOM      2  O   UNL     1      34.201 -14.918 -23.349  0.00  0.00    -0.425 OA
ATOM      3  N   UNL     1      34.100 -16.178 -25.230  0.00  0.00    -0.368 NA
ATOM      4  C   UNL     1      33.650 -12.725 -24.345  0.00  0.00    +0.014 C 
ATOM      5  C   UNL     1      33.881 -14.095 -24.390  0.00  0.00    +0.170 C 
ATOM      6  C   UNL     1      33.338 -12.123 -25.569  0.00  0.00    -0.005 C 
ATOM      7  C   UNL     1      33.819 -14.869 -25.540  0.00  0.00    +0.151 C 
ATOM      8  C   UNL     1      33.266 -12.869 -26.752  0.00  0.00    -0.019 C 
ATOM      9  C   UNL     1      33.504 -14.251 -26.758  0.00  0.00    +0.088 C 
ATOM     10  C   UNL     1      34.315 -16.143 -23.934  0.00  0.00    +0.282 C 
BRANCH  10  12
ATOM     11 CL   UNL     1      35.718 -20.582 -20.232  0.00  0.00    -0.082 Cl
ATOM     12  C   UNL     1      34.653 -17.216 -23.040  0.00  0.00    +0.066 C 
ATOM     13  C   UNL     1      35.160 -16.933 -21.771  0.00  0.00    +0.007 C 
ATOM     14  C   UNL     1      34.476 -18.540 -23.440  0.00  0.00    +0.007 C 
ATOM     15  C   UNL     1      35.489 -17.973 -20.903  0.00  0.00    +0.012 C 
ATOM     16  C   UNL     1      34.806 -19.581 -22.572  0.00  0.00    +0.012 C 
ATOM     17  C   UNL     1      35.312 -19.297 -21.303  0.00  0.00    +0.058 C 
ENDBRANCH  10  12
ENDBRANCH   1   4
BRANCH   1  18
ATOM     18  C   UNL     1      33.561 -10.394 -23.288  0.00  0.00    +0.023 C 
BRANCH  18  19
ATOM     19  C   UNL     1      32.274  -9.781 -22.676  0.00  0.00    +0.087 C 
BRANCH  19  20
ATOM     20  N   UNL     1      32.293  -8.257 -22.671  0.00  0.00    -0.246 NA
ATOM     21  N   UNL     1      33.090  -6.186 -22.750  0.00  0.00    -0.251 NA
ATOM     22  C   UNL     1      31.210  -7.435 -22.544  0.00  0.00    +0.125 C 
ATOM     23  C   UNL     1      33.399  -7.464 -22.791  0.00  0.00    +0.201 C 
ATOM     24  C   UNL     1      31.726  -6.162 -22.596  0.00  0.00    +0.124 C 
BRANCH  24  27
ATOM     25  O   UNL     1      30.861  -4.156 -23.477  0.00  0.00    -0.269 OA
ATOM     26  N   UNL     1      30.353  -4.630 -21.292  0.00  0.00    -0.324 N 
ATOM     27  C   UNL     1      30.983  -4.944 -22.506  0.00  0.00    +0.257 C 
ATOM     28  H   UNL     1      29.835  -3.796 -21.206  0.00  0.00    +0.145 HD
ATOM     29  H   UNL     1      30.429  -5.243 -20.526  0.00  0.00    +0.145 HD
ENDBRANCH  24  27
ENDBRANCH  19  20
BRANCH  19  30
ATOM     30  C   UNL     1      31.997 -10.388 -21.274  0.00  0.00    +0.125 C 
ATOM     31  C   UNL     1      30.618 -11.024 -21.140  0.00  0.00    +0.033 C 
BRANCH  30  32
ATOM     32  O   UNL     1      32.162  -9.404 -20.255  0.00  0.00    -0.383 OA
ATOM     33  H   UNL     1      32.004  -9.809 -19.387  0.00  0.00    +0.210 HD
ENDBRANCH  30  32
ENDBRANCH  19  30
ENDBRANCH  18  19
ENDBRANCH   1  18
TORSDOF 8
ENDMDL
MODEL 9
REMARK VINA RESULT:      -9.7      3.599      8.527
REMARK  Name = 46937091
REMARK  8 active torsions:
REMARK  status: ('A' for Active; 'I' for Inactive)
REMARK    1  A    between atoms: C_1  and  C_4
REMARK    2  A    between atoms: C_1  and  C_18
REMARK    3  A    between atoms: C_10  and  C_12
REMARK    4  A    between atoms: C_18  and  C_19
REMARK    5  A    between atoms: C_19  and  N_20
REMARK    6  A    between atoms: C_19  and  C_30
REMARK    7  A    between atoms: C_24  and  C_27
REMARK    8  A    between atoms: C_30  and  O_32
REMARK                            x       y       z     vdW  Elec       q    Type
REMARK                         _______ _______ _______ _____ _____    ______ ____
ROOT
ATOM      1  C   UNL     1      32.176 -22.958 -17.530  0.00  0.00    +0.031 C 
ENDROOT
BRANCH   1   4
ATOM      2  O   UNL     1      34.912 -23.135 -16.176  0.00  0.00    -0.425 OA
ATOM      3  N   UNL     1      36.883 -22.290 -16.908  0.00  0.00    -0.368 NA
ATOM      4  C   UNL     1      33.474 -22.387 -18.041  0.00  0.00    +0.014 C 
ATOM      5  C   UNL     1      34.683 -22.507 -17.366  0.00  0.00    +0.170 C 
ATOM      6  C   UNL     1      33.523 -21.688 -19.252  0.00  0.00    -0.005 C 
ATOM      7  C   UNL     1      35.892 -21.992 -17.813  0.00  0.00    +0.151 C 
ATOM      8  C   UNL     1      34.722 -21.151 -19.737  0.00  0.00    -0.019 C 
ATOM      9  C   UNL     1      35.924 -21.294 -19.028  0.00  0.00    +0.088 C 
ATOM     10  C   UNL     1      36.247 -22.960 -15.973  0.00  0.00    +0.282 C 
BRANCH  10  12
ATOM     11 CL   UNL     1      38.373 -25.349 -10.959  0.00  0.00    -0.082 Cl
ATOM     12  C   UNL     1      36.760 -23.537 -14.761  0.00  0.00    +0.066 C 
ATOM     13  C   UNL     1      37.868 -24.384 -14.807  0.00  0.00    +0.007 C 
ATOM     14  C   UNL     1      36.153 -23.250 -13.539  0.00  0.00    +0.007 C 
ATOM     15  C   UNL     1      38.366 -24.944 -13.631  0.00  0.00    +0.012 C 
ATOM     16  C   UNL     1      36.651 -23.810 -12.364  0.00  0.00    +0.012 C 
ATOM     17  C   UNL     1      37.758 -24.657 -12.410  0.00  0.00    +0.058 C 
ENDBRANCH  10  12
ENDBRANCH   1   4
BRANCH   1  18
ATOM     18  C   UNL     1      32.012 -22.896 -16.002  0.00  0.00    +0.023 C 
BRANCH  18  19
ATOM     19  C   UNL     1      31.020 -23.929 -15.403  0.00  0.00    +0.087 C 
BRANCH  19  20
ATOM     20  N   UNL     1      29.581 -23.684 -15.841  0.00  0.00    -0.246 NA
ATOM     21  N   UNL     1      27.588 -24.065 -16.745  0.00  0.00    -0.251 NA
ATOM     22  C   UNL     1      28.857 -22.545 -15.640  0.00  0.00    +0.125 C 
ATOM     23  C   UNL     1      28.779 -24.569 -16.507  0.00  0.00    +0.201 C 
ATOM     24  C   UNL     1      27.630 -22.803 -16.206  0.00  0.00    +0.124 C 
BRANCH  24  27
ATOM     25  O   UNL     1      26.346 -21.094 -17.196  0.00  0.00    -0.269 OA
ATOM     26  N   UNL     1      25.571 -21.955 -15.217  0.00  0.00    -0.324 N 
ATOM     27  C   UNL     1      26.516 -21.907 -16.253  0.00  0.00    +0.257 C 
ATOM     28  H   UNL     1      24.795 -21.348 -15.229  0.00  0.00    +0.145 HD
ATOM     29  H   UNL     1      25.683 -22.596 -14.479  0.00  0.00    +0.145 HD
ENDBRANCH  24  27
ENDBRANCH  19  20
BRANCH  19  30
ATOM     30  C   UNL     1      31.179 -24.004 -13.861  0.00  0.00    +0.125 C 
ATOM     31  C   UNL     1      32.583 -24.384 -13.403  0.00  0.00    +0.033 C 
BRANCH  30  32
ATOM     32  O   UNL     1      30.238 -24.916 -13.299  0.00  0.00    -0.383 OA
ATOM     33  H   UNL     1      29.440 -24.938 -13.850  0.00  0.00    +0.210 HD
ENDBRANCH  30  32
ENDBRANCH  19  30
ENDBRANCH  18  19
ENDBRANCH   1  18
TORSDOF 8
ENDMDL
