MODEL 1
REMARK VINA RESULT:     -12.1      0.000      0.000
REMARK  Name = 11633167
REMARK  7 active torsions:
REMARK  status: ('A' for Active; 'I' for Inactive)
REMARK    1  A    between atoms: C_1  and  C_8
REMARK    2  A    between atoms: C_2  and  C_25
REMARK    3  A    between atoms: C_4  and  O_17
REMARK    4  A    between atoms: O_17  and  C_18
REMARK    5  A    between atoms: C_18  and  C_20
REMARK    6  A    between atoms: C_25  and  N_26
REMARK    7  A    between atoms: N_26  and  C_29
REMARK                            x       y       z     vdW  Elec       q    Type
REMARK                         _______ _______ _______ _____ _____    ______ ____
ROOT
ATOM      1  C   UNL     1      35.148 -20.276 -20.310  0.00  0.00    -0.000 C 
ATOM      2  C   UNL     1      34.231 -21.846 -18.720  0.00  0.00    +0.031 C 
ATOM      3  C   UNL     1      34.053 -20.961 -19.784  0.00  0.00    +0.000 C 
ATOM      4  C   UNL     1      35.502 -22.045 -18.184  0.00  0.00    +0.137 C 
ATOM      5  C   UNL     1      36.419 -20.475 -19.774  0.00  0.00    +0.003 C 
ATOM      6  C   UNL     1      36.597 -21.361 -18.711  0.00  0.00    +0.037 C 
ENDROOT
BRANCH   1   8
ATOM      7  N   UNL     1      35.008 -15.760 -22.370  0.00  0.00    -0.312 N 
ATOM      8  C   UNL     1      34.964 -19.358 -21.413  0.00  0.00    +0.001 C 
ATOM      9  C   UNL     1      34.927 -17.132 -22.289  0.00  0.00    +0.048 C 
ATOM     10  C   UNL     1      34.604 -17.600 -23.565  0.00  0.00    +0.015 C 
ATOM     11  C   UNL     1      35.113 -17.985 -21.195  0.00  0.00    +0.015 C 
ATOM     12  C   UNL     1      34.642 -19.854 -22.674  0.00  0.00    +0.000 C 
ATOM     13  C   UNL     1      34.459 -18.989 -23.760  0.00  0.00    +0.001 C 
ATOM     14  C   UNL     1      34.496 -16.464 -24.413  0.00  0.00    +0.017 C 
ATOM     15  C   UNL     1      34.749 -15.346 -23.650  0.00  0.00    +0.062 C 
ATOM     16  H   UNL     1      35.221 -15.162 -21.618  0.00  0.00    +0.152 HD
ENDBRANCH   1   8
BRANCH   4  17
ATOM     17  O   UNL     1      35.694 -22.905 -17.145  0.00  0.00    -0.469 OA
BRANCH  17  18
ATOM     18  C   UNL     1      36.591 -22.491 -16.117  0.00  0.00    +0.251 C 
BRANCH  18  20
ATOM     19  N   UNL     1      36.007 -24.705 -15.330  0.00  0.00    -0.244 NA
ATOM     20  C   UNL     1      36.629 -23.543 -15.047  0.00  0.00    +0.103 C 
ATOM     21  C   UNL     1      37.284 -23.271 -13.861  0.00  0.00    +0.018 C 
ATOM     22  C   UNL     1      37.300 -24.266 -12.891  0.00  0.00    +0.003 C 
ATOM     23  C   UNL     1      36.045 -25.649 -14.363  0.00  0.00    +0.099 C 
ATOM     24  C   UNL     1      36.672 -25.482 -13.139  0.00  0.00    +0.021 C 
ENDBRANCH  18  20
ENDBRANCH  17  18
ENDBRANCH   4  17
BRANCH   2  25
ATOM     25  C   UNL     1      33.049 -22.571 -18.168  0.00  0.00    +0.117 C 
BRANCH  25  26
ATOM     26  N   UNL     1      33.162 -22.805 -16.728  0.00  0.00    -0.327 N 
ATOM     27  H   UNL     1      34.061 -22.856 -16.329  0.00  0.00    +0.147 HD
BRANCH  26  29
ATOM     28  N   UNL     1      31.123 -23.276 -13.672  0.00  0.00    -0.228 NA
ATOM     29  C   UNL     1      32.072 -22.956 -15.903  0.00  0.00    +0.077 C 
ATOM     30  C   UNL     1      32.170 -23.124 -14.514  0.00  0.00    +0.139 C 
ATOM     31  C   UNL     1      30.765 -22.951 -16.425  0.00  0.00    +0.019 C 
ATOM     32  C   UNL     1      29.663 -23.105 -15.591  0.00  0.00    +0.022 C 
ATOM     33  C   UNL     1      29.895 -23.262 -14.234  0.00  0.00    +0.100 C 
ATOM     34  N   UNL     1      33.473 -23.134 -13.954  0.00  0.00    -0.342 N 
ATOM     35  H   UNL     1      33.590 -23.248 -12.984  0.00  0.00    +0.144 HD
ATOM     36  H   UNL     1      34.260 -23.026 -14.536  0.00  0.00    +0.144 HD
ENDBRANCH  26  29
ENDBRANCH  25  26
ENDBRANCH   2  25
TORSDOF 7
ENDMDL
MODEL 2
REMARK VINA RESULT:     -12.1      1.642      4.934
REMARK  Name = 11633167
REMARK  7 active torsions:
REMARK  status: ('A' for Active; 'I' for Inactive)
REMARK    1  A    between atoms: C_1  and  C_8
REMARK    2  A    between atoms: C_2  and  C_25
REMARK    3  A    between atoms: C_4  and  O_17
REMARK    4  A    between atoms: O_17  and  C_18
REMARK    5  A    between atoms: C_18  and  C_20
REMARK    6  A    between atoms: C_25  and  N_26
REMARK    7  A    between atoms: N_26  and  C_29
REMARK                            x       y       z     vdW  Elec       q    Type
REMARK                         _______ _______ _______ _____ _____    ______ ____
ROOT
ATOM      1  C   UNL     1      34.998 -21.641 -18.563  0.00  0.00    -0.000 C 
ATOM      2  C   UNL     1      35.669 -22.658 -16.478  0.00  0.00    +0.031 C 
ATOM      3  C   UNL     1      35.941 -21.805 -17.548  0.00  0.00    +0.000 C 
ATOM      4  C   UNL     1      34.457 -23.344 -16.422  0.00  0.00    +0.137 C 
ATOM      5  C   UNL     1      33.786 -22.326 -18.508  0.00  0.00    +0.003 C 
ATOM      6  C   UNL     1      33.514 -23.178 -17.437  0.00  0.00    +0.037 C 
ENDROOT
BRANCH   1   8
ATOM      7  N   UNL     1      33.789 -19.128 -22.672  0.00  0.00    -0.312 N 
ATOM      8  C   UNL     1      35.279 -20.757 -19.674  0.00  0.00    +0.001 C 
ATOM      9  C   UNL     1      34.575 -19.595 -21.643  0.00  0.00    +0.048 C 
ATOM     10  C   UNL     1      35.847 -19.044 -21.816  0.00  0.00    +0.015 C 
ATOM     11  C   UNL     1      34.261 -20.453 -20.583  0.00  0.00    +0.015 C 
ATOM     12  C   UNL     1      36.557 -20.222 -19.822  0.00  0.00    +0.000 C 
ATOM     13  C   UNL     1      36.857 -19.365 -20.887  0.00  0.00    +0.001 C 
ATOM     14  C   UNL     1      35.795 -18.230 -22.982  0.00  0.00    +0.017 C 
ATOM     15  C   UNL     1      34.517 -18.303 -23.487  0.00  0.00    +0.062 C 
ATOM     16  H   UNL     1      32.840 -19.354 -22.804  0.00  0.00    +0.152 HD
ENDBRANCH   1   8
BRANCH   4  17
ATOM     17  O   UNL     1      34.175 -24.180 -15.384  0.00  0.00    -0.469 OA
BRANCH  17  18
ATOM     18  C   UNL     1      33.554 -23.603 -14.237  0.00  0.00    +0.251 C 
BRANCH  18  20
ATOM     19  N   UNL     1      31.713 -25.138 -13.897  0.00  0.00    -0.244 NA
ATOM     20  C   UNL     1      32.083 -23.898 -14.276  0.00  0.00    +0.103 C 
ATOM     21  C   UNL     1      31.211 -22.910 -14.687  0.00  0.00    +0.018 C 
ATOM     22  C   UNL     1      29.855 -23.216 -14.712  0.00  0.00    +0.003 C 
ATOM     23  C   UNL     1      30.387 -25.399 -13.934  0.00  0.00    +0.099 C 
ATOM     24  C   UNL     1      29.427 -24.482 -14.329  0.00  0.00    +0.021 C 
ENDBRANCH  18  20
ENDBRANCH  17  18
ENDBRANCH   4  17
BRANCH   2  25
ATOM     25  C   UNL     1      36.689 -22.823 -15.400  0.00  0.00    +0.117 C 
BRANCH  25  26
ATOM     26  N   UNL     1      37.140 -24.209 -15.270  0.00  0.00    -0.327 N 
ATOM     27  H   UNL     1      37.376 -24.705 -16.088  0.00  0.00    +0.147 HD
BRANCH  26  29
ATOM     28  N   UNL     1      36.811 -26.791 -12.636  0.00  0.00    -0.228 NA
ATOM     29  C   UNL     1      37.252 -24.852 -14.060  0.00  0.00    +0.077 C 
ATOM     30  C   UNL     1      36.723 -26.128 -13.810  0.00  0.00    +0.139 C 
ATOM     31  C   UNL     1      37.920 -24.248 -12.979  0.00  0.00    +0.019 C 
ATOM     32  C   UNL     1      38.033 -24.899 -11.755  0.00  0.00    +0.022 C 
ATOM     33  C   UNL     1      37.466 -26.159 -11.637  0.00  0.00    +0.100 C 
ATOM     34  N   UNL     1      36.042 -26.766 -14.877  0.00  0.00    -0.342 N 
ATOM     35  H   UNL     1      35.655 -27.662 -14.748  0.00  0.00    +0.144 HD
ATOM     36  H   UNL     1      35.957 -26.313 -15.748  0.00  0.00    +0.144 HD
ENDBRANCH  26  29
ENDBRANCH  25  26
ENDBRANCH   2  25
TORSDOF 7
ENDMDL
MODEL 3
REMARK VINA RESULT:     -11.9      1.471      2.117
REMARK  Name = 11633167
REMARK  7 active torsions:
REMARK  status: ('A' for Active; 'I' for Inactive)
REMARK    1  A    between atoms: C_1  and  C_8
REMARK    2  A    between atoms: C_2  and  C_25
REMARK    3  A    between atoms: C_4  and  O_17
REMARK    4  A    between atoms: O_17  and  C_18
REMARK    5  A    between atoms: C_18  and  C_20
REMARK    6  A    between atoms: C_25  and  N_26
REMARK    7  A    between atoms: N_26  and  C_29
REMARK                            x       y       z     vdW  Elec       q    Type
REMARK                         _______ _______ _______ _____ _____    ______ ____
ROOT
ATOM      1  C   UNL     1      35.324 -20.850 -19.553  0.00  0.00    -0.000 C 
ATOM      2  C   UNL     1      34.144 -22.353 -18.077  0.00  0.00    +0.031 C 
ATOM      3  C   UNL     1      34.145 -21.489 -19.172  0.00  0.00    +0.000 C 
ATOM      4  C   UNL     1      35.322 -22.578 -17.365  0.00  0.00    +0.137 C 
ATOM      5  C   UNL     1      36.502 -21.074 -18.842  0.00  0.00    +0.003 C 
ATOM      6  C   UNL     1      36.501 -21.939 -17.748  0.00  0.00    +0.037 C 
ENDROOT
BRANCH   1   8
ATOM      7  N   UNL     1      33.405 -18.919 -23.707  0.00  0.00    -0.312 N 
ATOM      8  C   UNL     1      35.325 -19.953 -20.690  0.00  0.00    +0.001 C 
ATOM      9  C   UNL     1      34.300 -19.104 -22.677  0.00  0.00    +0.048 C 
ATOM     10  C   UNL     1      35.351 -18.206 -22.879  0.00  0.00    +0.015 C 
ATOM     11  C   UNL     1      34.259 -19.988 -21.593  0.00  0.00    +0.015 C 
ATOM     12  C   UNL     1      36.387 -19.069 -20.866  0.00  0.00    +0.000 C 
ATOM     13  C   UNL     1      36.415 -18.190 -21.955  0.00  0.00    +0.001 C 
ATOM     14  C   UNL     1      35.055 -17.476 -24.063  0.00  0.00    +0.017 C 
ATOM     15  C   UNL     1      33.853 -17.937 -24.551  0.00  0.00    +0.062 C 
ATOM     16  H   UNL     1      32.565 -19.419 -23.821  0.00  0.00    +0.152 HD
ENDBRANCH   1   8
BRANCH   4  17
ATOM     17  O   UNL     1      35.339 -23.419 -16.293  0.00  0.00    -0.469 OA
BRANCH  17  18
ATOM     18  C   UNL     1      35.926 -22.925 -15.091  0.00  0.00    +0.251 C 
BRANCH  18  20
ATOM     19  N   UNL     1      37.641 -23.703 -13.569  0.00  0.00    -0.244 NA
ATOM     20  C   UNL     1      36.630 -24.050 -14.391  0.00  0.00    +0.103 C 
ATOM     21  C   UNL     1      36.215 -25.347 -14.620  0.00  0.00    +0.018 C 
ATOM     22  C   UNL     1      36.888 -26.366 -13.956  0.00  0.00    +0.003 C 
ATOM     23  C   UNL     1      38.272 -24.720 -12.942  0.00  0.00    +0.099 C 
ATOM     24  C   UNL     1      37.938 -26.056 -13.099  0.00  0.00    +0.021 C 
ENDBRANCH  18  20
ENDBRANCH  17  18
ENDBRANCH   4  17
BRANCH   2  25
ATOM     25  C   UNL     1      32.873 -23.029 -17.681  0.00  0.00    +0.117 C 
BRANCH  25  26
ATOM     26  N   UNL     1      32.391 -22.584 -16.373  0.00  0.00    -0.327 N 
ATOM     27  H   UNL     1      32.553 -21.651 -16.105  0.00  0.00    +0.147 HD
BRANCH  26  29
ATOM     28  N   UNL     1      29.638 -24.384 -14.671  0.00  0.00    -0.228 NA
ATOM     29  C   UNL     1      31.722 -23.409 -15.499  0.00  0.00    +0.077 C 
ATOM     30  C   UNL     1      30.330 -23.584 -15.513  0.00  0.00    +0.139 C 
ATOM     31  C   UNL     1      32.418 -24.140 -14.519  0.00  0.00    +0.019 C 
ATOM     32  C   UNL     1      31.741 -24.974 -13.635  0.00  0.00    +0.022 C 
ATOM     33  C   UNL     1      30.363 -25.060 -13.752  0.00  0.00    +0.100 C 
ATOM     34  N   UNL     1      29.597 -22.862 -16.487  0.00  0.00    -0.342 N 
ATOM     35  H   UNL     1      28.618 -22.954 -16.534  0.00  0.00    +0.144 HD
ATOM     36  H   UNL     1      30.067 -22.269 -17.118  0.00  0.00    +0.144 HD
ENDBRANCH  26  29
ENDBRANCH  25  26
ENDBRANCH   2  25
TORSDOF 7
ENDMDL
MODEL 4
REMARK VINA RESULT:     -11.7      1.573      2.202
REMARK  Name = 11633167
REMARK  7 active torsions:
REMARK  status: ('A' for Active; 'I' for Inactive)
REMARK    1  A    between atoms: C_1  and  C_8
REMARK    2  A    between atoms: C_2  and  C_25
REMARK    3  A    between atoms: C_4  and  O_17
REMARK    4  A    between atoms: O_17  and  C_18
REMARK    5  A    between atoms: C_18  and  C_20
REMARK    6  A    between atoms: C_25  and  N_26
REMARK    7  A    between atoms: N_26  and  C_29
REMARK                            x       y       z     vdW  Elec       q    Type
REMARK                         _______ _______ _______ _____ _____    ______ ____
ROOT
ATOM      1  C   UNL     1      35.549 -21.285 -18.789  0.00  0.00    -0.000 C 
ATOM      2  C   UNL     1      34.306 -22.806 -17.383  0.00  0.00    +0.031 C 
ATOM      3  C   UNL     1      34.372 -21.977 -18.504  0.00  0.00    +0.000 C 
ATOM      4  C   UNL     1      35.416 -22.942 -16.550  0.00  0.00    +0.137 C 
ATOM      5  C   UNL     1      36.659 -21.421 -17.957  0.00  0.00    +0.003 C 
ATOM      6  C   UNL     1      36.593 -22.251 -16.837  0.00  0.00    +0.037 C 
ENDROOT
BRANCH   1   8
ATOM      7  N   UNL     1      33.703 -19.188 -22.895  0.00  0.00    -0.312 N 
ATOM      8  C   UNL     1      35.617 -20.424 -19.951  0.00  0.00    +0.001 C 
ATOM      9  C   UNL     1      34.617 -19.480 -21.908  0.00  0.00    +0.048 C 
ATOM     10  C   UNL     1      35.775 -18.751 -22.192  0.00  0.00    +0.015 C 
ATOM     11  C   UNL     1      34.508 -20.323 -20.796  0.00  0.00    +0.015 C 
ATOM     12  C   UNL     1      36.785 -19.710 -20.209  0.00  0.00    +0.000 C 
ATOM     13  C   UNL     1      36.880 -18.871 -21.325  0.00  0.00    +0.001 C 
ATOM     14  C   UNL     1      35.523 -18.013 -23.381  0.00  0.00    +0.017 C 
ATOM     15  C   UNL     1      34.241 -18.303 -23.791  0.00  0.00    +0.062 C 
ATOM     16  H   UNL     1      32.794 -19.561 -22.950  0.00  0.00    +0.152 HD
ENDBRANCH   1   8
BRANCH   4  17
ATOM     17  O   UNL     1      35.370 -23.748 -15.453  0.00  0.00    -0.469 OA
BRANCH  17  18
ATOM     18  C   UNL     1      36.616 -24.124 -14.871  0.00  0.00    +0.251 C 
BRANCH  18  20
ATOM     19  N   UNL     1      35.722 -24.983 -12.791  0.00  0.00    -0.244 NA
ATOM     20  C   UNL     1      36.501 -24.051 -13.377  0.00  0.00    +0.103 C 
ATOM     21  C   UNL     1      37.183 -23.060 -12.699  0.00  0.00    +0.018 C 
ATOM     22  C   UNL     1      37.055 -23.020 -11.315  0.00  0.00    +0.003 C 
ATOM     23  C   UNL     1      35.622 -24.913 -11.445  0.00  0.00    +0.099 C 
ATOM     24  C   UNL     1      36.262 -23.961 -10.668  0.00  0.00    +0.021 C 
ENDBRANCH  18  20
ENDBRANCH  17  18
ENDBRANCH   4  17
BRANCH   2  25
ATOM     25  C   UNL     1      33.040 -23.540 -17.092  0.00  0.00    +0.117 C 
BRANCH  25  26
ATOM     26  N   UNL     1      32.420 -23.103 -15.840  0.00  0.00    -0.327 N 
ATOM     27  H   UNL     1      32.778 -22.303 -15.392  0.00  0.00    +0.147 HD
BRANCH  26  29
ATOM     28  N   UNL     1      30.484 -25.336 -13.607  0.00  0.00    -0.228 NA
ATOM     29  C   UNL     1      31.359 -23.759 -15.258  0.00  0.00    +0.077 C 
ATOM     30  C   UNL     1      31.500 -24.672 -14.203  0.00  0.00    +0.139 C 
ATOM     31  C   UNL     1      30.043 -23.540 -15.704  0.00  0.00    +0.019 C 
ATOM     32  C   UNL     1      28.971 -24.203 -15.116  0.00  0.00    +0.022 C 
ATOM     33  C   UNL     1      29.243 -25.083 -14.080  0.00  0.00    +0.100 C 
ATOM     34  N   UNL     1      32.814 -24.917 -13.729  0.00  0.00    -0.342 N 
ATOM     35  H   UNL     1      32.960 -25.550 -12.990  0.00  0.00    +0.144 HD
ATOM     36  H   UNL     1      33.579 -24.453 -14.139  0.00  0.00    +0.144 HD
ENDBRANCH  26  29
ENDBRANCH  25  26
ENDBRANCH   2  25
TORSDOF 7
ENDMDL
MODEL 5
REMARK VINA RESULT:     -11.7      1.394      4.251
REMARK  Name = 11633167
REMARK  7 active torsions:
REMARK  status: ('A' for Active; 'I' for Inactive)
REMARK    1  A    between atoms: C_1  and  C_8
REMARK    2  A    between atoms: C_2  and  C_25
REMARK    3  A    between atoms: C_4  and  O_17
REMARK    4  A    between atoms: O_17  and  C_18
REMARK    5  A    between atoms: C_18  and  C_20
REMARK    6  A    between atoms: C_25  and  N_26
REMARK    7  A    between atoms: N_26  and  C_29
REMARK                            x       y       z     vdW  Elec       q    Type
REMARK                         _______ _______ _______ _____ _____    ______ ____
ROOT
ATOM      1  C   UNL     1      34.641 -20.298 -20.204  0.00  0.00    -0.000 C 
ATOM      2  C   UNL     1      35.684 -21.678 -18.518  0.00  0.00    +0.031 C 
ATOM      3  C   UNL     1      35.785 -20.722 -19.530  0.00  0.00    +0.000 C 
ATOM      4  C   UNL     1      34.438 -22.207 -18.182  0.00  0.00    +0.137 C 
ATOM      5  C   UNL     1      33.396 -20.826 -19.868  0.00  0.00    +0.003 C 
ATOM      6  C   UNL     1      33.294 -21.781 -18.856  0.00  0.00    +0.037 C 
ENDROOT
BRANCH   1   8
ATOM      7  N   UNL     1      33.497 -18.360 -24.631  0.00  0.00    -0.312 N 
ATOM      8  C   UNL     1      34.746 -19.306 -21.254  0.00  0.00    +0.001 C 
ATOM      9  C   UNL     1      34.113 -18.474 -23.405  0.00  0.00    +0.048 C 
ATOM     10  C   UNL     1      34.965 -17.375 -23.270  0.00  0.00    +0.015 C 
ATOM     11  C   UNL     1      33.982 -19.454 -22.415  0.00  0.00    +0.015 C 
ATOM     12  C   UNL     1      35.603 -18.221 -21.091  0.00  0.00    +0.000 C 
ATOM     13  C   UNL     1      35.725 -17.248 -22.090  0.00  0.00    +0.001 C 
ATOM     14  C   UNL     1      34.838 -16.599 -24.455  0.00  0.00    +0.017 C 
ATOM     15  C   UNL     1      33.930 -17.230 -25.274  0.00  0.00    +0.062 C 
ATOM     16  H   UNL     1      32.842 -18.998 -24.994  0.00  0.00    +0.152 HD
ENDBRANCH   1   8
BRANCH   4  17
ATOM     17  O   UNL     1      34.321 -23.141 -17.197  0.00  0.00    -0.469 OA
BRANCH  17  18
ATOM     18  C   UNL     1      33.147 -23.951 -17.208  0.00  0.00    +0.251 C 
BRANCH  18  20
ATOM     19  N   UNL     1      32.912 -24.251 -14.818  0.00  0.00    -0.244 NA
ATOM     20  C   UNL     1      32.382 -23.722 -15.939  0.00  0.00    +0.103 C 
ATOM     21  C   UNL     1      31.206 -22.999 -15.985  0.00  0.00    +0.018 C 
ATOM     22  C   UNL     1      30.521 -22.805 -14.791  0.00  0.00    +0.003 C 
ATOM     23  C   UNL     1      32.218 -24.042 -13.677  0.00  0.00    +0.099 C 
ATOM     24  C   UNL     1      31.030 -23.333 -13.610  0.00  0.00    +0.021 C 
ENDBRANCH  18  20
ENDBRANCH  17  18
ENDBRANCH   4  17
BRANCH   2  25
ATOM     25  C   UNL     1      36.918 -22.122 -17.807  0.00  0.00    +0.117 C 
BRANCH  25  26
ATOM     26  N   UNL     1      36.856 -21.859 -16.369  0.00  0.00    -0.327 N 
ATOM     27  H   UNL     1      36.588 -20.961 -16.066  0.00  0.00    +0.147 HD
BRANCH  26  29
ATOM     28  N   UNL     1      36.565 -24.044 -13.392  0.00  0.00    -0.228 NA
ATOM     29  C   UNL     1      37.155 -22.808 -15.418  0.00  0.00    +0.077 C 
ATOM     30  C   UNL     1      36.307 -23.121 -14.345  0.00  0.00    +0.139 C 
ATOM     31  C   UNL     1      38.358 -23.533 -15.475  0.00  0.00    +0.019 C 
ATOM     32  C   UNL     1      38.660 -24.492 -14.514  0.00  0.00    +0.022 C 
ATOM     33  C   UNL     1      37.738 -24.708 -13.502  0.00  0.00    +0.100 C 
ATOM     34  N   UNL     1      35.085 -22.407 -14.256  0.00  0.00    -0.342 N 
ATOM     35  H   UNL     1      34.459 -22.594 -13.520  0.00  0.00    +0.144 HD
ATOM     36  H   UNL     1      34.862 -21.726 -14.932  0.00  0.00    +0.144 HD
ENDBRANCH  26  29
ENDBRANCH  25  26
ENDBRANCH   2  25
TORSDOF 7
ENDMDL
MODEL 6
REMARK VINA RESULT:     -11.5      2.645      9.055
REMARK  Name = 11633167
REMARK  7 active torsions:
REMARK  status: ('A' for Active; 'I' for Inactive)
REMARK    1  A    between atoms: C_1  and  C_8
REMARK    2  A    between atoms: C_2  and  C_25
REMARK    3  A    between atoms: C_4  and  O_17
REMARK    4  A    between atoms: O_17  and  C_18
REMARK    5  A    between atoms: C_18  and  C_20
REMARK    6  A    between atoms: C_25  and  N_26
REMARK    7  A    between atoms: N_26  and  C_29
REMARK                            x       y       z     vdW  Elec       q    Type
REMARK                         _______ _______ _______ _____ _____    ______ ____
ROOT
ATOM      1  C   UNL     1      34.447 -24.103 -14.284  0.00  0.00    -0.000 C 
ATOM      2  C   UNL     1      32.902 -23.211 -15.912  0.00  0.00    +0.031 C 
ATOM      3  C   UNL     1      34.181 -23.658 -15.578  0.00  0.00    +0.000 C 
ATOM      4  C   UNL     1      31.892 -23.209 -14.952  0.00  0.00    +0.137 C 
ATOM      5  C   UNL     1      33.437 -24.100 -13.323  0.00  0.00    +0.003 C 
ATOM      6  C   UNL     1      32.158 -23.654 -13.657  0.00  0.00    +0.037 C 
ENDROOT
BRANCH   1   8
ATOM      7  N   UNL     1      39.273 -24.867 -15.170  0.00  0.00    -0.312 N 
ATOM      8  C   UNL     1      35.773 -24.566 -13.936  0.00  0.00    +0.001 C 
ATOM      9  C   UNL     1      38.081 -24.880 -14.482  0.00  0.00    +0.048 C 
ATOM     10  C   UNL     1      38.332 -25.471 -13.240  0.00  0.00    +0.015 C 
ATOM     11  C   UNL     1      36.815 -24.419 -14.857  0.00  0.00    +0.015 C 
ATOM     12  C   UNL     1      35.993 -25.151 -12.691  0.00  0.00    +0.000 C 
ATOM     13  C   UNL     1      37.265 -25.609 -12.329  0.00  0.00    +0.001 C 
ATOM     14  C   UNL     1      39.713 -25.809 -13.209  0.00  0.00    +0.017 C 
ATOM     15  C   UNL     1      40.265 -25.427 -14.410  0.00  0.00    +0.062 C 
ATOM     16  H   UNL     1      39.395 -24.507 -16.079  0.00  0.00    +0.152 HD
ENDBRANCH   1   8
BRANCH   4  17
ATOM     17  O   UNL     1      30.638 -22.776 -15.261  0.00  0.00    -0.469 OA
BRANCH  17  18
ATOM     18  C   UNL     1      29.669 -23.771 -15.586  0.00  0.00    +0.251 C 
BRANCH  18  20
ATOM     19  N   UNL     1      28.098 -23.016 -17.266  0.00  0.00    -0.244 NA
ATOM     20  C   UNL     1      28.379 -23.098 -15.950  0.00  0.00    +0.103 C 
ATOM     21  C   UNL     1      27.567 -22.613 -14.943  0.00  0.00    +0.018 C 
ATOM     22  C   UNL     1      26.379 -21.995 -15.314  0.00  0.00    +0.003 C 
ATOM     23  C   UNL     1      26.934 -22.409 -17.589  0.00  0.00    +0.099 C 
ATOM     24  C   UNL     1      26.048 -21.887 -16.660  0.00  0.00    +0.021 C 
ENDBRANCH  18  20
ENDBRANCH  17  18
ENDBRANCH   4  17
BRANCH   2  25
ATOM     25  C   UNL     1      32.634 -22.739 -17.303  0.00  0.00    +0.117 C 
BRANCH  25  26
ATOM     26  N   UNL     1      33.841 -22.734 -18.130  0.00  0.00    -0.327 N 
ATOM     27  H   UNL     1      34.468 -23.488 -18.052  0.00  0.00    +0.147 HD
BRANCH  26  29
ATOM     28  N   UNL     1      35.776 -20.254 -20.085  0.00  0.00    -0.228 NA
ATOM     29  C   UNL     1      34.141 -21.723 -19.014  0.00  0.00    +0.077 C 
ATOM     30  C   UNL     1      35.442 -21.244 -19.228  0.00  0.00    +0.139 C 
ATOM     31  C   UNL     1      33.131 -21.101 -19.770  0.00  0.00    +0.019 C 
ATOM     32  C   UNL     1      33.435 -20.079 -20.663  0.00  0.00    +0.022 C 
ATOM     33  C   UNL     1      34.762 -19.696 -20.783  0.00  0.00    +0.100 C 
ATOM     34  N   UNL     1      36.485 -21.848 -18.481  0.00  0.00    -0.342 N 
ATOM     35  H   UNL     1      37.414 -21.544 -18.599  0.00  0.00    +0.144 HD
ATOM     36  H   UNL     1      36.280 -22.573 -17.846  0.00  0.00    +0.144 HD
ENDBRANCH  26  29
ENDBRANCH  25  26
ENDBRANCH   2  25
TORSDOF 7
ENDMDL
MODEL 7
REMARK VINA RESULT:     -10.5      1.952      3.368
REMARK  Name = 11633167
REMARK  7 active torsions:
REMARK  status: ('A' for Active; 'I' for Inactive)
REMARK    1  A    between atoms: C_1  and  C_8
REMARK    2  A    between atoms: C_2  and  C_25
REMARK    3  A    between atoms: C_4  and  O_17
REMARK    4  A    between atoms: O_17  and  C_18
REMARK    5  A    between atoms: C_18  and  C_20
REMARK    6  A    between atoms: C_25  and  N_26
REMARK    7  A    between atoms: N_26  and  C_29
REMARK                            x       y       z     vdW  Elec       q    Type
REMARK                         _______ _______ _______ _____ _____    ______ ____
ROOT
ATOM      1  C   UNL     1      34.997 -22.283 -17.357  0.00  0.00    -0.000 C 
ATOM      2  C   UNL     1      34.263 -23.675 -15.525  0.00  0.00    +0.031 C 
ATOM      3  C   UNL     1      33.980 -22.970 -16.696  0.00  0.00    +0.000 C 
ATOM      4  C   UNL     1      35.561 -23.692 -15.019  0.00  0.00    +0.137 C 
ATOM      5  C   UNL     1      36.296 -22.300 -16.851  0.00  0.00    +0.003 C 
ATOM      6  C   UNL     1      36.579 -23.006 -15.681  0.00  0.00    +0.037 C 
ENDROOT
BRANCH   1   8
ATOM      7  N   UNL     1      36.228 -19.566 -21.328  0.00  0.00    -0.312 N 
ATOM      8  C   UNL     1      34.704 -21.551 -18.571  0.00  0.00    +0.001 C 
ATOM      9  C   UNL     1      35.422 -20.248 -20.445  0.00  0.00    +0.048 C 
ATOM     10  C   UNL     1      34.112 -20.141 -20.918  0.00  0.00    +0.015 C 
ATOM     11  C   UNL     1      35.749 -20.946 -19.277  0.00  0.00    +0.015 C 
ATOM     12  C   UNL     1      33.388 -21.460 -19.019  0.00  0.00    +0.000 C 
ATOM     13  C   UNL     1      33.076 -20.759 -20.190  0.00  0.00    +0.001 C 
ATOM     14  C   UNL     1      34.161 -19.372 -22.114  0.00  0.00    +0.017 C 
ATOM     15  C   UNL     1      35.475 -19.032 -22.340  0.00  0.00    +0.062 C 
ATOM     16  H   UNL     1      37.205 -19.474 -21.244  0.00  0.00    +0.152 HD
ENDBRANCH   1   8
BRANCH   4  17
ATOM     17  O   UNL     1      35.855 -24.376 -13.877  0.00  0.00    -0.469 OA
BRANCH  17  18
ATOM     18  C   UNL     1      36.350 -25.705 -14.026  0.00  0.00    +0.251 C 
BRANCH  18  20
ATOM     19  N   UNL     1      38.510 -26.302 -14.943  0.00  0.00    -0.244 NA
ATOM     20  C   UNL     1      37.848 -25.682 -13.945  0.00  0.00    +0.103 C 
ATOM     21  C   UNL     1      38.453 -25.044 -12.880  0.00  0.00    +0.018 C 
ATOM     22  C   UNL     1      39.842 -25.041 -12.835  0.00  0.00    +0.003 C 
ATOM     23  C   UNL     1      39.859 -26.279 -14.865  0.00  0.00    +0.099 C 
ATOM     24  C   UNL     1      40.567 -25.668 -13.842  0.00  0.00    +0.021 C 
ENDBRANCH  18  20
ENDBRANCH  17  18
ENDBRANCH   4  17
BRANCH   2  25
ATOM     25  C   UNL     1      33.163 -24.405 -14.829  0.00  0.00    +0.117 C 
BRANCH  25  26
ATOM     26  N   UNL     1      32.090 -23.510 -14.394  0.00  0.00    -0.327 N 
ATOM     27  H   UNL     1      32.295 -22.825 -13.717  0.00  0.00    +0.147 HD
BRANCH  26  29
ATOM     28  N   UNL     1      28.559 -24.543 -14.827  0.00  0.00    -0.228 NA
ATOM     29  C   UNL     1      30.807 -23.581 -14.885  0.00  0.00    +0.077 C 
ATOM     30  C   UNL     1      29.828 -24.444 -14.371  0.00  0.00    +0.139 C 
ATOM     31  C   UNL     1      30.400 -22.769 -15.959  0.00  0.00    +0.019 C 
ATOM     32  C   UNL     1      29.102 -22.840 -16.456  0.00  0.00    +0.022 C 
ATOM     33  C   UNL     1      28.229 -23.736 -15.860  0.00  0.00    +0.100 C 
ATOM     34  N   UNL     1      30.206 -25.278 -13.288  0.00  0.00    -0.342 N 
ATOM     35  H   UNL     1      29.551 -25.900 -12.895  0.00  0.00    +0.144 HD
ATOM     36  H   UNL     1      31.122 -25.235 -12.929  0.00  0.00    +0.144 HD
ENDBRANCH  26  29
ENDBRANCH  25  26
ENDBRANCH   2  25
TORSDOF 7
ENDMDL
MODEL 8
REMARK VINA RESULT:     -10.5      2.311      5.089
REMARK  Name = 11633167
REMARK  7 active torsions:
REMARK  status: ('A' for Active; 'I' for Inactive)
REMARK    1  A    between atoms: C_1  and  C_8
REMARK    2  A    between atoms: C_2  and  C_25
REMARK    3  A    between atoms: C_4  and  O_17
REMARK    4  A    between atoms: O_17  and  C_18
REMARK    5  A    between atoms: C_18  and  C_20
REMARK    6  A    between atoms: C_25  and  N_26
REMARK    7  A    between atoms: N_26  and  C_29
REMARK                            x       y       z     vdW  Elec       q    Type
REMARK                         _______ _______ _______ _____ _____    ______ ____
ROOT
ATOM      1  C   UNL     1      34.233 -22.060 -18.085  0.00  0.00    -0.000 C 
ATOM      2  C   UNL     1      35.438 -23.051 -16.242  0.00  0.00    +0.031 C 
ATOM      3  C   UNL     1      35.422 -22.245 -17.380  0.00  0.00    +0.000 C 
ATOM      4  C   UNL     1      34.267 -23.672 -15.810  0.00  0.00    +0.137 C 
ATOM      5  C   UNL     1      33.061 -22.680 -17.654  0.00  0.00    +0.003 C 
ATOM      6  C   UNL     1      33.077 -23.486 -16.515  0.00  0.00    +0.037 C 
ENDROOT
BRANCH   1   8
ATOM      7  N   UNL     1      36.366 -19.333 -21.645  0.00  0.00    -0.312 N 
ATOM      8  C   UNL     1      34.215 -21.224 -19.267  0.00  0.00    +0.001 C 
ATOM      9  C   UNL     1      35.359 -19.937 -20.928  0.00  0.00    +0.048 C 
ATOM     10  C   UNL     1      34.154 -19.608 -21.554  0.00  0.00    +0.015 C 
ATOM     11  C   UNL     1      35.421 -20.742 -19.784  0.00  0.00    +0.015 C 
ATOM     12  C   UNL     1      32.999 -20.912 -19.870  0.00  0.00    +0.000 C 
ATOM     13  C   UNL     1      32.952 -20.105 -21.013  0.00  0.00    +0.001 C 
ATOM     14  C   UNL     1      34.475 -18.788 -22.671  0.00  0.00    +0.017 C 
ATOM     15  C   UNL     1      35.842 -18.635 -22.701  0.00  0.00    +0.062 C 
ATOM     16  H   UNL     1      37.326 -19.393 -21.431  0.00  0.00    +0.152 HD
ENDBRANCH   1   8
BRANCH   4  17
ATOM     17  O   UNL     1      34.264 -24.462 -14.701  0.00  0.00    -0.469 OA
BRANCH  17  18
ATOM     18  C   UNL     1      33.717 -23.905 -13.508  0.00  0.00    +0.251 C 
BRANCH  18  20
ATOM     19  N   UNL     1      35.845 -23.113 -12.666  0.00  0.00    -0.244 NA
ATOM     20  C   UNL     1      34.772 -23.898 -12.441  0.00  0.00    +0.103 C 
ATOM     21  C   UNL     1      34.593 -24.676 -11.314  0.00  0.00    +0.018 C 
ATOM     22  C   UNL     1      35.589 -24.648 -10.345  0.00  0.00    +0.003 C 
ATOM     23  C   UNL     1      36.792 -23.111 -11.703  0.00  0.00    +0.099 C 
ATOM     24  C   UNL     1      36.713 -23.852 -10.535  0.00  0.00    +0.021 C 
ENDBRANCH  18  20
ENDBRANCH  17  18
ENDBRANCH   4  17
BRANCH   2  25
ATOM     25  C   UNL     1      36.719 -23.239 -15.499  0.00  0.00    +0.117 C 
BRANCH  25  26
ATOM     26  N   UNL     1      36.930 -24.630 -15.099  0.00  0.00    -0.327 N 
ATOM     27  H   UNL     1      36.183 -25.265 -15.191  0.00  0.00    +0.147 HD
BRANCH  26  29
ATOM     28  N   UNL     1      39.369 -26.555 -13.082  0.00  0.00    -0.228 NA
ATOM     29  C   UNL     1      38.125 -25.094 -14.598  0.00  0.00    +0.077 C 
ATOM     30  C   UNL     1      38.216 -26.075 -13.599  0.00  0.00    +0.139 C 
ATOM     31  C   UNL     1      39.351 -24.596 -15.077  0.00  0.00    +0.019 C 
ATOM     32  C   UNL     1      40.558 -25.066 -14.570  0.00  0.00    +0.022 C 
ATOM     33  C   UNL     1      40.513 -26.037 -13.583  0.00  0.00    +0.100 C 
ATOM     34  N   UNL     1      36.999 -26.599 -13.094  0.00  0.00    -0.342 N 
ATOM     35  H   UNL     1      37.015 -27.289 -12.392  0.00  0.00    +0.144 HD
ATOM     36  H   UNL     1      36.139 -26.273 -13.445  0.00  0.00    +0.144 HD
ENDBRANCH  26  29
ENDBRANCH  25  26
ENDBRANCH   2  25
TORSDOF 7
ENDMDL
MODEL 9
REMARK VINA RESULT:     -10.3      2.129      6.245
REMARK  Name = 11633167
REMARK  7 active torsions:
REMARK  status: ('A' for Active; 'I' for Inactive)
REMARK    1  A    between atoms: C_1  and  C_8
REMARK    2  A    between atoms: C_2  and  C_25
REMARK    3  A    between atoms: C_4  and  O_17
REMARK    4  A    between atoms: O_17  and  C_18
REMARK    5  A    between atoms: C_18  and  C_20
REMARK    6  A    between atoms: C_25  and  N_26
REMARK    7  A    between atoms: N_26  and  C_29
REMARK                            x       y       z     vdW  Elec       q    Type
REMARK                         _______ _______ _______ _____ _____    ______ ____
ROOT
ATOM      1  C   UNL     1      33.829 -22.538 -17.311  0.00  0.00    -0.000 C 
ATOM      2  C   UNL     1      33.989 -23.743 -15.224  0.00  0.00    +0.031 C 
ATOM      3  C   UNL     1      34.600 -23.036 -16.261  0.00  0.00    +0.000 C 
ATOM      4  C   UNL     1      32.611 -23.951 -15.239  0.00  0.00    +0.137 C 
ATOM      5  C   UNL     1      32.451 -22.745 -17.327  0.00  0.00    +0.003 C 
ATOM      6  C   UNL     1      31.841 -23.451 -16.289  0.00  0.00    +0.037 C 
ENDROOT
BRANCH   1   8
ATOM      7  N   UNL     1      33.801 -19.760 -21.428  0.00  0.00    -0.312 N 
ATOM      8  C   UNL     1      34.462 -21.804 -18.387  0.00  0.00    +0.001 C 
ATOM      9  C   UNL     1      34.317 -20.470 -20.368  0.00  0.00    +0.048 C 
ATOM     10  C   UNL     1      35.709 -20.391 -20.459  0.00  0.00    +0.015 C 
ATOM     11  C   UNL     1      33.666 -21.168 -19.344  0.00  0.00    +0.015 C 
ATOM     12  C   UNL     1      35.852 -21.743 -18.453  0.00  0.00    +0.000 C 
ATOM     13  C   UNL     1      36.490 -21.041 -19.483  0.00  0.00    +0.001 C 
ATOM     14  C   UNL     1      36.008 -19.609 -21.609  0.00  0.00    +0.017 C 
ATOM     15  C   UNL     1      34.815 -19.237 -22.185  0.00  0.00    +0.062 C 
ATOM     16  H   UNL     1      32.841 -19.645 -21.616  0.00  0.00    +0.152 HD
ENDBRANCH   1   8
BRANCH   4  17
ATOM     17  O   UNL     1      31.999 -24.638 -14.235  0.00  0.00    -0.469 OA
BRANCH  17  18
ATOM     18  C   UNL     1      30.931 -23.981 -13.556  0.00  0.00    +0.251 C 
BRANCH  18  20
ATOM     19  N   UNL     1      29.354 -24.880 -15.158  0.00  0.00    -0.244 NA
ATOM     20  C   UNL     1      29.792 -23.780 -14.512  0.00  0.00    +0.103 C 
ATOM     21  C   UNL     1      29.266 -22.513 -14.674  0.00  0.00    +0.018 C 
ATOM     22  C   UNL     1      28.212 -22.362 -15.567  0.00  0.00    +0.003 C 
ATOM     23  C   UNL     1      28.328 -24.694 -16.018  0.00  0.00    +0.099 C 
ATOM     24  C   UNL     1      27.727 -23.468 -16.256  0.00  0.00    +0.021 C 
ENDBRANCH  18  20
ENDBRANCH  17  18
ENDBRANCH   4  17
BRANCH   2  25
ATOM     25  C   UNL     1      34.828 -24.269 -14.107  0.00  0.00    +0.117 C 
BRANCH  25  26
ATOM     26  N   UNL     1      36.101 -23.558 -13.985  0.00  0.00    -0.327 N 
ATOM     27  H   UNL     1      36.088 -22.574 -13.951  0.00  0.00    +0.147 HD
BRANCH  26  29
ATOM     28  N   UNL     1      39.565 -24.593 -14.792  0.00  0.00    -0.228 NA
ATOM     29  C   UNL     1      37.316 -24.199 -13.914  0.00  0.00    +0.077 C 
ATOM     30  C   UNL     1      38.359 -23.982 -14.827  0.00  0.00    +0.139 C 
ATOM     31  C   UNL     1      37.582 -25.132 -12.895  0.00  0.00    +0.019 C 
ATOM     32  C   UNL     1      38.811 -25.780 -12.825  0.00  0.00    +0.022 C 
ATOM     33  C   UNL     1      39.760 -25.477 -13.789  0.00  0.00    +0.100 C 
ATOM     34  N   UNL     1      38.124 -23.049 -15.868  0.00  0.00    -0.342 N 
ATOM     35  H   UNL     1      38.827 -22.864 -16.532  0.00  0.00    +0.144 HD
ATOM     36  H   UNL     1      37.257 -22.584 -15.927  0.00  0.00    +0.144 HD
ENDBRANCH  26  29
ENDBRANCH  25  26
ENDBRANCH   2  25
TORSDOF 7
ENDMDL
