MODEL 1
REMARK VINA RESULT:     -11.3      0.000      0.000
REMARK  Name = 5326869
REMARK  6 active torsions:
REMARK  status: ('A' for Active; 'I' for Inactive)
REMARK    1  A    between atoms: N_2  and  C_11
REMARK    2  A    between atoms: C_3  and  C_25
REMARK    3  A    between atoms: N_5  and  C_14
REMARK    4  A    between atoms: C_14  and  C_15
REMARK    5  A    between atoms: C_15  and  C_17
REMARK    6  A    between atoms: C_23  and  N_30
REMARK                            x       y       z     vdW  Elec       q    Type
REMARK                         _______ _______ _______ _____ _____    ______ ____
ROOT
ATOM      1  O   UNL     1      32.773 -20.972 -20.227  0.00  0.00    -0.270 OA
ATOM      2  N   UNL     1      34.919 -20.022 -20.363  0.00  0.00    -0.280 N 
ATOM      3  C   UNL     1      33.920 -20.839 -19.817  0.00  0.00    +0.250 C 
ATOM      4  H   UNL     1      35.789 -20.037 -19.901  0.00  0.00    +0.155 HD
ENDROOT
BRANCH   2  11
ATOM      5  N   UNL     1      34.630 -15.635 -22.571  0.00  0.00    -0.286 N 
ATOM      6  C   UNL     1      34.695 -17.005 -22.445  0.00  0.00    +0.053 C 
ATOM      7  C   UNL     1      34.661 -17.538 -23.735  0.00  0.00    +0.015 C 
ATOM      8  C   UNL     1      34.556 -15.286 -23.893  0.00  0.00    +0.065 C 
ATOM      9  C   UNL     1      34.780 -17.803 -21.298  0.00  0.00    +0.029 C 
ATOM     10  C   UNL     1      34.574 -16.442 -24.638  0.00  0.00    +0.017 C 
ATOM     11  C   UNL     1      34.832 -19.189 -21.479  0.00  0.00    +0.052 C 
ATOM     12  C   UNL     1      34.716 -18.938 -23.891  0.00  0.00    +0.003 C 
ATOM     13  C   UNL     1      34.801 -19.749 -22.754  0.00  0.00    +0.015 C 
BRANCH   5  14
ATOM     14  C   UNL     1      34.638 -14.688 -21.477  0.00  0.00    +0.100 C 
BRANCH  14  15
ATOM     15  C   UNL     1      33.260 -14.480 -20.839  0.00  0.00    +0.048 C 
BRANCH  15  17
ATOM     16  N   UNL     1      31.610 -10.596 -21.589  0.00  0.00    -0.242 NA
ATOM     17  C   UNL     1      32.679 -13.113 -21.103  0.00  0.00    -0.017 C 
ATOM     18  C   UNL     1      31.833 -12.541 -20.172  0.00  0.00    +0.016 C 
ATOM     19  C   UNL     1      33.001 -12.451 -22.273  0.00  0.00    +0.016 C 
ATOM     20  C   UNL     1      31.326 -11.285 -20.461  0.00  0.00    +0.099 C 
ATOM     21  C   UNL     1      32.442 -11.199 -22.468  0.00  0.00    +0.099 C 
ENDBRANCH  15  17
ENDBRANCH  14  15
ENDBRANCH   5  14
ENDBRANCH   2  11
BRANCH   3  25
ATOM     22  F   UNL     1      37.311 -22.539 -16.817  0.00  0.00    -0.204 F 
ATOM     23  C   UNL     1      33.691 -22.863 -16.672  0.00  0.00    +0.050 C 
ATOM     24  C   UNL     1      33.323 -22.156 -17.817  0.00  0.00    +0.019 C 
ATOM     25  C   UNL     1      34.311 -21.595 -18.598  0.00  0.00    +0.057 C 
ATOM     26  C   UNL     1      35.037 -22.993 -16.335  0.00  0.00    +0.044 C 
ATOM     27  C   UNL     1      35.650 -21.708 -18.287  0.00  0.00    +0.034 C 
ATOM     28  C   UNL     1      36.018 -22.416 -17.142  0.00  0.00    +0.142 C 
BRANCH  23  30
ATOM     29  O   UNL     1      30.674 -24.351 -14.147  0.00  0.00    -0.350 OA
ATOM     30  N   UNL     1      32.708 -23.443 -15.863  0.00  0.00    -0.303 N 
ATOM     31  C   UNL     1      33.007 -23.763 -14.463  0.00  0.00    +0.123 C 
ATOM     32  C   UNL     1      31.301 -23.125 -16.145  0.00  0.00    +0.123 C 
ATOM     33  C   UNL     1      32.014 -24.799 -13.947  0.00  0.00    +0.164 C 
ATOM     34  C   UNL     1      30.400 -24.195 -15.540  0.00  0.00    +0.164 C 
ENDBRANCH  23  30
ENDBRANCH   3  25
TORSDOF 6
ENDMDL
MODEL 2
REMARK VINA RESULT:     -11.2      3.165     10.295
REMARK  Name = 5326869
REMARK  6 active torsions:
REMARK  status: ('A' for Active; 'I' for Inactive)
REMARK    1  A    between atoms: N_2  and  C_11
REMARK    2  A    between atoms: C_3  and  C_25
REMARK    3  A    between atoms: N_5  and  C_14
REMARK    4  A    between atoms: C_14  and  C_15
REMARK    5  A    between atoms: C_15  and  C_17
REMARK    6  A    between atoms: C_23  and  N_30
REMARK                            x       y       z     vdW  Elec       q    Type
REMARK                         _______ _______ _______ _____ _____    ______ ____
ROOT
ATOM      1  O   UNL     1      36.497 -18.537 -20.250  0.00  0.00    -0.270 OA
ATOM      2  N   UNL     1      35.236 -20.520 -20.342  0.00  0.00    -0.280 N 
ATOM      3  C   UNL     1      35.714 -19.291 -20.817  0.00  0.00    +0.250 C 
ATOM      4  H   UNL     1      34.609 -20.996 -20.932  0.00  0.00    +0.155 HD
ENDROOT
BRANCH   2  11
ATOM      5  N   UNL     1      34.114 -23.172 -16.353  0.00  0.00    -0.286 N 
ATOM      6  C   UNL     1      34.884 -22.448 -17.235  0.00  0.00    +0.053 C 
ATOM      7  C   UNL     1      36.179 -22.412 -16.717  0.00  0.00    +0.015 C 
ATOM      8  C   UNL     1      34.877 -23.594 -15.297  0.00  0.00    +0.065 C 
ATOM      9  C   UNL     1      34.534 -21.827 -18.440  0.00  0.00    +0.029 C 
ATOM     10  C   UNL     1      36.161 -23.140 -15.495  0.00  0.00    +0.017 C 
ATOM     11  C   UNL     1      35.541 -21.151 -19.135  0.00  0.00    +0.052 C 
ATOM     12  C   UNL     1      37.178 -21.725 -17.436  0.00  0.00    +0.003 C 
ATOM     13  C   UNL     1      36.844 -21.100 -18.642  0.00  0.00    +0.015 C 
BRANCH   5  14
ATOM     14  C   UNL     1      32.703 -23.455 -16.504  0.00  0.00    +0.100 C 
BRANCH  14  15
ATOM     15  C   UNL     1      31.865 -23.052 -15.286  0.00  0.00    +0.048 C 
BRANCH  15  17
ATOM     16  N   UNL     1      27.737 -24.150 -15.626  0.00  0.00    -0.242 NA
ATOM     17  C   UNL     1      30.412 -23.438 -15.405  0.00  0.00    -0.017 C 
ATOM     18  C   UNL     1      29.567 -22.676 -16.190  0.00  0.00    +0.016 C 
ATOM     19  C   UNL     1      29.945 -24.550 -14.728  0.00  0.00    +0.016 C 
ATOM     20  C   UNL     1      28.242 -23.073 -16.267  0.00  0.00    +0.099 C 
ATOM     21  C   UNL     1      28.603 -24.862 -14.871  0.00  0.00    +0.099 C 
ENDBRANCH  15  17
ENDBRANCH  14  15
ENDBRANCH   5  14
ENDBRANCH   2  11
BRANCH   3  25
ATOM     22  F   UNL     1      34.280 -20.338 -25.315  0.00  0.00    -0.204 F 
ATOM     23  C   UNL     1      34.393 -17.139 -23.585  0.00  0.00    +0.050 C 
ATOM     24  C   UNL     1      34.896 -17.535 -22.346  0.00  0.00    +0.019 C 
ATOM     25  C   UNL     1      35.180 -18.868 -22.138  0.00  0.00    +0.057 C 
ATOM     26  C   UNL     1      34.185 -18.086 -24.588  0.00  0.00    +0.044 C 
ATOM     27  C   UNL     1      34.983 -19.824 -23.113  0.00  0.00    +0.034 C 
ATOM     28  C   UNL     1      34.480 -19.429 -24.352  0.00  0.00    +0.142 C 
BRANCH  23  30
ATOM     29  O   UNL     1      33.751 -13.068 -24.417  0.00  0.00    -0.350 OA
ATOM     30  N   UNL     1      34.097 -15.793 -23.822  0.00  0.00    -0.303 N 
ATOM     31  C   UNL     1      34.567 -14.764 -22.887  0.00  0.00    +0.123 C 
ATOM     32  C   UNL     1      33.946 -15.350 -25.215  0.00  0.00    +0.123 C 
ATOM     33  C   UNL     1      33.737 -13.496 -23.056  0.00  0.00    +0.164 C 
ATOM     34  C   UNL     1      33.149 -14.052 -25.260  0.00  0.00    +0.164 C 
ENDBRANCH  23  30
ENDBRANCH   3  25
TORSDOF 6
ENDMDL
MODEL 3
REMARK VINA RESULT:     -10.8      2.202      2.912
REMARK  Name = 5326869
REMARK  6 active torsions:
REMARK  status: ('A' for Active; 'I' for Inactive)
REMARK    1  A    between atoms: N_2  and  C_11
REMARK    2  A    between atoms: C_3  and  C_25
REMARK    3  A    between atoms: N_5  and  C_14
REMARK    4  A    between atoms: C_14  and  C_15
REMARK    5  A    between atoms: C_15  and  C_17
REMARK    6  A    between atoms: C_23  and  N_30
REMARK                            x       y       z     vdW  Elec       q    Type
REMARK                         _______ _______ _______ _____ _____    ______ ____
ROOT
ATOM      1  O   UNL     1      36.536 -21.059 -20.007  0.00  0.00    -0.270 OA
ATOM      2  N   UNL     1      34.418 -20.056 -20.189  0.00  0.00    -0.280 N 
ATOM      3  C   UNL     1      35.379 -20.909 -19.631  0.00  0.00    +0.250 C 
ATOM      4  H   UNL     1      33.533 -20.063 -19.758  0.00  0.00    +0.155 HD
ENDROOT
BRANCH   2  11
ATOM      5  N   UNL     1      34.748 -15.618 -22.288  0.00  0.00    -0.286 N 
ATOM      6  C   UNL     1      34.710 -16.991 -22.193  0.00  0.00    +0.053 C 
ATOM      7  C   UNL     1      34.852 -17.497 -23.486  0.00  0.00    +0.015 C 
ATOM      8  C   UNL     1      34.908 -15.240 -23.594  0.00  0.00    +0.065 C 
ATOM      9  C   UNL     1      34.562 -17.815 -21.071  0.00  0.00    +0.029 C 
ATOM     10  C   UNL     1      34.976 -16.381 -24.360  0.00  0.00    +0.017 C 
ATOM     11  C   UNL     1      34.561 -19.198 -21.280  0.00  0.00    +0.052 C 
ATOM     12  C   UNL     1      34.848 -18.894 -23.672  0.00  0.00    +0.003 C 
ATOM     13  C   UNL     1      34.701 -19.730 -22.560  0.00  0.00    +0.015 C 
BRANCH   5  14
ATOM     14  C   UNL     1      34.636 -14.695 -21.179  0.00  0.00    +0.100 C 
BRANCH  14  15
ATOM     15  C   UNL     1      33.198 -14.494 -20.693  0.00  0.00    +0.048 C 
BRANCH  15  17
ATOM     16  N   UNL     1      31.617 -10.619 -21.613  0.00  0.00    -0.242 NA
ATOM     17  C   UNL     1      32.640 -13.131 -21.017  0.00  0.00    -0.017 C 
ATOM     18  C   UNL     1      31.816 -12.498 -20.106  0.00  0.00    +0.016 C 
ATOM     19  C   UNL     1      32.964 -12.532 -22.220  0.00  0.00    +0.016 C 
ATOM     20  C   UNL     1      31.331 -11.246 -20.451  0.00  0.00    +0.099 C 
ATOM     21  C   UNL     1      32.428 -11.279 -22.470  0.00  0.00    +0.099 C 
ENDBRANCH  15  17
ENDBRANCH  14  15
ENDBRANCH   5  14
ENDBRANCH   2  11
BRANCH   3  25
ATOM     22  F   UNL     1      31.858 -23.207 -17.243  0.00  0.00    -0.204 F 
ATOM     23  C   UNL     1      35.391 -22.877 -16.443  0.00  0.00    +0.050 C 
ATOM     24  C   UNL     1      35.828 -22.108 -17.521  0.00  0.00    +0.019 C 
ATOM     25  C   UNL     1      34.914 -21.727 -18.481  0.00  0.00    +0.057 C 
ATOM     26  C   UNL     1      34.051 -23.247 -16.349  0.00  0.00    +0.044 C 
ATOM     27  C   UNL     1      33.582 -22.081 -18.411  0.00  0.00    +0.034 C 
ATOM     28  C   UNL     1      33.146 -22.850 -17.332  0.00  0.00    +0.142 C 
BRANCH  23  30
ATOM     29  O   UNL     1      38.114 -23.818 -13.379  0.00  0.00    -0.350 OA
ATOM     30  N   UNL     1      36.299 -23.276 -15.456  0.00  0.00    -0.303 N 
ATOM     31  C   UNL     1      37.737 -23.062 -15.654  0.00  0.00    +0.123 C 
ATOM     32  C   UNL     1      35.851 -23.264 -14.057  0.00  0.00    +0.123 C 
ATOM     33  C   UNL     1      38.527 -23.988 -14.735  0.00  0.00    +0.164 C 
ATOM     34  C   UNL     1      36.741 -24.178 -13.223  0.00  0.00    +0.164 C 
ENDBRANCH  23  30
ENDBRANCH   3  25
TORSDOF 6
ENDMDL
MODEL 4
REMARK VINA RESULT:     -10.8      8.675     15.441
REMARK  Name = 5326869
REMARK  6 active torsions:
REMARK  status: ('A' for Active; 'I' for Inactive)
REMARK    1  A    between atoms: N_2  and  C_11
REMARK    2  A    between atoms: C_3  and  C_25
REMARK    3  A    between atoms: N_5  and  C_14
REMARK    4  A    between atoms: C_14  and  C_15
REMARK    5  A    between atoms: C_15  and  C_17
REMARK    6  A    between atoms: C_23  and  N_30
REMARK                            x       y       z     vdW  Elec       q    Type
REMARK                         _______ _______ _______ _____ _____    ______ ____
ROOT
ATOM      1  O   UNL     1      35.193  -7.050 -23.036  0.00  0.00    -0.270 OA
ATOM      2  N   UNL     1      32.851  -7.191 -23.188  0.00  0.00    -0.280 N 
ATOM      3  C   UNL     1      34.126  -6.737 -23.552  0.00  0.00    +0.250 C 
ATOM      4  H   UNL     1      32.099  -6.833 -23.713  0.00  0.00    +0.155 HD
ENDROOT
BRANCH   2  11
ATOM      5  N   UNL     1      32.100 -11.698 -21.364  0.00  0.00    -0.286 N 
ATOM      6  C   UNL     1      32.180 -10.324 -21.392  0.00  0.00    +0.053 C 
ATOM      7  C   UNL     1      31.844  -9.867 -20.116  0.00  0.00    +0.015 C 
ATOM      8  C   UNL     1      31.726 -12.123 -20.117  0.00  0.00    +0.065 C 
ATOM      9  C   UNL     1      32.520  -9.460 -22.440  0.00  0.00    +0.029 C 
ATOM     10  C   UNL     1      31.561 -11.013 -19.322  0.00  0.00    +0.017 C 
ATOM     11  C   UNL     1      32.517  -8.088 -22.172  0.00  0.00    +0.052 C 
ATOM     12  C   UNL     1      31.849  -8.478 -19.871  0.00  0.00    +0.003 C 
ATOM     13  C   UNL     1      32.187  -7.603 -20.908  0.00  0.00    +0.015 C 
BRANCH   5  14
ATOM     14  C   UNL     1      32.369 -12.579 -22.480  0.00  0.00    +0.100 C 
BRANCH  14  15
ATOM     15  C   UNL     1      33.590 -13.479 -22.266  0.00  0.00    +0.048 C 
BRANCH  15  17
ATOM     16  N   UNL     1      34.308 -16.172 -25.522  0.00  0.00    -0.242 NA
ATOM     17  C   UNL     1      33.844 -14.426 -23.412  0.00  0.00    -0.017 C 
ATOM     18  C   UNL     1      34.678 -15.512 -23.227  0.00  0.00    +0.016 C 
ATOM     19  C   UNL     1      33.236 -14.196 -24.633  0.00  0.00    +0.016 C 
ATOM     20  C   UNL     1      34.878 -16.353 -24.310  0.00  0.00    +0.099 C 
ATOM     21  C   UNL     1      33.500 -15.096 -25.653  0.00  0.00    +0.099 C 
ENDBRANCH  15  17
ENDBRANCH  14  15
ENDBRANCH   5  14
ENDBRANCH   2  11
BRANCH   3  25
ATOM     22  F   UNL     1      32.021  -3.251 -26.159  0.00  0.00    -0.204 F 
ATOM     23  C   UNL     1      35.322  -4.743 -26.490  0.00  0.00    +0.050 C 
ATOM     24  C   UNL     1      35.292  -5.667 -25.446  0.00  0.00    +0.019 C 
ATOM     25  C   UNL     1      34.158  -5.755 -24.666  0.00  0.00    +0.057 C 
ATOM     26  C   UNL     1      34.217  -3.928 -26.731  0.00  0.00    +0.044 C 
ATOM     27  C   UNL     1      33.052  -4.959 -24.884  0.00  0.00    +0.034 C 
ATOM     28  C   UNL     1      33.081  -4.035 -25.929  0.00  0.00    +0.142 C 
BRANCH  23  30
ATOM     29  O   UNL     1      38.730  -4.144 -28.879  0.00  0.00    -0.350 OA
ATOM     30  N   UNL     1      36.460  -4.635 -27.296  0.00  0.00    -0.303 N 
ATOM     31  C   UNL     1      36.319  -4.370 -28.732  0.00  0.00    +0.123 C 
ATOM     32  C   UNL     1      37.697  -4.129 -26.685  0.00  0.00    +0.123 C 
ATOM     33  C   UNL     1      37.594  -4.783 -29.460  0.00  0.00    +0.164 C 
ATOM     34  C   UNL     1      38.897  -4.555 -27.522  0.00  0.00    +0.164 C 
ENDBRANCH  23  30
ENDBRANCH   3  25
TORSDOF 6
ENDMDL
MODEL 5
REMARK VINA RESULT:     -10.7      4.404      8.274
REMARK  Name = 5326869
REMARK  6 active torsions:
REMARK  status: ('A' for Active; 'I' for Inactive)
REMARK    1  A    between atoms: N_2  and  C_11
REMARK    2  A    between atoms: C_3  and  C_25
REMARK    3  A    between atoms: N_5  and  C_14
REMARK    4  A    between atoms: C_14  and  C_15
REMARK    5  A    between atoms: C_15  and  C_17
REMARK    6  A    between atoms: C_23  and  N_30
REMARK                            x       y       z     vdW  Elec       q    Type
REMARK                         _______ _______ _______ _____ _____    ______ ____
ROOT
ATOM      1  O   UNL     1      34.513 -13.787 -20.661  0.00  0.00    -0.270 OA
ATOM      2  N   UNL     1      33.208 -13.259 -22.543  0.00  0.00    -0.280 N 
ATOM      3  C   UNL     1      34.045 -14.064 -21.759  0.00  0.00    +0.250 C 
ATOM      4  H   UNL     1      32.924 -13.642 -23.405  0.00  0.00    +0.155 HD
ENDROOT
BRANCH   2  11
ATOM      5  N   UNL     1      33.269  -8.351 -22.874  0.00  0.00    -0.286 N 
ATOM      6  C   UNL     1      32.851  -9.604 -22.486  0.00  0.00    +0.053 C 
ATOM      7  C   UNL     1      31.741  -9.429 -21.657  0.00  0.00    +0.015 C 
ATOM      8  C   UNL     1      32.462  -7.392 -22.320  0.00  0.00    +0.065 C 
ATOM      9  C   UNL     1      33.367 -10.866 -22.801  0.00  0.00    +0.029 C 
ATOM     10  C   UNL     1      31.507  -8.028 -21.562  0.00  0.00    +0.017 C 
ATOM     11  C   UNL     1      32.727 -11.981 -22.253  0.00  0.00    +0.052 C 
ATOM     12  C   UNL     1      31.112 -10.568 -21.117  0.00  0.00    +0.003 C 
ATOM     13  C   UNL     1      31.617 -11.837 -21.423  0.00  0.00    +0.015 C 
BRANCH   5  14
ATOM     14  C   UNL     1      34.393  -8.070 -23.741  0.00  0.00    +0.100 C 
BRANCH  14  15
ATOM     15  C   UNL     1      34.953  -6.654 -23.575  0.00  0.00    +0.048 C 
BRANCH  15  17
ATOM     16  N   UNL     1      34.032  -4.060 -26.859  0.00  0.00    -0.242 NA
ATOM     17  C   UNL     1      34.629  -5.741 -24.731  0.00  0.00    -0.017 C 
ATOM     18  C   UNL     1      33.368  -5.182 -24.825  0.00  0.00    +0.016 C 
ATOM     19  C   UNL     1      35.597  -5.475 -25.681  0.00  0.00    +0.016 C 
ATOM     20  C   UNL     1      33.120  -4.351 -25.905  0.00  0.00    +0.099 C 
ATOM     21  C   UNL     1      35.250  -4.631 -26.723  0.00  0.00    +0.099 C 
ENDBRANCH  15  17
ENDBRANCH  14  15
ENDBRANCH   5  14
ENDBRANCH   2  11
BRANCH   3  25
ATOM     22  F   UNL     1      34.784 -16.877 -25.622  0.00  0.00    -0.204 F 
ATOM     23  C   UNL     1      35.069 -17.654 -22.080  0.00  0.00    +0.050 C 
ATOM     24  C   UNL     1      34.726 -16.424 -21.518  0.00  0.00    +0.019 C 
ATOM     25  C   UNL     1      34.409 -15.375 -22.356  0.00  0.00    +0.057 C 
ATOM     26  C   UNL     1      35.088 -17.807 -23.465  0.00  0.00    +0.044 C 
ATOM     27  C   UNL     1      34.421 -15.500 -23.730  0.00  0.00    +0.034 C 
ATOM     28  C   UNL     1      34.764 -16.730 -24.291  0.00  0.00    +0.142 C 
BRANCH  23  30
ATOM     29  O   UNL     1      36.163 -21.021 -19.811  0.00  0.00    -0.350 OA
ATOM     30  N   UNL     1      35.394 -18.733 -21.252  0.00  0.00    -0.303 N 
ATOM     31  C   UNL     1      34.515 -19.908 -21.201  0.00  0.00    +0.123 C 
ATOM     32  C   UNL     1      36.814 -19.003 -20.989  0.00  0.00    +0.123 C 
ATOM     33  C   UNL     1      34.778 -20.693 -19.921  0.00  0.00    +0.164 C 
ATOM     34  C   UNL     1      36.954 -19.836 -19.720  0.00  0.00    +0.164 C 
ENDBRANCH  23  30
ENDBRANCH   3  25
TORSDOF 6
ENDMDL
MODEL 6
REMARK VINA RESULT:     -10.5      3.448     11.107
REMARK  Name = 5326869
REMARK  6 active torsions:
REMARK  status: ('A' for Active; 'I' for Inactive)
REMARK    1  A    between atoms: N_2  and  C_11
REMARK    2  A    between atoms: C_3  and  C_25
REMARK    3  A    between atoms: N_5  and  C_14
REMARK    4  A    between atoms: C_14  and  C_15
REMARK    5  A    between atoms: C_15  and  C_17
REMARK    6  A    between atoms: C_23  and  N_30
REMARK                            x       y       z     vdW  Elec       q    Type
REMARK                         _______ _______ _______ _____ _____    ______ ____
ROOT
ATOM      1  O   UNL     1      32.879 -20.809 -19.960  0.00  0.00    -0.270 OA
ATOM      2  N   UNL     1      34.866 -21.293 -18.799  0.00  0.00    -0.280 N 
ATOM      3  C   UNL     1      34.090 -20.698 -19.804  0.00  0.00    +0.250 C 
ATOM      4  H   UNL     1      35.830 -21.095 -18.825  0.00  0.00    +0.155 HD
ENDROOT
BRANCH   2  11
ATOM      5  N   UNL     1      35.376 -23.529 -14.447  0.00  0.00    -0.286 N 
ATOM      6  C   UNL     1      34.794 -23.165 -15.640  0.00  0.00    +0.053 C 
ATOM      7  C   UNL     1      33.561 -23.816 -15.711  0.00  0.00    +0.015 C 
ATOM      8  C   UNL     1      34.555 -24.386 -13.764  0.00  0.00    +0.065 C 
ATOM      9  C   UNL     1      35.260 -22.317 -16.652  0.00  0.00    +0.029 C 
ATOM     10  C   UNL     1      33.424 -24.583 -14.520  0.00  0.00    +0.017 C 
ATOM     11  C   UNL     1      34.440 -22.131 -17.768  0.00  0.00    +0.052 C 
ATOM     12  C   UNL     1      32.751 -23.612 -16.847  0.00  0.00    +0.003 C 
ATOM     13  C   UNL     1      33.204 -22.768 -17.866  0.00  0.00    +0.015 C 
BRANCH   5  14
ATOM     14  C   UNL     1      36.666 -23.080 -13.969  0.00  0.00    +0.100 C 
BRANCH  14  15
ATOM     15  C   UNL     1      37.333 -24.060 -12.999  0.00  0.00    +0.048 C 
BRANCH  15  17
ATOM     16  N   UNL     1      40.689 -26.115 -14.696  0.00  0.00    -0.242 NA
ATOM     17  C   UNL     1      38.514 -24.784 -13.597  0.00  0.00    -0.017 C 
ATOM     18  C   UNL     1      38.963 -24.432 -14.856  0.00  0.00    +0.016 C 
ATOM     19  C   UNL     1      39.132 -25.789 -12.876  0.00  0.00    +0.016 C 
ATOM     20  C   UNL     1      40.051 -25.126 -15.360  0.00  0.00    +0.099 C 
ATOM     21  C   UNL     1      40.212 -26.422 -13.469  0.00  0.00    +0.099 C 
ENDBRANCH  15  17
ENDBRANCH  14  15
ENDBRANCH   5  14
ENDBRANCH   2  11
BRANCH   3  25
ATOM     22  F   UNL     1      38.255 -18.924 -21.505  0.00  0.00    -0.204 F 
ATOM     23  C   UNL     1      34.851 -18.442 -22.696  0.00  0.00    +0.050 C 
ATOM     24  C   UNL     1      34.145 -19.216 -21.776  0.00  0.00    +0.019 C 
ATOM     25  C   UNL     1      34.842 -19.872 -20.784  0.00  0.00    +0.057 C 
ATOM     26  C   UNL     1      36.239 -18.343 -22.605  0.00  0.00    +0.044 C 
ATOM     27  C   UNL     1      36.215 -19.791 -20.671  0.00  0.00    +0.034 C 
ATOM     28  C   UNL     1      36.921 -19.018 -21.592  0.00  0.00    +0.142 C 
BRANCH  23  30
ATOM     29  O   UNL     1      32.974 -16.517 -25.930  0.00  0.00    -0.350 OA
ATOM     30  N   UNL     1      34.167 -17.766 -23.712  0.00  0.00    -0.303 N 
ATOM     31  C   UNL     1      34.650 -16.460 -24.177  0.00  0.00    +0.123 C 
ATOM     32  C   UNL     1      33.455 -18.564 -24.719  0.00  0.00    +0.123 C 
ATOM     33  C   UNL     1      33.523 -15.716 -24.884  0.00  0.00    +0.164 C 
ATOM     34  C   UNL     1      32.392 -17.707 -25.398  0.00  0.00    +0.164 C 
ENDBRANCH  23  30
ENDBRANCH   3  25
TORSDOF 6
ENDMDL
MODEL 7
REMARK VINA RESULT:     -10.4      7.919     15.085
REMARK  Name = 5326869
REMARK  6 active torsions:
REMARK  status: ('A' for Active; 'I' for Inactive)
REMARK    1  A    between atoms: N_2  and  C_11
REMARK    2  A    between atoms: C_3  and  C_25
REMARK    3  A    between atoms: N_5  and  C_14
REMARK    4  A    between atoms: C_14  and  C_15
REMARK    5  A    between atoms: C_15  and  C_17
REMARK    6  A    between atoms: C_23  and  N_30
REMARK                            x       y       z     vdW  Elec       q    Type
REMARK                         _______ _______ _______ _____ _____    ______ ____
ROOT
ATOM      1  O   UNL     1      34.160  -7.042 -22.135  0.00  0.00    -0.270 OA
ATOM      2  N   UNL     1      32.263  -8.045 -23.095  0.00  0.00    -0.280 N 
ATOM      3  C   UNL     1      33.234  -7.047 -22.938  0.00  0.00    +0.250 C 
ATOM      4  H   UNL     1      31.588  -7.884 -23.793  0.00  0.00    +0.155 HD
ENDROOT
BRANCH   2  11
ATOM      5  N   UNL     1      33.145 -12.820 -22.310  0.00  0.00    -0.286 N 
ATOM      6  C   UNL     1      32.631 -11.561 -22.099  0.00  0.00    +0.053 C 
ATOM      7  C   UNL     1      31.864 -11.620 -20.934  0.00  0.00    +0.015 C 
ATOM      8  C   UNL     1      32.730 -13.671 -21.320  0.00  0.00    +0.065 C 
ATOM      9  C   UNL     1      32.785 -10.386 -22.845  0.00  0.00    +0.029 C 
ATOM     10  C   UNL     1      31.935 -12.957 -20.453  0.00  0.00    +0.017 C 
ATOM     11  C   UNL     1      32.134  -9.238 -22.383  0.00  0.00    +0.052 C 
ATOM     12  C   UNL     1      31.218 -10.449 -20.488  0.00  0.00    +0.003 C 
ATOM     13  C   UNL     1      31.363  -9.267 -21.223  0.00  0.00    +0.015 C 
BRANCH   5  14
ATOM     14  C   UNL     1      34.002 -13.206 -23.410  0.00  0.00    +0.100 C 
BRANCH  14  15
ATOM     15  C   UNL     1      33.365 -14.237 -24.348  0.00  0.00    +0.048 C 
BRANCH  15  17
ATOM     16  N   UNL     1      34.769 -18.232 -23.694  0.00  0.00    -0.242 NA
ATOM     17  C   UNL     1      33.860 -15.643 -24.119  0.00  0.00    -0.017 C 
ATOM     18  C   UNL     1      34.768 -15.888 -23.106  0.00  0.00    +0.016 C 
ATOM     19  C   UNL     1      33.397 -16.667 -24.923  0.00  0.00    +0.016 C 
ATOM     20  C   UNL     1      35.191 -17.196 -22.936  0.00  0.00    +0.099 C 
ATOM     21  C   UNL     1      33.881 -17.940 -24.671  0.00  0.00    +0.099 C 
ENDBRANCH  15  17
ENDBRANCH  14  15
ENDBRANCH   5  14
ENDBRANCH   2  11
BRANCH   3  25
ATOM     22  F   UNL     1      30.997  -2.943 -24.178  0.00  0.00    -0.204 F 
ATOM     23  C   UNL     1      33.822  -4.625 -25.736  0.00  0.00    +0.050 C 
ATOM     24  C   UNL     1      33.957  -5.731 -24.896  0.00  0.00    +0.019 C 
ATOM     25  C   UNL     1      33.089  -5.871 -23.834  0.00  0.00    +0.057 C 
ATOM     26  C   UNL     1      32.822  -3.684 -25.494  0.00  0.00    +0.044 C 
ATOM     27  C   UNL     1      32.092  -4.954 -23.572  0.00  0.00    +0.034 C 
ATOM     28  C   UNL     1      31.956  -3.848 -24.412  0.00  0.00    +0.142 C 
BRANCH  23  30
ATOM     29  O   UNL     1      36.545  -3.919 -28.861  0.00  0.00    -0.350 OA
ATOM     30  N   UNL     1      34.689  -4.461 -26.821  0.00  0.00    -0.303 N 
ATOM     31  C   UNL     1      34.374  -3.483 -27.869  0.00  0.00    +0.123 C 
ATOM     32  C   UNL     1      36.121  -4.710 -26.607  0.00  0.00    +0.123 C 
ATOM     33  C   UNL     1      35.148  -3.822 -29.138  0.00  0.00    +0.164 C 
ATOM     34  C   UNL     1      36.802  -4.982 -27.944  0.00  0.00    +0.164 C 
ENDBRANCH  23  30
ENDBRANCH   3  25
TORSDOF 6
ENDMDL
MODEL 8
REMARK VINA RESULT:     -10.2      3.448     10.984
REMARK  Name = 5326869
REMARK  6 active torsions:
REMARK  status: ('A' for Active; 'I' for Inactive)
REMARK    1  A    between atoms: N_2  and  C_11
REMARK    2  A    between atoms: C_3  and  C_25
REMARK    3  A    between atoms: N_5  and  C_14
REMARK    4  A    between atoms: C_14  and  C_15
REMARK    5  A    between atoms: C_15  and  C_17
REMARK    6  A    between atoms: C_23  and  N_30
REMARK                            x       y       z     vdW  Elec       q    Type
REMARK                         _______ _______ _______ _____ _____    ______ ____
ROOT
ATOM      1  O   UNL     1      32.973 -20.657 -20.177  0.00  0.00    -0.270 OA
ATOM      2  N   UNL     1      35.001 -21.126 -19.084  0.00  0.00    -0.280 N 
ATOM      3  C   UNL     1      34.185 -20.522 -20.050  0.00  0.00    +0.250 C 
ATOM      4  H   UNL     1      35.960 -20.904 -19.130  0.00  0.00    +0.155 HD
ENDROOT
BRANCH   2  11
ATOM      5  N   UNL     1      35.838 -23.805 -15.044  0.00  0.00    -0.286 N 
ATOM      6  C   UNL     1      35.142 -23.265 -16.102  0.00  0.00    +0.053 C 
ATOM      7  C   UNL     1      33.838 -23.758 -16.030  0.00  0.00    +0.015 C 
ATOM      8  C   UNL     1      35.020 -24.620 -14.308  0.00  0.00    +0.065 C 
ATOM      9  C   UNL     1      35.565 -22.386 -17.107  0.00  0.00    +0.029 C 
ATOM     10  C   UNL     1      33.775 -24.611 -14.893  0.00  0.00    +0.017 C 
ATOM     11  C   UNL     1      34.623 -22.001 -18.066  0.00  0.00    +0.052 C 
ATOM     12  C   UNL     1      32.906 -23.355 -17.008  0.00  0.00    +0.003 C 
ATOM     13  C   UNL     1      33.314 -22.477 -18.019  0.00  0.00    +0.015 C 
BRANCH   5  14
ATOM     14  C   UNL     1      37.231 -23.557 -14.738  0.00  0.00    +0.100 C 
BRANCH  14  15
ATOM     15  C   UNL     1      37.802 -24.504 -13.678  0.00  0.00    +0.048 C 
BRANCH  15  17
ATOM     16  N   UNL     1      36.172 -23.864  -9.767  0.00  0.00    -0.242 NA
ATOM     17  C   UNL     1      37.227 -24.278 -12.302  0.00  0.00    -0.017 C 
ATOM     18  C   UNL     1      36.544 -25.302 -11.673  0.00  0.00    +0.016 C 
ATOM     19  C   UNL     1      37.394 -23.051 -11.687  0.00  0.00    +0.016 C 
ATOM     20  C   UNL     1      36.037 -25.045 -10.410  0.00  0.00    +0.099 C 
ATOM     21  C   UNL     1      36.848 -22.895 -10.424  0.00  0.00    +0.099 C 
ENDBRANCH  15  17
ENDBRANCH  14  15
ENDBRANCH   5  14
ENDBRANCH   2  11
BRANCH   3  25
ATOM     22  F   UNL     1      38.245 -18.511 -21.739  0.00  0.00    -0.204 F 
ATOM     23  C   UNL     1      34.822 -18.219 -22.936  0.00  0.00    +0.050 C 
ATOM     24  C   UNL     1      34.159 -19.034 -22.018  0.00  0.00    +0.019 C 
ATOM     25  C   UNL     1      34.890 -19.652 -21.027  0.00  0.00    +0.057 C 
ATOM     26  C   UNL     1      36.201 -18.042 -22.841  0.00  0.00    +0.044 C 
ATOM     27  C   UNL     1      36.256 -19.494 -20.912  0.00  0.00    +0.034 C 
ATOM     28  C   UNL     1      36.920 -18.680 -21.829  0.00  0.00    +0.142 C 
BRANCH  23  30
ATOM     29  O   UNL     1      32.822 -16.424 -26.171  0.00  0.00    -0.350 OA
ATOM     30  N   UNL     1      34.103 -17.579 -23.951  0.00  0.00    -0.303 N 
ATOM     31  C   UNL     1      34.606 -16.328 -24.529  0.00  0.00    +0.123 C 
ATOM     32  C   UNL     1      33.298 -18.408 -24.858  0.00  0.00    +0.123 C 
ATOM     33  C   UNL     1      33.467 -15.582 -25.215  0.00  0.00    +0.164 C 
ATOM     34  C   UNL     1      32.228 -17.552 -25.527  0.00  0.00    +0.164 C 
ENDBRANCH  23  30
ENDBRANCH   3  25
TORSDOF 6
ENDMDL
MODEL 9
REMARK VINA RESULT:     -10.2      5.470      9.856
REMARK  Name = 5326869
REMARK  6 active torsions:
REMARK  status: ('A' for Active; 'I' for Inactive)
REMARK    1  A    between atoms: N_2  and  C_11
REMARK    2  A    between atoms: C_3  and  C_25
REMARK    3  A    between atoms: N_5  and  C_14
REMARK    4  A    between atoms: C_14  and  C_15
REMARK    5  A    between atoms: C_15  and  C_17
REMARK    6  A    between atoms: C_23  and  N_30
REMARK                            x       y       z     vdW  Elec       q    Type
REMARK                         _______ _______ _______ _____ _____    ______ ____
ROOT
ATOM      1  O   UNL     1      32.654 -13.093 -21.116  0.00  0.00    -0.270 OA
ATOM      2  N   UNL     1      32.935 -11.563 -22.879  0.00  0.00    -0.280 N 
ATOM      3  C   UNL     1      32.952 -12.828 -22.275  0.00  0.00    +0.250 C 
ATOM      4  H   UNL     1      33.207 -11.533 -23.824  0.00  0.00    +0.155 HD
ENDROOT
BRANCH   2  11
ATOM      5  N   UNL     1      32.967  -6.651 -22.602  0.00  0.00    -0.286 N 
ATOM      6  C   UNL     1      32.664  -7.952 -22.267  0.00  0.00    +0.053 C 
ATOM      7  C   UNL     1      31.849  -7.904 -21.135  0.00  0.00    +0.015 C 
ATOM      8  C   UNL     1      32.373  -5.786 -21.723  0.00  0.00    +0.065 C 
ATOM      9  C   UNL     1      33.046  -9.154 -22.874  0.00  0.00    +0.029 C 
ATOM     10  C   UNL     1      31.673  -6.532 -20.803  0.00  0.00    +0.017 C 
ATOM     11  C   UNL     1      32.579 -10.342 -22.304  0.00  0.00    +0.052 C 
ATOM     12  C   UNL     1      31.389  -9.115 -20.579  0.00  0.00    +0.003 C 
ATOM     13  C   UNL     1      31.763 -10.325 -21.175  0.00  0.00    +0.015 C 
BRANCH   5  14
ATOM     14  C   UNL     1      33.792  -6.241 -23.719  0.00  0.00    +0.100 C 
BRANCH  14  15
ATOM     15  C   UNL     1      33.057  -5.352 -24.727  0.00  0.00    +0.048 C 
BRANCH  15  17
ATOM     16  N   UNL     1      35.632  -3.680 -27.716  0.00  0.00    -0.242 NA
ATOM     17  C   UNL     1      33.962  -4.764 -25.779  0.00  0.00    -0.017 C 
ATOM     18  C   UNL     1      33.469  -3.808 -26.646  0.00  0.00    +0.016 C 
ATOM     19  C   UNL     1      35.276  -5.189 -25.862  0.00  0.00    +0.016 C 
ATOM     20  C   UNL     1      34.341  -3.298 -27.595  0.00  0.00    +0.099 C 
ATOM     21  C   UNL     1      36.067  -4.617 -26.845  0.00  0.00    +0.099 C 
ENDBRANCH  15  17
ENDBRANCH  14  15
ENDBRANCH   5  14
ENDBRANCH   2  11
BRANCH   3  25
ATOM     22  F   UNL     1      33.687 -14.719 -26.664  0.00  0.00    -0.204 F 
ATOM     23  C   UNL     1      34.329 -16.134 -23.374  0.00  0.00    +0.050 C 
ATOM     24  C   UNL     1      33.900 -15.088 -22.556  0.00  0.00    +0.019 C 
ATOM     25  C   UNL     1      33.408 -13.942 -23.145  0.00  0.00    +0.057 C 
ATOM     26  C   UNL     1      34.257 -16.009 -24.761  0.00  0.00    +0.044 C 
ATOM     27  C   UNL     1      33.326 -13.794 -24.514  0.00  0.00    +0.034 C 
ATOM     28  C   UNL     1      33.756 -14.839 -25.332  0.00  0.00    +0.142 C 
BRANCH  23  30
ATOM     29  O   UNL     1      35.590 -19.707 -21.551  0.00  0.00    -0.350 OA
ATOM     30  N   UNL     1      34.833 -17.307 -22.802  0.00  0.00    -0.303 N 
ATOM     31  C   UNL     1      35.293 -17.304 -21.409  0.00  0.00    +0.123 C 
ATOM     32  C   UNL     1      34.313 -18.593 -23.286  0.00  0.00    +0.123 C 
ATOM     33  C   UNL     1      36.225 -18.487 -21.171  0.00  0.00    +0.164 C 
ATOM     34  C   UNL     1      35.297 -19.707 -22.949  0.00  0.00    +0.164 C 
ENDBRANCH  23  30
ENDBRANCH   3  25
TORSDOF 6
ENDMDL
