MODEL 1
REMARK VINA RESULT:     -11.8      0.000      0.000
REMARK  Name = 16048422
REMARK  11 active torsions:
REMARK  status: ('A' for Active; 'I' for Inactive)
REMARK    1  A    between atoms: C_1  and  C_4
REMARK    2  A    between atoms: C_1  and  N_18
REMARK    3  A    between atoms: C_1  and  C_33
REMARK    4  A    between atoms: N_3  and  C_6
REMARK    5  A    between atoms: C_6  and  C_9
REMARK    6  A    between atoms: C_9  and  C_11
REMARK    7  A    between atoms: C_19  and  C_21
REMARK    8  A    between atoms: C_24  and  C_27
REMARK    9  A    between atoms: C_33  and  C_34
REMARK   10  A    between atoms: C_34  and  C_36
REMARK   11  A    between atoms: C_36  and  O_37
REMARK                            x       y       z     vdW  Elec       q    Type
REMARK                         _______ _______ _______ _____ _____    ______ ____
ROOT
ATOM      1  C   UNL     1      34.621 -24.074 -15.510  0.00  0.00    +0.149 C 
ENDROOT
BRANCH   1   4
ATOM      2  O   UNL     1      33.498 -23.029 -13.640  0.00  0.00    -0.273 OA
ATOM      3  N   UNL     1      32.241 -24.294 -15.128  0.00  0.00    -0.306 N 
ATOM      4  C   UNL     1      33.412 -23.721 -14.652  0.00  0.00    +0.240 C 
ATOM      5  H   UNL     1      32.284 -24.833 -15.951  0.00  0.00    +0.149 HD
BRANCH   3   6
ATOM      6  C   UNL     1      30.962 -24.138 -14.474  0.00  0.00    +0.061 C 
ATOM      7  C   UNL     1      31.018 -24.802 -13.089  0.00  0.00    +0.020 C 
ATOM      8  C   UNL     1      30.703 -22.634 -14.286  0.00  0.00    +0.020 C 
BRANCH   6   9
ATOM      9  C   UNL     1      29.826 -24.728 -15.349  0.00  0.00    +0.044 C 
BRANCH   9  11
ATOM     10  F   UNL     1      25.576 -21.224 -16.567  0.00  0.00    -0.204 F 
ATOM     11  C   UNL     1      28.686 -23.789 -15.676  0.00  0.00    -0.020 C 
ATOM     12  C   UNL     1      28.315 -23.578 -17.004  0.00  0.00    -0.002 C 
ATOM     13  C   UNL     1      28.008 -23.133 -14.649  0.00  0.00    -0.002 C 
ATOM     14  C   UNL     1      27.264 -22.713 -17.305  0.00  0.00    +0.029 C 
ATOM     15  C   UNL     1      26.956 -22.267 -14.950  0.00  0.00    +0.029 C 
ATOM     16  C   UNL     1      26.585 -22.057 -16.278  0.00  0.00    +0.140 C 
ENDBRANCH   9  11
ENDBRANCH   6   9
ENDBRANCH   3   6
ENDBRANCH   1   4
BRANCH   1  18
ATOM     17  O   UNL     1      33.392 -24.238 -18.100  0.00  0.00    -0.270 OA
ATOM     18  N   UNL     1      34.664 -23.074 -16.549  0.00  0.00    -0.295 N 
ATOM     19  C   UNL     1      34.036 -23.244 -17.774  0.00  0.00    +0.246 C 
ATOM     20  H   UNL     1      35.158 -22.240 -16.382  0.00  0.00    +0.150 HD
BRANCH  19  21
ATOM     21  C   UNL     1      34.198 -22.134 -18.747  0.00  0.00    +0.053 C 
ATOM     22  C   UNL     1      35.475 -21.715 -19.121  0.00  0.00    +0.005 C 
ATOM     23  C   UNL     1      33.073 -21.511 -19.287  0.00  0.00    +0.005 C 
ATOM     24  C   UNL     1      34.502 -20.049 -20.575  0.00  0.00    +0.000 C 
ATOM     25  C   UNL     1      35.627 -20.671 -20.035  0.00  0.00    +0.000 C 
ATOM     26  C   UNL     1      33.225 -20.468 -20.202  0.00  0.00    +0.000 C 
BRANCH  24  27
ATOM     27  C   UNL     1      34.659 -18.967 -21.523  0.00  0.00    +0.000 C 
ATOM     28  C   UNL     1      35.186 -17.745 -21.106  0.00  0.00    +0.000 C 
ATOM     29  C   UNL     1      34.285 -19.146 -22.855  0.00  0.00    +0.000 C 
ATOM     30  C   UNL     1      35.338 -16.702 -22.020  0.00  0.00    +0.000 C 
ATOM     31  C   UNL     1      34.437 -18.103 -23.769  0.00  0.00    +0.000 C 
ATOM     32  C   UNL     1      34.964 -16.881 -23.351  0.00  0.00    +0.000 C 
ENDBRANCH  24  27
ENDBRANCH  19  21
ENDBRANCH   1  18
BRANCH   1  33
ATOM     33  C   UNL     1      35.919 -24.065 -14.694  0.00  0.00    +0.041 C 
BRANCH  33  34
ATOM     34  C   UNL     1      36.245 -25.397 -14.014  0.00  0.00    +0.112 C 
BRANCH  34  36
ATOM     35  O   UNL     1      36.415 -27.205 -15.638  0.00  0.00    -0.250 OA
ATOM     36  C   UNL     1      36.957 -26.374 -14.923  0.00  0.00    +0.314 C 
BRANCH  36  37
ATOM     37  O   UNL     1      38.305 -26.202 -14.879  0.00  0.00    -0.480 OA
ATOM     38  H   UNL     1      38.670 -25.472 -14.421  0.00  0.00    +0.295 HD
ENDBRANCH  36  37
ENDBRANCH  34  36
ENDBRANCH  33  34
ENDBRANCH   1  33
TORSDOF 11
ENDMDL
MODEL 2
REMARK VINA RESULT:     -11.7      1.357      1.882
REMARK  Name = 16048422
REMARK  11 active torsions:
REMARK  status: ('A' for Active; 'I' for Inactive)
REMARK    1  A    between atoms: C_1  and  C_4
REMARK    2  A    between atoms: C_1  and  N_18
REMARK    3  A    between atoms: C_1  and  C_33
REMARK    4  A    between atoms: N_3  and  C_6
REMARK    5  A    between atoms: C_6  and  C_9
REMARK    6  A    between atoms: C_9  and  C_11
REMARK    7  A    between atoms: C_19  and  C_21
REMARK    8  A    between atoms: C_24  and  C_27
REMARK    9  A    between atoms: C_33  and  C_34
REMARK   10  A    between atoms: C_34  and  C_36
REMARK   11  A    between atoms: C_36  and  O_37
REMARK                            x       y       z     vdW  Elec       q    Type
REMARK                         _______ _______ _______ _____ _____    ______ ____
ROOT
ATOM      1  C   UNL     1      34.179 -23.754 -15.200  0.00  0.00    +0.149 C 
ENDROOT
BRANCH   1   4
ATOM      2  O   UNL     1      32.601 -22.421 -13.941  0.00  0.00    -0.273 OA
ATOM      3  N   UNL     1      31.941 -24.518 -14.687  0.00  0.00    -0.306 N 
ATOM      4  C   UNL     1      32.833 -23.466 -14.546  0.00  0.00    +0.240 C 
ATOM      5  H   UNL     1      32.230 -25.313 -15.193  0.00  0.00    +0.149 HD
BRANCH   3   6
ATOM      6  C   UNL     1      30.609 -24.506 -14.128  0.00  0.00    +0.061 C 
ATOM      7  C   UNL     1      29.714 -25.461 -14.933  0.00  0.00    +0.020 C 
ATOM      8  C   UNL     1      30.696 -25.019 -12.681  0.00  0.00    +0.020 C 
BRANCH   6   9
ATOM      9  C   UNL     1      30.038 -23.064 -14.106  0.00  0.00    +0.044 C 
BRANCH   9  11
ATOM     10  F   UNL     1      25.743 -22.053 -17.619  0.00  0.00    -0.204 F 
ATOM     11  C   UNL     1      28.887 -22.792 -15.048  0.00  0.00    -0.020 C 
ATOM     12  C   UNL     1      29.063 -22.937 -16.424  0.00  0.00    -0.002 C 
ATOM     13  C   UNL     1      27.649 -22.398 -14.540  0.00  0.00    -0.002 C 
ATOM     14  C   UNL     1      28.001 -22.688 -17.293  0.00  0.00    +0.029 C 
ATOM     15  C   UNL     1      26.587 -22.149 -15.409  0.00  0.00    +0.029 C 
ATOM     16  C   UNL     1      26.763 -22.293 -16.785  0.00  0.00    +0.140 C 
ENDBRANCH   9  11
ENDBRANCH   6   9
ENDBRANCH   3   6
ENDBRANCH   1   4
BRANCH   1  18
ATOM     17  O   UNL     1      33.449 -24.249 -17.932  0.00  0.00    -0.270 OA
ATOM     18  N   UNL     1      34.282 -22.827 -16.300  0.00  0.00    -0.295 N 
ATOM     19  C   UNL     1      33.902 -23.159 -17.593  0.00  0.00    +0.246 C 
ATOM     20  H   UNL     1      34.635 -21.925 -16.128  0.00  0.00    +0.150 HD
BRANCH  19  21
ATOM     21  C   UNL     1      34.096 -22.103 -18.619  0.00  0.00    +0.053 C 
ATOM     22  C   UNL     1      32.990 -21.469 -19.186  0.00  0.00    +0.005 C 
ATOM     23  C   UNL     1      35.384 -21.744 -19.014  0.00  0.00    +0.005 C 
ATOM     24  C   UNL     1      34.461 -20.119 -20.545  0.00  0.00    +0.000 C 
ATOM     25  C   UNL     1      33.173 -20.478 -20.150  0.00  0.00    +0.000 C 
ATOM     26  C   UNL     1      35.567 -20.751 -19.978  0.00  0.00    +0.000 C 
BRANCH  24  27
ATOM     27  C   UNL     1      34.651 -19.090 -21.545  0.00  0.00    +0.000 C 
ATOM     28  C   UNL     1      35.272 -17.889 -21.201  0.00  0.00    +0.000 C 
ATOM     29  C   UNL     1      34.215 -19.299 -22.853  0.00  0.00    +0.000 C 
ATOM     30  C   UNL     1      35.457 -16.898 -22.164  0.00  0.00    +0.000 C 
ATOM     31  C   UNL     1      34.399 -18.306 -23.817  0.00  0.00    +0.000 C 
ATOM     32  C   UNL     1      35.020 -17.106 -23.472  0.00  0.00    +0.000 C 
ENDBRANCH  24  27
ENDBRANCH  19  21
ENDBRANCH   1  18
BRANCH   1  33
ATOM     33  C   UNL     1      35.341 -23.562 -14.219  0.00  0.00    +0.041 C 
BRANCH  33  34
ATOM     34  C   UNL     1      35.680 -24.804 -13.392  0.00  0.00    +0.112 C 
BRANCH  34  36
ATOM     35  O   UNL     1      35.776 -25.369 -11.024  0.00  0.00    -0.250 OA
ATOM     36  C   UNL     1      35.359 -24.650 -11.922  0.00  0.00    +0.314 C 
BRANCH  36  37
ATOM     37  O   UNL     1      34.557 -23.577 -11.698  0.00  0.00    -0.480 OA
ATOM     38  H   UNL     1      33.778 -23.459 -12.204  0.00  0.00    +0.295 HD
ENDBRANCH  36  37
ENDBRANCH  34  36
ENDBRANCH  33  34
ENDBRANCH   1  33
TORSDOF 11
ENDMDL
MODEL 3
REMARK VINA RESULT:     -11.4      1.188      1.809
REMARK  Name = 16048422
REMARK  11 active torsions:
REMARK  status: ('A' for Active; 'I' for Inactive)
REMARK    1  A    between atoms: C_1  and  C_4
REMARK    2  A    between atoms: C_1  and  N_18
REMARK    3  A    between atoms: C_1  and  C_33
REMARK    4  A    between atoms: N_3  and  C_6
REMARK    5  A    between atoms: C_6  and  C_9
REMARK    6  A    between atoms: C_9  and  C_11
REMARK    7  A    between atoms: C_19  and  C_21
REMARK    8  A    between atoms: C_24  and  C_27
REMARK    9  A    between atoms: C_33  and  C_34
REMARK   10  A    between atoms: C_34  and  C_36
REMARK   11  A    between atoms: C_36  and  O_37
REMARK                            x       y       z     vdW  Elec       q    Type
REMARK                         _______ _______ _______ _____ _____    ______ ____
ROOT
ATOM      1  C   UNL     1      33.923 -23.304 -16.640  0.00  0.00    +0.149 C 
ENDROOT
BRANCH   1   4
ATOM      2  O   UNL     1      31.579 -22.730 -16.810  0.00  0.00    -0.273 OA
ATOM      3  N   UNL     1      32.285 -24.009 -15.005  0.00  0.00    -0.306 N 
ATOM      4  C   UNL     1      32.468 -23.311 -16.190  0.00  0.00    +0.240 C 
ATOM      5  H   UNL     1      33.067 -24.439 -14.589  0.00  0.00    +0.149 HD
BRANCH   3   6
ATOM      6  C   UNL     1      31.003 -24.135 -14.351  0.00  0.00    +0.061 C 
ATOM      7  C   UNL     1      31.157 -25.015 -13.101  0.00  0.00    +0.020 C 
ATOM      8  C   UNL     1      30.553 -22.732 -13.911  0.00  0.00    +0.020 C 
BRANCH   6   9
ATOM      9  C   UNL     1      29.944 -24.707 -15.330  0.00  0.00    +0.044 C 
BRANCH   9  11
ATOM     10  F   UNL     1      25.569 -21.336 -16.477  0.00  0.00    -0.204 F 
ATOM     11  C   UNL     1      28.771 -23.803 -15.638  0.00  0.00    -0.020 C 
ATOM     12  C   UNL     1      28.088 -23.169 -14.600  0.00  0.00    -0.002 C 
ATOM     13  C   UNL     1      28.372 -23.604 -16.959  0.00  0.00    -0.002 C 
ATOM     14  C   UNL     1      27.007 -22.335 -14.883  0.00  0.00    +0.029 C 
ATOM     15  C   UNL     1      27.291 -22.770 -17.243  0.00  0.00    +0.029 C 
ATOM     16  C   UNL     1      26.608 -22.136 -16.205  0.00  0.00    +0.140 C 
ENDBRANCH   9  11
ENDBRANCH   6   9
ENDBRANCH   3   6
ENDBRANCH   1   4
BRANCH   1  18
ATOM     17  O   UNL     1      36.290 -22.363 -17.966  0.00  0.00    -0.270 OA
ATOM     18  N   UNL     1      33.980 -22.386 -17.752  0.00  0.00    -0.295 N 
ATOM     19  C   UNL     1      35.178 -21.989 -18.329  0.00  0.00    +0.246 C 
ATOM     20  H   UNL     1      33.139 -22.028 -18.114  0.00  0.00    +0.150 HD
BRANCH  19  21
ATOM     21  C   UNL     1      35.068 -21.017 -19.447  0.00  0.00    +0.053 C 
ATOM     22  C   UNL     1      36.212 -20.391 -19.942  0.00  0.00    +0.005 C 
ATOM     23  C   UNL     1      33.822 -20.732 -20.003  0.00  0.00    +0.005 C 
ATOM     24  C   UNL     1      34.863 -19.193 -21.548  0.00  0.00    +0.000 C 
ATOM     25  C   UNL     1      36.110 -19.478 -20.992  0.00  0.00    +0.000 C 
ATOM     26  C   UNL     1      33.718 -19.819 -21.054  0.00  0.00    +0.000 C 
BRANCH  24  27
ATOM     27  C   UNL     1      34.756 -18.247 -22.637  0.00  0.00    +0.000 C 
ATOM     28  C   UNL     1      35.247 -16.950 -22.486  0.00  0.00    +0.000 C 
ATOM     29  C   UNL     1      34.162 -18.631 -23.840  0.00  0.00    +0.000 C 
ATOM     30  C   UNL     1      35.145 -16.038 -23.537  0.00  0.00    +0.000 C 
ATOM     31  C   UNL     1      34.060 -17.719 -24.890  0.00  0.00    +0.000 C 
ATOM     32  C   UNL     1      34.551 -16.423 -24.738  0.00  0.00    +0.000 C 
ENDBRANCH  24  27
ENDBRANCH  19  21
ENDBRANCH   1  18
BRANCH   1  33
ATOM     33  C   UNL     1      34.865 -22.854 -15.517  0.00  0.00    +0.041 C 
BRANCH  33  34
ATOM     34  C   UNL     1      35.959 -23.865 -15.168  0.00  0.00    +0.112 C 
BRANCH  34  36
ATOM     35  O   UNL     1      35.618 -26.275 -15.274  0.00  0.00    -0.250 OA
ATOM     36  C   UNL     1      35.415 -25.204 -14.720  0.00  0.00    +0.314 C 
BRANCH  36  37
ATOM     37  O   UNL     1      34.679 -25.086 -13.584  0.00  0.00    -0.480 OA
ATOM     38  H   UNL     1      33.892 -24.578 -13.586  0.00  0.00    +0.295 HD
ENDBRANCH  36  37
ENDBRANCH  34  36
ENDBRANCH  33  34
ENDBRANCH   1  33
TORSDOF 11
ENDMDL
MODEL 4
REMARK VINA RESULT:     -10.8      5.653     11.042
REMARK  Name = 16048422
REMARK  11 active torsions:
REMARK  status: ('A' for Active; 'I' for Inactive)
REMARK    1  A    between atoms: C_1  and  C_4
REMARK    2  A    between atoms: C_1  and  N_18
REMARK    3  A    between atoms: C_1  and  C_33
REMARK    4  A    between atoms: N_3  and  C_6
REMARK    5  A    between atoms: C_6  and  C_9
REMARK    6  A    between atoms: C_9  and  C_11
REMARK    7  A    between atoms: C_19  and  C_21
REMARK    8  A    between atoms: C_24  and  C_27
REMARK    9  A    between atoms: C_33  and  C_34
REMARK   10  A    between atoms: C_34  and  C_36
REMARK   11  A    between atoms: C_36  and  O_37
REMARK                            x       y       z     vdW  Elec       q    Type
REMARK                         _______ _______ _______ _____ _____    ______ ____
ROOT
ATOM      1  C   UNL     1      35.347 -16.624 -23.310  0.00  0.00    +0.149 C 
ENDROOT
BRANCH   1   4
ATOM      2  O   UNL     1      34.480 -15.086 -21.656  0.00  0.00    -0.273 OA
ATOM      3  N   UNL     1      34.252 -14.550 -23.904  0.00  0.00    -0.306 N 
ATOM      4  C   UNL     1      34.662 -15.345 -22.845  0.00  0.00    +0.240 C 
ATOM      5  H   UNL     1      34.448 -14.853 -24.820  0.00  0.00    +0.149 HD
BRANCH   3   6
ATOM      6  C   UNL     1      33.549 -13.300 -23.729  0.00  0.00    +0.061 C 
ATOM      7  C   UNL     1      34.511 -12.256 -23.141  0.00  0.00    +0.020 C 
ATOM      8  C   UNL     1      33.087 -12.815 -25.114  0.00  0.00    +0.020 C 
BRANCH   6   9
ATOM      9  C   UNL     1      32.297 -13.497 -22.835  0.00  0.00    +0.044 C 
BRANCH   9  11
ATOM     10  F   UNL     1      31.318  -9.450 -19.029  0.00  0.00    -0.204 F 
ATOM     11  C   UNL     1      32.034 -12.412 -21.814  0.00  0.00    -0.020 C 
ATOM     12  C   UNL     1      31.752 -11.113 -22.235  0.00  0.00    -0.002 C 
ATOM     13  C   UNL     1      32.075 -12.711 -20.453  0.00  0.00    -0.002 C 
ATOM     14  C   UNL     1      31.509 -10.112 -21.294  0.00  0.00    +0.029 C 
ATOM     15  C   UNL     1      31.832 -11.711 -19.512  0.00  0.00    +0.029 C 
ATOM     16  C   UNL     1      31.550 -10.411 -19.933  0.00  0.00    +0.140 C 
ENDBRANCH   9  11
ENDBRANCH   6   9
ENDBRANCH   3   6
ENDBRANCH   1   4
BRANCH   1  18
ATOM     17  O   UNL     1      36.944 -18.934 -22.714  0.00  0.00    -0.270 OA
ATOM     18  N   UNL     1      35.104 -17.594 -22.270  0.00  0.00    -0.295 N 
ATOM     19  C   UNL     1      35.936 -18.683 -22.058  0.00  0.00    +0.246 C 
ATOM     20  H   UNL     1      34.317 -17.480 -21.690  0.00  0.00    +0.150 HD
BRANCH  19  21
ATOM     21  C   UNL     1      35.533 -19.606 -20.965  0.00  0.00    +0.053 C 
ATOM     22  C   UNL     1      34.185 -19.904 -20.765  0.00  0.00    +0.005 C 
ATOM     23  C   UNL     1      36.503 -20.175 -20.141  0.00  0.00    +0.005 C 
ATOM     24  C   UNL     1      34.777 -21.339 -18.914  0.00  0.00    +0.000 C 
ATOM     25  C   UNL     1      33.807 -20.770 -19.739  0.00  0.00    +0.000 C 
ATOM     26  C   UNL     1      36.125 -21.042 -19.115  0.00  0.00    +0.000 C 
BRANCH  24  27
ATOM     27  C   UNL     1      34.385 -22.237 -17.851  0.00  0.00    +0.000 C 
ATOM     28  C   UNL     1      35.306 -22.596 -16.865  0.00  0.00    +0.000 C 
ATOM     29  C   UNL     1      33.086 -22.745 -17.808  0.00  0.00    +0.000 C 
ATOM     30  C   UNL     1      34.927 -23.461 -15.839  0.00  0.00    +0.000 C 
ATOM     31  C   UNL     1      32.709 -23.611 -16.781  0.00  0.00    +0.000 C 
ATOM     32  C   UNL     1      33.630 -23.969 -15.797  0.00  0.00    +0.000 C 
ENDBRANCH  24  27
ENDBRANCH  19  21
ENDBRANCH   1  18
BRANCH   1  33
ATOM     33  C   UNL     1      34.787 -17.114 -24.651  0.00  0.00    +0.041 C 
BRANCH  33  34
ATOM     34  C   UNL     1      33.555 -18.013 -24.528  0.00  0.00    +0.112 C 
BRANCH  34  36
ATOM     35  O   UNL     1      31.392 -18.210 -25.631  0.00  0.00    -0.250 OA
ATOM     36  C   UNL     1      32.391 -17.552 -25.377  0.00  0.00    +0.314 C 
BRANCH  36  37
ATOM     37  O   UNL     1      32.569 -16.278 -25.815  0.00  0.00    -0.480 OA
ATOM     38  H   UNL     1      33.357 -15.816 -25.605  0.00  0.00    +0.295 HD
ENDBRANCH  36  37
ENDBRANCH  34  36
ENDBRANCH  33  34
ENDBRANCH   1  33
TORSDOF 11
ENDMDL
MODEL 5
REMARK VINA RESULT:     -10.5      1.440      2.056
REMARK  Name = 16048422
REMARK  11 active torsions:
REMARK  status: ('A' for Active; 'I' for Inactive)
REMARK    1  A    between atoms: C_1  and  C_4
REMARK    2  A    between atoms: C_1  and  N_18
REMARK    3  A    between atoms: C_1  and  C_33
REMARK    4  A    between atoms: N_3  and  C_6
REMARK    5  A    between atoms: C_6  and  C_9
REMARK    6  A    between atoms: C_9  and  C_11
REMARK    7  A    between atoms: C_19  and  C_21
REMARK    8  A    between atoms: C_24  and  C_27
REMARK    9  A    between atoms: C_33  and  C_34
REMARK   10  A    between atoms: C_34  and  C_36
REMARK   11  A    between atoms: C_36  and  O_37
REMARK                            x       y       z     vdW  Elec       q    Type
REMARK                         _______ _______ _______ _____ _____    ______ ____
ROOT
ATOM      1  C   UNL     1      36.187 -23.642 -15.609  0.00  0.00    +0.149 C 
ENDROOT
BRANCH   1   4
ATOM      2  O   UNL     1      35.232 -22.333 -13.813  0.00  0.00    -0.273 OA
ATOM      3  N   UNL     1      34.048 -24.167 -14.606  0.00  0.00    -0.306 N 
ATOM      4  C   UNL     1      35.119 -23.285 -14.583  0.00  0.00    +0.240 C 
ATOM      5  H   UNL     1      34.057 -24.898 -15.266  0.00  0.00    +0.149 HD
BRANCH   3   6
ATOM      6  C   UNL     1      32.920 -24.065 -13.708  0.00  0.00    +0.061 C 
ATOM      7  C   UNL     1      33.375 -24.412 -12.283  0.00  0.00    +0.020 C 
ATOM      8  C   UNL     1      32.429 -22.607 -13.725  0.00  0.00    +0.020 C 
BRANCH   6   9
ATOM      9  C   UNL     1      31.761 -24.980 -14.181  0.00  0.00    +0.044 C 
BRANCH   9  11
ATOM     10  F   UNL     1      27.523 -22.407 -16.871  0.00  0.00    -0.204 F 
ATOM     11  C   UNL     1      30.624 -24.290 -14.902  0.00  0.00    -0.020 C 
ATOM     12  C   UNL     1      30.898 -23.319 -15.866  0.00  0.00    -0.002 C 
ATOM     13  C   UNL     1      29.304 -24.625 -14.604  0.00  0.00    -0.002 C 
ATOM     14  C   UNL     1      29.850 -22.683 -16.531  0.00  0.00    +0.029 C 
ATOM     15  C   UNL     1      28.256 -23.989 -15.270  0.00  0.00    +0.029 C 
ATOM     16  C   UNL     1      28.529 -23.018 -16.233  0.00  0.00    +0.140 C 
ENDBRANCH   9  11
ENDBRANCH   6   9
ENDBRANCH   3   6
ENDBRANCH   1   4
BRANCH   1  18
ATOM     17  O   UNL     1      34.009 -23.656 -17.479  0.00  0.00    -0.270 OA
ATOM     18  N   UNL     1      35.990 -22.730 -16.708  0.00  0.00    -0.295 N 
ATOM     19  C   UNL     1      34.901 -22.816 -17.562  0.00  0.00    +0.246 C 
ATOM     20  H   UNL     1      36.653 -22.019 -16.858  0.00  0.00    +0.150 HD
BRANCH  19  21
ATOM     21  C   UNL     1      34.857 -21.818 -18.662  0.00  0.00    +0.053 C 
ATOM     22  C   UNL     1      33.631 -21.429 -19.203  0.00  0.00    +0.005 C 
ATOM     23  C   UNL     1      36.042 -21.270 -19.153  0.00  0.00    +0.005 C 
ATOM     24  C   UNL     1      34.775 -19.945 -20.727  0.00  0.00    +0.000 C 
ATOM     25  C   UNL     1      33.591 -20.492 -20.236  0.00  0.00    +0.000 C 
ATOM     26  C   UNL     1      36.001 -20.333 -20.186  0.00  0.00    +0.000 C 
BRANCH  24  27
ATOM     27  C   UNL     1      34.734 -18.973 -21.798  0.00  0.00    +0.000 C 
ATOM     28  C   UNL     1      35.239 -17.689 -21.595  0.00  0.00    +0.000 C 
ATOM     29  C   UNL     1      34.190 -19.321 -23.035  0.00  0.00    +0.000 C 
ATOM     30  C   UNL     1      35.200 -16.752 -22.629  0.00  0.00    +0.000 C 
ATOM     31  C   UNL     1      34.151 -18.383 -24.068  0.00  0.00    +0.000 C 
ATOM     32  C   UNL     1      34.656 -17.099 -23.864  0.00  0.00    +0.000 C 
ENDBRANCH  24  27
ENDBRANCH  19  21
ENDBRANCH   1  18
BRANCH   1  33
ATOM     33  C   UNL     1      37.600 -23.499 -15.031  0.00  0.00    +0.041 C 
BRANCH  33  34
ATOM     34  C   UNL     1      38.213 -24.810 -14.532  0.00  0.00    +0.112 C 
BRANCH  34  36
ATOM     35  O   UNL     1      38.435 -23.918 -12.276  0.00  0.00    -0.250 OA
ATOM     36  C   UNL     1      38.332 -24.879 -13.026  0.00  0.00    +0.314 C 
BRANCH  36  37
ATOM     37  O   UNL     1      38.280 -26.162 -12.581  0.00  0.00    -0.480 OA
ATOM     38  H   UNL     1      37.564 -26.714 -12.826  0.00  0.00    +0.295 HD
ENDBRANCH  36  37
ENDBRANCH  34  36
ENDBRANCH  33  34
ENDBRANCH   1  33
TORSDOF 11
ENDMDL
MODEL 6
REMARK VINA RESULT:     -10.3      5.827     11.009
REMARK  Name = 16048422
REMARK  11 active torsions:
REMARK  status: ('A' for Active; 'I' for Inactive)
REMARK    1  A    between atoms: C_1  and  C_4
REMARK    2  A    between atoms: C_1  and  N_18
REMARK    3  A    between atoms: C_1  and  C_33
REMARK    4  A    between atoms: N_3  and  C_6
REMARK    5  A    between atoms: C_6  and  C_9
REMARK    6  A    between atoms: C_9  and  C_11
REMARK    7  A    between atoms: C_19  and  C_21
REMARK    8  A    between atoms: C_24  and  C_27
REMARK    9  A    between atoms: C_33  and  C_34
REMARK   10  A    between atoms: C_34  and  C_36
REMARK   11  A    between atoms: C_36  and  O_37
REMARK                            x       y       z     vdW  Elec       q    Type
REMARK                         _______ _______ _______ _____ _____    ______ ____
ROOT
ATOM      1  C   UNL     1      35.253 -16.578 -23.533  0.00  0.00    +0.149 C 
ENDROOT
BRANCH   1   4
ATOM      2  O   UNL     1      34.192 -14.436 -23.906  0.00  0.00    -0.273 OA
ATOM      3  N   UNL     1      34.252 -15.289 -21.746  0.00  0.00    -0.306 N 
ATOM      4  C   UNL     1      34.502 -15.322 -23.110  0.00  0.00    +0.240 C 
ATOM      5  H   UNL     1      34.544 -16.053 -21.198  0.00  0.00    +0.149 HD
BRANCH   3   6
ATOM      6  C   UNL     1      33.583 -14.188 -21.091  0.00  0.00    +0.061 C 
ATOM      7  C   UNL     1      32.864 -14.707 -19.837  0.00  0.00    +0.020 C 
ATOM      8  C   UNL     1      34.653 -13.172 -20.658  0.00  0.00    +0.020 C 
BRANCH   6   9
ATOM      9  C   UNL     1      32.603 -13.485 -22.067  0.00  0.00    +0.044 C 
BRANCH   9  11
ATOM     10  F   UNL     1      31.377  -8.107 -20.885  0.00  0.00    -0.204 F 
ATOM     11  C   UNL     1      32.275 -12.043 -21.750  0.00  0.00    -0.020 C 
ATOM     12  C   UNL     1      32.680 -11.029 -22.617  0.00  0.00    -0.002 C 
ATOM     13  C   UNL     1      31.566 -11.728 -20.590  0.00  0.00    -0.002 C 
ATOM     14  C   UNL     1      32.376  -9.699 -22.325  0.00  0.00    +0.029 C 
ATOM     15  C   UNL     1      31.262 -10.399 -20.299  0.00  0.00    +0.029 C 
ATOM     16  C   UNL     1      31.668  -9.384 -21.166  0.00  0.00    +0.140 C 
ENDBRANCH   9  11
ENDBRANCH   6   9
ENDBRANCH   3   6
ENDBRANCH   1   4
BRANCH   1  18
ATOM     17  O   UNL     1      36.921 -18.819 -22.870  0.00  0.00    -0.270 OA
ATOM     18  N   UNL     1      35.029 -17.537 -22.478  0.00  0.00    -0.295 N 
ATOM     19  C   UNL     1      35.896 -18.591 -22.233  0.00  0.00    +0.246 C 
ATOM     20  H   UNL     1      34.231 -17.439 -21.911  0.00  0.00    +0.150 HD
BRANCH  19  21
ATOM     21  C   UNL     1      35.510 -19.507 -21.129  0.00  0.00    +0.053 C 
ATOM     22  C   UNL     1      34.165 -19.797 -20.901  0.00  0.00    +0.005 C 
ATOM     23  C   UNL     1      36.493 -20.077 -20.321  0.00  0.00    +0.005 C 
ATOM     24  C   UNL     1      34.786 -21.227 -19.055  0.00  0.00    +0.000 C 
ATOM     25  C   UNL     1      33.802 -20.656 -19.863  0.00  0.00    +0.000 C 
ATOM     26  C   UNL     1      36.131 -20.938 -19.283  0.00  0.00    +0.000 C 
BRANCH  24  27
ATOM     27  C   UNL     1      34.411 -22.118 -17.979  0.00  0.00    +0.000 C 
ATOM     28  C   UNL     1      33.119 -22.643 -17.926  0.00  0.00    +0.000 C 
ATOM     29  C   UNL     1      35.341 -22.455 -16.996  0.00  0.00    +0.000 C 
ATOM     30  C   UNL     1      32.758 -23.504 -16.889  0.00  0.00    +0.000 C 
ATOM     31  C   UNL     1      34.979 -23.316 -15.959  0.00  0.00    +0.000 C 
ATOM     32  C   UNL     1      33.688 -23.840 -15.906  0.00  0.00    +0.000 C 
ENDBRANCH  24  27
ENDBRANCH  19  21
ENDBRANCH   1  18
BRANCH   1  33
ATOM     33  C   UNL     1      34.745 -17.120 -24.874  0.00  0.00    +0.041 C 
BRANCH  33  34
ATOM     34  C   UNL     1      33.487 -17.985 -24.769  0.00  0.00    +0.112 C 
BRANCH  34  36
ATOM     35  O   UNL     1      31.258 -18.008 -25.753  0.00  0.00    -0.250 OA
ATOM     36  C   UNL     1      32.307 -17.420 -25.530  0.00  0.00    +0.314 C 
BRANCH  36  37
ATOM     37  O   UNL     1      32.537 -16.140 -25.924  0.00  0.00    -0.480 OA
ATOM     38  H   UNL     1      31.866 -15.493 -25.830  0.00  0.00    +0.295 HD
ENDBRANCH  36  37
ENDBRANCH  34  36
ENDBRANCH  33  34
ENDBRANCH   1  33
TORSDOF 11
ENDMDL
MODEL 7
REMARK VINA RESULT:     -10.2      1.630      2.547
REMARK  Name = 16048422
REMARK  11 active torsions:
REMARK  status: ('A' for Active; 'I' for Inactive)
REMARK    1  A    between atoms: C_1  and  C_4
REMARK    2  A    between atoms: C_1  and  N_18
REMARK    3  A    between atoms: C_1  and  C_33
REMARK    4  A    between atoms: N_3  and  C_6
REMARK    5  A    between atoms: C_6  and  C_9
REMARK    6  A    between atoms: C_9  and  C_11
REMARK    7  A    between atoms: C_19  and  C_21
REMARK    8  A    between atoms: C_24  and  C_27
REMARK    9  A    between atoms: C_33  and  C_34
REMARK   10  A    between atoms: C_34  and  C_36
REMARK   11  A    between atoms: C_36  and  O_37
REMARK                            x       y       z     vdW  Elec       q    Type
REMARK                         _______ _______ _______ _____ _____    ______ ____
ROOT
ATOM      1  C   UNL     1      35.290 -22.771 -16.939  0.00  0.00    +0.149 C 
ENDROOT
BRANCH   1   4
ATOM      2  O   UNL     1      32.927 -23.196 -17.237  0.00  0.00    -0.273 OA
ATOM      3  N   UNL     1      33.843 -23.436 -15.117  0.00  0.00    -0.306 N 
ATOM      4  C   UNL     1      33.892 -23.163 -16.475  0.00  0.00    +0.240 C 
ATOM      5  H   UNL     1      34.678 -23.380 -14.597  0.00  0.00    +0.149 HD
BRANCH   3   6
ATOM      6  C   UNL     1      32.627 -23.799 -14.426  0.00  0.00    +0.061 C 
ATOM      7  C   UNL     1      32.974 -24.687 -13.222  0.00  0.00    +0.020 C 
ATOM      8  C   UNL     1      31.970 -22.507 -13.909  0.00  0.00    +0.020 C 
BRANCH   6   9
ATOM      9  C   UNL     1      31.637 -24.500 -15.393  0.00  0.00    +0.044 C 
BRANCH   9  11
ATOM     10  F   UNL     1      26.388 -22.439 -15.479  0.00  0.00    -0.204 F 
ATOM     11  C   UNL     1      30.230 -23.948 -15.416  0.00  0.00    -0.020 C 
ATOM     12  C   UNL     1      29.899 -22.920 -16.299  0.00  0.00    -0.002 C 
ATOM     13  C   UNL     1      29.264 -24.465 -14.554  0.00  0.00    -0.002 C 
ATOM     14  C   UNL     1      28.600 -22.411 -16.321  0.00  0.00    +0.029 C 
ATOM     15  C   UNL     1      27.966 -23.956 -14.575  0.00  0.00    +0.029 C 
ATOM     16  C   UNL     1      27.634 -22.929 -15.459  0.00  0.00    +0.140 C 
ENDBRANCH   9  11
ENDBRANCH   6   9
ENDBRANCH   3   6
ENDBRANCH   1   4
BRANCH   1  18
ATOM     17  O   UNL     1      37.196 -22.050 -18.962  0.00  0.00    -0.270 OA
ATOM     18  N   UNL     1      35.092 -21.826 -18.010  0.00  0.00    -0.295 N 
ATOM     19  C   UNL     1      36.078 -21.542 -18.945  0.00  0.00    +0.246 C 
ATOM     20  H   UNL     1      34.226 -21.364 -18.081  0.00  0.00    +0.150 HD
BRANCH  19  21
ATOM     21  C   UNL     1      35.728 -20.524 -19.969  0.00  0.00    +0.053 C 
ATOM     22  C   UNL     1      34.425 -20.447 -20.459  0.00  0.00    +0.005 C 
ATOM     23  C   UNL     1      36.703 -19.645 -20.439  0.00  0.00    +0.005 C 
ATOM     24  C   UNL     1      35.072 -18.613 -21.892  0.00  0.00    +0.000 C 
ATOM     25  C   UNL     1      34.097 -19.492 -21.422  0.00  0.00    +0.000 C 
ATOM     26  C   UNL     1      36.376 -18.689 -21.401  0.00  0.00    +0.000 C 
BRANCH  24  27
ATOM     27  C   UNL     1      34.732 -17.621 -22.889  0.00  0.00    +0.000 C 
ATOM     28  C   UNL     1      34.166 -18.016 -24.101  0.00  0.00    +0.000 C 
ATOM     29  C   UNL     1      34.970 -16.269 -22.639  0.00  0.00    +0.000 C 
ATOM     30  C   UNL     1      33.837 -17.060 -25.062  0.00  0.00    +0.000 C 
ATOM     31  C   UNL     1      34.642 -15.314 -23.600  0.00  0.00    +0.000 C 
ATOM     32  C   UNL     1      34.075 -15.709 -24.812  0.00  0.00    +0.000 C 
ENDBRANCH  24  27
ENDBRANCH  19  21
ENDBRANCH   1  18
BRANCH   1  33
ATOM     33  C   UNL     1      36.110 -22.144 -15.806  0.00  0.00    +0.041 C 
BRANCH  33  34
ATOM     34  C   UNL     1      37.497 -22.761 -15.616  0.00  0.00    +0.112 C 
BRANCH  34  36
ATOM     35  O   UNL     1      36.527 -24.444 -14.146  0.00  0.00    -0.250 OA
ATOM     36  C   UNL     1      37.514 -23.900 -14.621  0.00  0.00    +0.314 C 
BRANCH  36  37
ATOM     37  O   UNL     1      38.784 -24.285 -14.327  0.00  0.00    -0.480 OA
ATOM     38  H   UNL     1      39.114 -25.100 -14.649  0.00  0.00    +0.295 HD
ENDBRANCH  36  37
ENDBRANCH  34  36
ENDBRANCH  33  34
ENDBRANCH   1  33
TORSDOF 11
ENDMDL
MODEL 8
REMARK VINA RESULT:     -10.1      6.209     12.042
REMARK  Name = 16048422
REMARK  11 active torsions:
REMARK  status: ('A' for Active; 'I' for Inactive)
REMARK    1  A    between atoms: C_1  and  C_4
REMARK    2  A    between atoms: C_1  and  N_18
REMARK    3  A    between atoms: C_1  and  C_33
REMARK    4  A    between atoms: N_3  and  C_6
REMARK    5  A    between atoms: C_6  and  C_9
REMARK    6  A    between atoms: C_9  and  C_11
REMARK    7  A    between atoms: C_19  and  C_21
REMARK    8  A    between atoms: C_24  and  C_27
REMARK    9  A    between atoms: C_33  and  C_34
REMARK   10  A    between atoms: C_34  and  C_36
REMARK   11  A    between atoms: C_36  and  O_37
REMARK                            x       y       z     vdW  Elec       q    Type
REMARK                         _______ _______ _______ _____ _____    ______ ____
ROOT
ATOM      1  C   UNL     1      35.037 -16.838 -22.733  0.00  0.00    +0.149 C 
ENDROOT
BRANCH   1   4
ATOM      2  O   UNL     1      34.507 -15.340 -20.910  0.00  0.00    -0.273 OA
ATOM      3  N   UNL     1      34.207 -14.593 -23.088  0.00  0.00    -0.306 N 
ATOM      4  C   UNL     1      34.572 -15.521 -22.124  0.00  0.00    +0.240 C 
ATOM      5  H   UNL     1      34.298 -14.842 -24.036  0.00  0.00    +0.149 HD
BRANCH   3   6
ATOM      6  C   UNL     1      33.700 -13.278 -22.768  0.00  0.00    +0.061 C 
ATOM      7  C   UNL     1      32.271 -13.407 -22.220  0.00  0.00    +0.020 C 
ATOM      8  C   UNL     1      34.594 -12.678 -21.669  0.00  0.00    +0.020 C 
BRANCH   6   9
ATOM      9  C   UNL     1      33.760 -12.352 -24.011  0.00  0.00    +0.044 C 
BRANCH   9  11
ATOM     10  F   UNL     1      34.271  -6.834 -22.955  0.00  0.00    -0.204 F 
ATOM     11  C   UNL     1      33.897 -10.872 -23.728  0.00  0.00    -0.020 C 
ATOM     12  C   UNL     1      32.870 -10.190 -23.075  0.00  0.00    -0.002 C 
ATOM     13  C   UNL     1      35.049 -10.192 -24.119  0.00  0.00    -0.002 C 
ATOM     14  C   UNL     1      32.997  -8.825 -22.813  0.00  0.00    +0.029 C 
ATOM     15  C   UNL     1      35.176  -8.828 -23.858  0.00  0.00    +0.029 C 
ATOM     16  C   UNL     1      34.149  -8.145 -23.205  0.00  0.00    +0.140 C 
ENDBRANCH   9  11
ENDBRANCH   6   9
ENDBRANCH   3   6
ENDBRANCH   1   4
BRANCH   1  18
ATOM     17  O   UNL     1      35.013 -19.692 -23.047  0.00  0.00    -0.270 OA
ATOM     18  N   UNL     1      34.908 -17.818 -21.683  0.00  0.00    -0.295 N 
ATOM     19  C   UNL     1      34.907 -19.183 -21.934  0.00  0.00    +0.246 C 
ATOM     20  H   UNL     1      34.817 -17.508 -20.754  0.00  0.00    +0.150 HD
BRANCH  19  21
ATOM     21  C   UNL     1      34.738 -20.061 -20.748  0.00  0.00    +0.053 C 
ATOM     22  C   UNL     1      33.458 -20.408 -20.314  0.00  0.00    +0.005 C 
ATOM     23  C   UNL     1      35.858 -20.539 -20.069  0.00  0.00    +0.005 C 
ATOM     24  C   UNL     1      34.420 -21.711 -18.521  0.00  0.00    +0.000 C 
ATOM     25  C   UNL     1      33.299 -21.233 -19.200  0.00  0.00    +0.000 C 
ATOM     26  C   UNL     1      35.700 -21.364 -18.955  0.00  0.00    +0.000 C 
BRANCH  24  27
ATOM     27  C   UNL     1      34.256 -22.566 -17.366  0.00  0.00    +0.000 C 
ATOM     28  C   UNL     1      35.343 -22.831 -16.533  0.00  0.00    +0.000 C 
ATOM     29  C   UNL     1      33.009 -23.125 -17.082  0.00  0.00    +0.000 C 
ATOM     30  C   UNL     1      35.185 -23.655 -15.419  0.00  0.00    +0.000 C 
ATOM     31  C   UNL     1      32.851 -23.949 -15.968  0.00  0.00    +0.000 C 
ATOM     32  C   UNL     1      33.939 -24.214 -15.136  0.00  0.00    +0.000 C 
ENDBRANCH  24  27
ENDBRANCH  19  21
ENDBRANCH   1  18
BRANCH   1  33
ATOM     33  C   UNL     1      34.192 -17.232 -23.950  0.00  0.00    +0.041 C 
BRANCH  33  34
ATOM     34  C   UNL     1      34.487 -16.419 -25.213  0.00  0.00    +0.112 C 
BRANCH  34  36
ATOM     35  O   UNL     1      33.170 -14.598 -26.153  0.00  0.00    -0.250 OA
ATOM     36  C   UNL     1      33.257 -15.768 -25.806  0.00  0.00    +0.314 C 
BRANCH  36  37
ATOM     37  O   UNL     1      32.239 -16.657 -25.940  0.00  0.00    -0.480 OA
ATOM     38  H   UNL     1      31.851 -17.045 -25.181  0.00  0.00    +0.295 HD
ENDBRANCH  36  37
ENDBRANCH  34  36
ENDBRANCH  33  34
ENDBRANCH   1  33
TORSDOF 11
ENDMDL
MODEL 9
REMARK VINA RESULT:      -9.7      3.280      5.162
REMARK  Name = 16048422
REMARK  11 active torsions:
REMARK  status: ('A' for Active; 'I' for Inactive)
REMARK    1  A    between atoms: C_1  and  C_4
REMARK    2  A    between atoms: C_1  and  N_18
REMARK    3  A    between atoms: C_1  and  C_33
REMARK    4  A    between atoms: N_3  and  C_6
REMARK    5  A    between atoms: C_6  and  C_9
REMARK    6  A    between atoms: C_9  and  C_11
REMARK    7  A    between atoms: C_19  and  C_21
REMARK    8  A    between atoms: C_24  and  C_27
REMARK    9  A    between atoms: C_33  and  C_34
REMARK   10  A    between atoms: C_34  and  C_36
REMARK   11  A    between atoms: C_36  and  O_37
REMARK                            x       y       z     vdW  Elec       q    Type
REMARK                         _______ _______ _______ _____ _____    ______ ____
ROOT
ATOM      1  C   UNL     1      35.020 -22.556 -17.449  0.00  0.00    +0.149 C 
ENDROOT
BRANCH   1   4
ATOM      2  O   UNL     1      32.625 -22.805 -17.684  0.00  0.00    -0.273 OA
ATOM      3  N   UNL     1      33.591 -23.226 -15.615  0.00  0.00    -0.306 N 
ATOM      4  C   UNL     1      33.615 -22.880 -16.957  0.00  0.00    +0.240 C 
ATOM      5  H   UNL     1      34.444 -23.255 -15.123  0.00  0.00    +0.149 HD
BRANCH   3   6
ATOM      6  C   UNL     1      32.376 -23.546 -14.901  0.00  0.00    +0.061 C 
ATOM      7  C   UNL     1      31.879 -22.294 -14.163  0.00  0.00    +0.020 C 
ATOM      8  C   UNL     1      31.313 -23.960 -15.933  0.00  0.00    +0.020 C 
BRANCH   6   9
ATOM      9  C   UNL     1      32.608 -24.733 -13.930  0.00  0.00    +0.044 C 
BRANCH   9  11
ATOM     10  F   UNL     1      37.869 -25.344 -11.991  0.00  0.00    -0.204 F 
ATOM     11  C   UNL     1      34.018 -24.897 -13.410  0.00  0.00    -0.020 C 
ATOM     12  C   UNL     1      34.972 -25.564 -14.179  0.00  0.00    -0.002 C 
ATOM     13  C   UNL     1      34.365 -24.381 -12.162  0.00  0.00    -0.002 C 
ATOM     14  C   UNL     1      36.273 -25.715 -13.700  0.00  0.00    +0.029 C 
ATOM     15  C   UNL     1      35.667 -24.531 -11.683  0.00  0.00    +0.029 C 
ATOM     16  C   UNL     1      36.620 -25.199 -12.452  0.00  0.00    +0.140 C 
ENDBRANCH   9  11
ENDBRANCH   6   9
ENDBRANCH   3   6
ENDBRANCH   1   4
BRANCH   1  18
ATOM     17  O   UNL     1      36.843 -21.953 -19.584  0.00  0.00    -0.270 OA
ATOM     18  N   UNL     1      34.853 -21.546 -18.464  0.00  0.00    -0.295 N 
ATOM     19  C   UNL     1      35.793 -21.328 -19.461  0.00  0.00    +0.246 C 
ATOM     20  H   UNL     1      34.041 -20.990 -18.450  0.00  0.00    +0.150 HD
BRANCH  19  21
ATOM     21  C   UNL     1      35.486 -20.231 -20.415  0.00  0.00    +0.053 C 
ATOM     22  C   UNL     1      34.219 -20.142 -20.991  0.00  0.00    +0.005 C 
ATOM     23  C   UNL     1      36.465 -19.291 -20.734  0.00  0.00    +0.005 C 
ATOM     24  C   UNL     1      34.911 -18.172 -22.207  0.00  0.00    +0.000 C 
ATOM     25  C   UNL     1      33.931 -19.112 -21.888  0.00  0.00    +0.000 C 
ATOM     26  C   UNL     1      36.178 -18.260 -21.630  0.00  0.00    +0.000 C 
BRANCH  24  27
ATOM     27  C   UNL     1      34.613 -17.104 -23.136  0.00  0.00    +0.000 C 
ATOM     28  C   UNL     1      34.186 -17.403 -24.430  0.00  0.00    +0.000 C 
ATOM     29  C   UNL     1      34.751 -15.774 -22.738  0.00  0.00    +0.000 C 
ATOM     30  C   UNL     1      33.897 -16.373 -25.325  0.00  0.00    +0.000 C 
ATOM     31  C   UNL     1      34.463 -14.744 -23.634  0.00  0.00    +0.000 C 
ATOM     32  C   UNL     1      34.036 -15.044 -24.927  0.00  0.00    +0.000 C 
ENDBRANCH  24  27
ENDBRANCH  19  21
ENDBRANCH   1  18
BRANCH   1  33
ATOM     33  C   UNL     1      35.915 -22.042 -16.315  0.00  0.00    +0.041 C 
BRANCH  33  34
ATOM     34  C   UNL     1      37.381 -22.468 -16.427  0.00  0.00    +0.112 C 
BRANCH  34  36
ATOM     35  O   UNL     1      37.582 -22.659 -14.006  0.00  0.00    -0.250 OA
ATOM     36  C   UNL     1      37.955 -22.984 -15.125  0.00  0.00    +0.314 C 
BRANCH  36  37
ATOM     37  O   UNL     1      38.938 -23.895 -15.343  0.00  0.00    -0.480 OA
ATOM     38  H   UNL     1      38.928 -24.420 -16.118  0.00  0.00    +0.295 HD
ENDBRANCH  36  37
ENDBRANCH  34  36
ENDBRANCH  33  34
ENDBRANCH   1  33
TORSDOF 11
ENDMDL
