MODEL 1
REMARK VINA RESULT:     -12.0      0.000      0.000
REMARK  Name = 44123754
REMARK  11 active torsions:
REMARK  status: ('A' for Active; 'I' for Inactive)
REMARK    1  A    between atoms: C_3  and  C_22
REMARK    2  A    between atoms: C_4  and  C_7
REMARK    3  A    between atoms: N_6  and  C_15
REMARK    4  A    between atoms: C_8  and  N_12
REMARK    5  A    between atoms: C_15  and  O_16
REMARK    6  A    between atoms: O_16  and  P_17
REMARK    7  A    between atoms: P_17  and  O_20
REMARK    8  A    between atoms: C_22  and  C_23
REMARK    9  A    between atoms: C_26  and  C_29
REMARK   10  A    between atoms: C_29  and  O_30
REMARK   11  A    between atoms: O_30  and  C_32
REMARK                            x       y       z     vdW  Elec       q    Type
REMARK                         _______ _______ _______ _____ _____    ______ ____
ROOT
ATOM      1  O   UNL     1      33.828 -23.343 -18.096  0.00  0.00    -0.354 OA
ATOM      2  N   UNL     1      34.661 -22.808 -19.072  0.00  0.00    -0.081 NA
ATOM      3  C   UNL     1      35.567 -22.094 -18.399  0.00  0.00    +0.105 C 
ATOM      4  C   UNL     1      34.253 -22.937 -16.872  0.00  0.00    +0.175 C 
ATOM      5  C   UNL     1      35.358 -22.140 -17.009  0.00  0.00    +0.058 C 
ENDROOT
BRANCH   4   7
ATOM      6  N   UNL     1      31.433 -23.666 -14.596  0.00  0.00    -0.266 N 
ATOM      7  C   UNL     1      33.480 -23.417 -15.750  0.00  0.00    +0.048 C 
ATOM      8  C   UNL     1      32.113 -23.202 -15.654  0.00  0.00    +0.156 C 
ATOM      9  C   UNL     1      34.122 -24.117 -14.734  0.00  0.00    +0.003 C 
ATOM     10  C   UNL     1      32.026 -24.343 -13.603  0.00  0.00    +0.064 C 
ATOM     11  C   UNL     1      33.391 -24.587 -13.646  0.00  0.00    +0.016 C 
BRANCH   8  12
ATOM     12  N   UNL     1      31.424 -22.497 -16.664  0.00  0.00    -0.303 NA
ATOM     13  H   UNL     1      31.294 -22.907 -17.550  0.00  0.00    +0.121 HD
ATOM     14  H   UNL     1      31.074 -21.595 -16.483  0.00  0.00    +0.121 HD
ENDBRANCH   8  12
BRANCH   6  15
ATOM     15  C   UNL     1      29.990 -23.439 -14.495  0.00  0.00    +0.251 C 
BRANCH  15  16
ATOM     16  O   UNL     1      29.343 -24.155 -15.538  0.00  0.00    -0.250 OA
BRANCH  16  17
ATOM     17  P   UNL     1      28.093 -23.461 -16.329  0.00  0.00    +0.504 P 
ATOM     18  O   UNL     1      27.453 -24.469 -17.259  0.00  0.00    -0.225 OA
ATOM     19  O   UNL     1      28.545 -22.115 -16.851  0.00  0.00    -0.116 OA
BRANCH  17  20
ATOM     20  O   UNL     1      27.087 -23.205 -15.068  0.00  0.00    -0.301 OA
ATOM     21  H   UNL     1      26.171 -23.173 -15.386  0.00  0.00    +0.222 HD
ENDBRANCH  17  20
ENDBRANCH  16  17
ENDBRANCH  15  16
ENDBRANCH   6  15
ENDBRANCH   4   7
BRANCH   3  22
ATOM     22  C   UNL     1      36.625 -21.375 -19.128  0.00  0.00    +0.075 C 
BRANCH  22  23
ATOM     23  C   UNL     1      36.118 -20.365 -20.149  0.00  0.00    -0.016 C 
ATOM     24  C   UNL     1      36.990 -19.416 -20.682  0.00  0.00    -0.004 C 
ATOM     25  C   UNL     1      34.782 -20.390 -20.551  0.00  0.00    -0.004 C 
ATOM     26  C   UNL     1      35.190 -18.515 -22.019  0.00  0.00    +0.021 C 
ATOM     27  C   UNL     1      36.526 -18.491 -21.617  0.00  0.00    -0.001 C 
ATOM     28  C   UNL     1      34.319 -19.464 -21.486  0.00  0.00    -0.001 C 
BRANCH  26  29
ATOM     29  C   UNL     1      34.695 -17.528 -23.021  0.00  0.00    +0.234 C 
BRANCH  29  30
ATOM     30  O   UNL     1      35.285 -16.259 -22.765  0.00  0.00    -0.455 OA
BRANCH  30  32
ATOM     31  N   UNL     1      33.808 -14.604 -23.446  0.00  0.00    -0.210 NA
ATOM     32  C   UNL     1      34.434 -15.239 -22.429  0.00  0.00    +0.225 C 
ATOM     33  C   UNL     1      34.262 -14.920 -21.092  0.00  0.00    +0.058 C 
ATOM     34  C   UNL     1      33.392 -13.882 -20.777  0.00  0.00    +0.006 C 
ATOM     35  C   UNL     1      32.969 -13.601 -23.101  0.00  0.00    +0.102 C 
ATOM     36  C   UNL     1      32.729 -13.205 -21.795  0.00  0.00    +0.021 C 
ENDBRANCH  30  32
ENDBRANCH  29  30
ENDBRANCH  26  29
ENDBRANCH  22  23
ENDBRANCH   3  22
TORSDOF 11
ENDMDL
MODEL 2
REMARK VINA RESULT:     -11.9      4.287      6.082
REMARK  Name = 44123754
REMARK  11 active torsions:
REMARK  status: ('A' for Active; 'I' for Inactive)
REMARK    1  A    between atoms: C_3  and  C_22
REMARK    2  A    between atoms: C_4  and  C_7
REMARK    3  A    between atoms: N_6  and  C_15
REMARK    4  A    between atoms: C_8  and  N_12
REMARK    5  A    between atoms: C_15  and  O_16
REMARK    6  A    between atoms: O_16  and  P_17
REMARK    7  A    between atoms: P_17  and  O_20
REMARK    8  A    between atoms: C_22  and  C_23
REMARK    9  A    between atoms: C_26  and  C_29
REMARK   10  A    between atoms: C_29  and  O_30
REMARK   11  A    between atoms: O_30  and  C_32
REMARK                            x       y       z     vdW  Elec       q    Type
REMARK                         _______ _______ _______ _____ _____    ______ ____
ROOT
ATOM      1  O   UNL     1      34.841 -24.728 -15.926  0.00  0.00    -0.354 OA
ATOM      2  N   UNL     1      34.147 -24.326 -17.061  0.00  0.00    -0.081 NA
ATOM      3  C   UNL     1      33.519 -23.202 -16.703  0.00  0.00    +0.105 C 
ATOM      4  C   UNL     1      34.612 -23.841 -14.923  0.00  0.00    +0.175 C 
ATOM      5  C   UNL     1      33.776 -22.851 -15.366  0.00  0.00    +0.058 C 
ENDROOT
BRANCH   4   7
ATOM      6  N   UNL     1      37.222 -24.535 -12.399  0.00  0.00    -0.266 N 
ATOM      7  C   UNL     1      35.272 -24.130 -13.671  0.00  0.00    +0.048 C 
ATOM      8  C   UNL     1      36.650 -24.268 -13.581  0.00  0.00    +0.156 C 
ATOM      9  C   UNL     1      34.508 -24.273 -12.518  0.00  0.00    +0.003 C 
ATOM     10  C   UNL     1      36.509 -24.678 -11.274  0.00  0.00    +0.064 C 
ATOM     11  C   UNL     1      35.128 -24.551 -11.304  0.00  0.00    +0.016 C 
BRANCH   8  12
ATOM     12  N   UNL     1      37.462 -24.130 -14.728  0.00  0.00    -0.303 NA
ATOM     13  H   UNL     1      37.173 -23.550 -15.469  0.00  0.00    +0.121 HD
ATOM     14  H   UNL     1      38.317 -24.614 -14.786  0.00  0.00    +0.121 HD
ENDBRANCH   8  12
BRANCH   6  15
ATOM     15  C   UNL     1      38.676 -24.681 -12.305  0.00  0.00    +0.251 C 
BRANCH  15  16
ATOM     16  O   UNL     1      39.051 -25.903 -12.926  0.00  0.00    -0.250 OA
BRANCH  16  17
ATOM     17  P   UNL     1      40.280 -25.908 -14.003  0.00  0.00    +0.504 P 
ATOM     18  O   UNL     1      41.213 -27.063 -13.709  0.00  0.00    -0.225 OA
ATOM     19  O   UNL     1      40.817 -24.499 -14.124  0.00  0.00    -0.116 OA
BRANCH  17  20
ATOM     20  O   UNL     1      39.442 -26.250 -15.363  0.00  0.00    -0.301 OA
ATOM     21  H   UNL     1      40.062 -26.456 -16.081  0.00  0.00    +0.222 HD
ENDBRANCH  17  20
ENDBRANCH  16  17
ENDBRANCH  15  16
ENDBRANCH   6  15
ENDBRANCH   4   7
BRANCH   3  22
ATOM     22  C   UNL     1      32.675 -22.490 -17.676  0.00  0.00    +0.075 C 
BRANCH  22  23
ATOM     23  C   UNL     1      33.446 -21.700 -18.726  0.00  0.00    -0.016 C 
ATOM     24  C   UNL     1      34.837 -21.779 -18.774  0.00  0.00    -0.004 C 
ATOM     25  C   UNL     1      32.760 -20.899 -19.639  0.00  0.00    -0.004 C 
ATOM     26  C   UNL     1      34.858 -20.254 -20.649  0.00  0.00    +0.021 C 
ATOM     27  C   UNL     1      35.544 -21.056 -19.735  0.00  0.00    -0.001 C 
ATOM     28  C   UNL     1      33.466 -20.176 -20.600  0.00  0.00    -0.001 C 
BRANCH  26  29
ATOM     29  C   UNL     1      35.613 -19.484 -21.678  0.00  0.00    +0.234 C 
BRANCH  29  30
ATOM     30  O   UNL     1      35.443 -18.091 -21.444  0.00  0.00    -0.455 OA
BRANCH  30  32
ATOM     31  N   UNL     1      34.969 -15.999 -22.328  0.00  0.00    -0.210 NA
ATOM     32  C   UNL     1      34.979 -17.341 -22.492  0.00  0.00    +0.225 C 
ATOM     33  C   UNL     1      34.556 -17.985 -23.644  0.00  0.00    +0.058 C 
ATOM     34  C   UNL     1      34.091 -17.201 -24.694  0.00  0.00    +0.006 C 
ATOM     35  C   UNL     1      34.511 -15.270 -23.371  0.00  0.00    +0.102 C 
ATOM     36  C   UNL     1      34.066 -15.817 -24.563  0.00  0.00    +0.021 C 
ENDBRANCH  30  32
ENDBRANCH  29  30
ENDBRANCH  26  29
ENDBRANCH  22  23
ENDBRANCH   3  22
TORSDOF 11
ENDMDL
MODEL 3
REMARK VINA RESULT:     -11.6      3.701     10.545
REMARK  Name = 44123754
REMARK  11 active torsions:
REMARK  status: ('A' for Active; 'I' for Inactive)
REMARK    1  A    between atoms: C_3  and  C_22
REMARK    2  A    between atoms: C_4  and  C_7
REMARK    3  A    between atoms: N_6  and  C_15
REMARK    4  A    between atoms: C_8  and  N_12
REMARK    5  A    between atoms: C_15  and  O_16
REMARK    6  A    between atoms: O_16  and  P_17
REMARK    7  A    between atoms: P_17  and  O_20
REMARK    8  A    between atoms: C_22  and  C_23
REMARK    9  A    between atoms: C_26  and  C_29
REMARK   10  A    between atoms: C_29  and  O_30
REMARK   11  A    between atoms: O_30  and  C_32
REMARK                            x       y       z     vdW  Elec       q    Type
REMARK                         _______ _______ _______ _____ _____    ______ ____
ROOT
ATOM      1  O   UNL     1      34.939 -16.399 -21.195  0.00  0.00    -0.354 OA
ATOM      2  N   UNL     1      35.474 -17.519 -20.571  0.00  0.00    -0.081 NA
ATOM      3  C   UNL     1      35.689 -18.394 -21.557  0.00  0.00    +0.105 C 
ATOM      4  C   UNL     1      34.848 -16.630 -22.530  0.00  0.00    +0.175 C 
ATOM      5  C   UNL     1      35.313 -17.886 -22.813  0.00  0.00    +0.058 C 
ENDROOT
BRANCH   4   7
ATOM      6  N   UNL     1      33.492 -13.337 -23.524  0.00  0.00    -0.266 N 
ATOM      7  C   UNL     1      34.306 -15.546 -23.317  0.00  0.00    +0.048 C 
ATOM      8  C   UNL     1      33.992 -14.316 -22.757  0.00  0.00    +0.156 C 
ATOM      9  C   UNL     1      34.091 -15.737 -24.678  0.00  0.00    +0.003 C 
ATOM     10  C   UNL     1      33.275 -13.495 -24.836  0.00  0.00    +0.064 C 
ATOM     11  C   UNL     1      33.569 -14.703 -25.450  0.00  0.00    +0.016 C 
BRANCH   8  12
ATOM     12  N   UNL     1      34.195 -14.081 -21.380  0.00  0.00    -0.303 NA
ATOM     13  H   UNL     1      35.001 -14.431 -20.934  0.00  0.00    +0.121 HD
ATOM     14  H   UNL     1      33.532 -13.567 -20.866  0.00  0.00    +0.121 HD
ENDBRANCH   8  12
BRANCH   6  15
ATOM     15  C   UNL     1      33.161 -12.039 -22.931  0.00  0.00    +0.251 C 
BRANCH  15  16
ATOM     16  O   UNL     1      32.209 -12.241 -21.896  0.00  0.00    -0.250 OA
BRANCH  16  17
ATOM     17  P   UNL     1      31.611 -10.948 -21.096  0.00  0.00    +0.504 P 
ATOM     18  O   UNL     1      31.984  -9.677 -21.828  0.00  0.00    -0.225 OA
ATOM     19  O   UNL     1      31.926 -11.107 -19.625  0.00  0.00    -0.116 OA
BRANCH  17  20
ATOM     20  O   UNL     1      30.014 -11.219 -21.305  0.00  0.00    -0.301 OA
ATOM     21  H   UNL     1      29.706 -11.862 -20.648  0.00  0.00    +0.222 HD
ENDBRANCH  17  20
ENDBRANCH  16  17
ENDBRANCH  15  16
ENDBRANCH   6  15
ENDBRANCH   4   7
BRANCH   3  22
ATOM     22  C   UNL     1      36.260 -19.717 -21.255  0.00  0.00    +0.075 C 
BRANCH  22  23
ATOM     23  C   UNL     1      35.438 -20.556 -20.285  0.00  0.00    -0.016 C 
ATOM     24  C   UNL     1      34.045 -20.525 -20.345  0.00  0.00    -0.004 C 
ATOM     25  C   UNL     1      36.078 -21.356 -19.338  0.00  0.00    -0.004 C 
ATOM     26  C   UNL     1      33.932 -22.093 -18.511  0.00  0.00    +0.021 C 
ATOM     27  C   UNL     1      33.291 -21.293 -19.457  0.00  0.00    -0.001 C 
ATOM     28  C   UNL     1      35.325 -22.124 -18.451  0.00  0.00    -0.001 C 
BRANCH  26  29
ATOM     29  C   UNL     1      33.126 -22.917 -17.564  0.00  0.00    +0.234 C 
BRANCH  29  30
ATOM     30  O   UNL     1      31.802 -22.400 -17.496  0.00  0.00    -0.455 OA
BRANCH  30  32
ATOM     31  N   UNL     1      29.709 -22.647 -16.527  0.00  0.00    -0.210 NA
ATOM     32  C   UNL     1      31.051 -22.767 -16.411  0.00  0.00    +0.225 C 
ATOM     33  C   UNL     1      31.693 -23.235 -15.277  0.00  0.00    +0.058 C 
ATOM     34  C   UNL     1      30.908 -23.604 -14.189  0.00  0.00    +0.006 C 
ATOM     35  C   UNL     1      28.979 -23.016 -15.450  0.00  0.00    +0.102 C 
ATOM     36  C   UNL     1      29.524 -23.495 -14.270  0.00  0.00    +0.021 C 
ENDBRANCH  30  32
ENDBRANCH  29  30
ENDBRANCH  26  29
ENDBRANCH  22  23
ENDBRANCH   3  22
TORSDOF 11
ENDMDL
MODEL 4
REMARK VINA RESULT:     -11.4      4.855     11.459
REMARK  Name = 44123754
REMARK  11 active torsions:
REMARK  status: ('A' for Active; 'I' for Inactive)
REMARK    1  A    between atoms: C_3  and  C_22
REMARK    2  A    between atoms: C_4  and  C_7
REMARK    3  A    between atoms: N_6  and  C_15
REMARK    4  A    between atoms: C_8  and  N_12
REMARK    5  A    between atoms: C_15  and  O_16
REMARK    6  A    between atoms: O_16  and  P_17
REMARK    7  A    between atoms: P_17  and  O_20
REMARK    8  A    between atoms: C_22  and  C_23
REMARK    9  A    between atoms: C_26  and  C_29
REMARK   10  A    between atoms: C_29  and  O_30
REMARK   11  A    between atoms: O_30  and  C_32
REMARK                            x       y       z     vdW  Elec       q    Type
REMARK                         _______ _______ _______ _____ _____    ______ ____
ROOT
ATOM      1  O   UNL     1      33.098 -14.527 -23.807  0.00  0.00    -0.354 OA
ATOM      2  N   UNL     1      33.827 -15.605 -24.295  0.00  0.00    -0.081 NA
ATOM      3  C   UNL     1      34.676 -15.921 -23.312  0.00  0.00    +0.105 C 
ATOM      4  C   UNL     1      33.526 -14.226 -22.554  0.00  0.00    +0.175 C 
ATOM      5  C   UNL     1      34.529 -15.085 -22.191  0.00  0.00    +0.058 C 
ENDROOT
BRANCH   4   7
ATOM      6  N   UNL     1      32.245 -10.838 -21.815  0.00  0.00    -0.266 N 
ATOM      7  C   UNL     1      32.855 -13.119 -21.913  0.00  0.00    +0.048 C 
ATOM      8  C   UNL     1      32.882 -11.837 -22.442  0.00  0.00    +0.156 C 
ATOM      9  C   UNL     1      32.160 -13.341 -20.728  0.00  0.00    +0.003 C 
ATOM     10  C   UNL     1      31.569 -11.024 -20.673  0.00  0.00    +0.064 C 
ATOM     11  C   UNL     1      31.508 -12.284 -20.098  0.00  0.00    +0.016 C 
BRANCH   8  12
ATOM     12  N   UNL     1      33.576 -11.570 -23.642  0.00  0.00    -0.303 NA
ATOM     13  H   UNL     1      34.365 -10.980 -23.634  0.00  0.00    +0.121 HD
ATOM     14  H   UNL     1      33.271 -11.973 -24.486  0.00  0.00    +0.121 HD
ENDBRANCH   8  12
BRANCH   6  15
ATOM     15  C   UNL     1      32.274  -9.485 -22.375  0.00  0.00    +0.251 C 
BRANCH  15  16
ATOM     16  O   UNL     1      31.719  -8.588 -21.423  0.00  0.00    -0.250 OA
BRANCH  16  17
ATOM     17  P   UNL     1      32.594  -7.295 -20.938  0.00  0.00    +0.504 P 
ATOM     18  O   UNL     1      31.682  -6.103 -20.747  0.00  0.00    -0.225 OA
ATOM     19  O   UNL     1      33.821  -7.189 -21.818  0.00  0.00    -0.116 OA
BRANCH  17  20
ATOM     20  O   UNL     1      33.068  -7.828 -19.469  0.00  0.00    -0.301 OA
ATOM     21  H   UNL     1      33.064  -8.798 -19.459  0.00  0.00    +0.222 HD
ENDBRANCH  17  20
ENDBRANCH  16  17
ENDBRANCH  15  16
ENDBRANCH   6  15
ENDBRANCH   4   7
BRANCH   3  22
ATOM     22  C   UNL     1      35.618 -17.038 -23.487  0.00  0.00    +0.075 C 
BRANCH  22  23
ATOM     23  C   UNL     1      35.496 -18.140 -22.442  0.00  0.00    -0.016 C 
ATOM     24  C   UNL     1      34.302 -18.850 -22.315  0.00  0.00    -0.004 C 
ATOM     25  C   UNL     1      36.577 -18.439 -21.614  0.00  0.00    -0.004 C 
ATOM     26  C   UNL     1      35.271 -20.159 -20.530  0.00  0.00    +0.021 C 
ATOM     27  C   UNL     1      34.189 -19.859 -21.359  0.00  0.00    -0.001 C 
ATOM     28  C   UNL     1      36.465 -19.448 -20.658  0.00  0.00    -0.001 C 
BRANCH  26  29
ATOM     29  C   UNL     1      35.152 -21.239 -19.510  0.00  0.00    +0.234 C 
BRANCH  29  30
ATOM     30  O   UNL     1      36.323 -21.259 -18.703  0.00  0.00    -0.455 OA
BRANCH  30  32
ATOM     31  N   UNL     1      35.071 -22.536 -17.225  0.00  0.00    -0.210 NA
ATOM     32  C   UNL     1      36.222 -21.875 -17.483  0.00  0.00    +0.225 C 
ATOM     33  C   UNL     1      37.285 -21.792 -16.599  0.00  0.00    +0.058 C 
ATOM     34  C   UNL     1      37.159 -22.427 -15.368  0.00  0.00    +0.006 C 
ATOM     35  C   UNL     1      34.985 -23.142 -16.019  0.00  0.00    +0.102 C 
ATOM     36  C   UNL     1      35.990 -23.117 -15.065  0.00  0.00    +0.021 C 
ENDBRANCH  30  32
ENDBRANCH  29  30
ENDBRANCH  26  29
ENDBRANCH  22  23
ENDBRANCH   3  22
TORSDOF 11
ENDMDL
MODEL 5
REMARK VINA RESULT:     -11.3      3.420      4.291
REMARK  Name = 44123754
REMARK  11 active torsions:
REMARK  status: ('A' for Active; 'I' for Inactive)
REMARK    1  A    between atoms: C_3  and  C_22
REMARK    2  A    between atoms: C_4  and  C_7
REMARK    3  A    between atoms: N_6  and  C_15
REMARK    4  A    between atoms: C_8  and  N_12
REMARK    5  A    between atoms: C_15  and  O_16
REMARK    6  A    between atoms: O_16  and  P_17
REMARK    7  A    between atoms: P_17  and  O_20
REMARK    8  A    between atoms: C_22  and  C_23
REMARK    9  A    between atoms: C_26  and  C_29
REMARK   10  A    between atoms: C_29  and  O_30
REMARK   11  A    between atoms: O_30  and  C_32
REMARK                            x       y       z     vdW  Elec       q    Type
REMARK                         _______ _______ _______ _____ _____    ______ ____
ROOT
ATOM      1  O   UNL     1      33.932 -23.262 -18.055  0.00  0.00    -0.354 OA
ATOM      2  N   UNL     1      34.752 -22.761 -19.060  0.00  0.00    -0.081 NA
ATOM      3  C   UNL     1      35.667 -22.024 -18.425  0.00  0.00    +0.105 C 
ATOM      4  C   UNL     1      34.374 -22.814 -16.852  0.00  0.00    +0.175 C 
ATOM      5  C   UNL     1      35.477 -22.022 -17.032  0.00  0.00    +0.058 C 
ENDROOT
BRANCH   4   7
ATOM      6  N   UNL     1      33.483 -24.227 -13.555  0.00  0.00    -0.266 N 
ATOM      7  C   UNL     1      33.616 -23.255 -15.704  0.00  0.00    +0.048 C 
ATOM      8  C   UNL     1      34.224 -23.833 -14.599  0.00  0.00    +0.156 C 
ATOM      9  C   UNL     1      32.234 -23.097 -15.702  0.00  0.00    +0.003 C 
ATOM     10  C   UNL     1      32.151 -24.087 -13.527  0.00  0.00    +0.064 C 
ATOM     11  C   UNL     1      31.489 -23.517 -14.604  0.00  0.00    +0.016 C 
BRANCH   8  12
ATOM     12  N   UNL     1      35.624 -24.011 -14.561  0.00  0.00    -0.303 NA
ATOM     13  H   UNL     1      36.188 -23.638 -15.277  0.00  0.00    +0.121 HD
ATOM     14  H   UNL     1      36.036 -24.509 -13.819  0.00  0.00    +0.121 HD
ENDBRANCH   8  12
BRANCH   6  15
ATOM     15  C   UNL     1      34.126 -24.837 -12.388  0.00  0.00    +0.251 C 
BRANCH  15  16
ATOM     16  O   UNL     1      34.824 -23.826 -11.674  0.00  0.00    -0.250 OA
BRANCH  16  17
ATOM     17  P   UNL     1      36.058 -24.250 -10.690  0.00  0.00    +0.504 P 
ATOM     18  O   UNL     1      36.993 -23.075 -10.506  0.00  0.00    -0.225 OA
ATOM     19  O   UNL     1      36.592 -25.592 -11.141  0.00  0.00    -0.116 OA
BRANCH  17  20
ATOM     20  O   UNL     1      35.227 -24.476  -9.301  0.00  0.00    -0.301 OA
ATOM     21  H   UNL     1      35.850 -24.580  -8.565  0.00  0.00    +0.222 HD
ENDBRANCH  17  20
ENDBRANCH  16  17
ENDBRANCH  15  16
ENDBRANCH   6  15
ENDBRANCH   4   7
BRANCH   3  22
ATOM     22  C   UNL     1      36.714 -21.332 -19.193  0.00  0.00    +0.075 C 
BRANCH  22  23
ATOM     23  C   UNL     1      36.194 -20.320 -20.206  0.00  0.00    -0.016 C 
ATOM     24  C   UNL     1      37.077 -19.435 -20.824  0.00  0.00    -0.004 C 
ATOM     25  C   UNL     1      34.835 -20.280 -20.517  0.00  0.00    -0.004 C 
ATOM     26  C   UNL     1      35.242 -18.469 -22.063  0.00  0.00    +0.021 C 
ATOM     27  C   UNL     1      36.602 -18.509 -21.752  0.00  0.00    -0.001 C 
ATOM     28  C   UNL     1      34.359 -19.354 -21.445  0.00  0.00    -0.001 C 
BRANCH  26  29
ATOM     29  C   UNL     1      34.734 -17.480 -23.057  0.00  0.00    +0.234 C 
BRANCH  29  30
ATOM     30  O   UNL     1      34.701 -16.188 -22.464  0.00  0.00    -0.455 OA
BRANCH  30  32
ATOM     31  N   UNL     1      34.388 -13.907 -22.753  0.00  0.00    -0.210 NA
ATOM     32  C   UNL     1      34.266 -15.157 -23.255  0.00  0.00    +0.225 C 
ATOM     33  C   UNL     1      33.738 -15.444 -24.503  0.00  0.00    +0.058 C 
ATOM     34  C   UNL     1      33.305 -14.380 -25.287  0.00  0.00    +0.006 C 
ATOM     35  C   UNL     1      33.957 -12.898 -23.544  0.00  0.00    +0.102 C 
ATOM     36  C   UNL     1      33.414 -13.080 -24.806  0.00  0.00    +0.021 C 
ENDBRANCH  30  32
ENDBRANCH  29  30
ENDBRANCH  26  29
ENDBRANCH  22  23
ENDBRANCH   3  22
TORSDOF 11
ENDMDL
MODEL 6
REMARK VINA RESULT:     -11.1      3.745      5.283
REMARK  Name = 44123754
REMARK  11 active torsions:
REMARK  status: ('A' for Active; 'I' for Inactive)
REMARK    1  A    between atoms: C_3  and  C_22
REMARK    2  A    between atoms: C_4  and  C_7
REMARK    3  A    between atoms: N_6  and  C_15
REMARK    4  A    between atoms: C_8  and  N_12
REMARK    5  A    between atoms: C_15  and  O_16
REMARK    6  A    between atoms: O_16  and  P_17
REMARK    7  A    between atoms: P_17  and  O_20
REMARK    8  A    between atoms: C_22  and  C_23
REMARK    9  A    between atoms: C_26  and  C_29
REMARK   10  A    between atoms: C_29  and  O_30
REMARK   11  A    between atoms: O_30  and  C_32
REMARK                            x       y       z     vdW  Elec       q    Type
REMARK                         _______ _______ _______ _____ _____    ______ ____
ROOT
ATOM      1  O   UNL     1      36.322 -20.150 -19.579  0.00  0.00    -0.354 OA
ATOM      2  N   UNL     1      36.656 -19.370 -20.680  0.00  0.00    -0.081 NA
ATOM      3  C   UNL     1      35.628 -19.502 -21.522  0.00  0.00    +0.105 C 
ATOM      4  C   UNL     1      35.110 -20.725 -19.788  0.00  0.00    +0.175 C 
ATOM      5  C   UNL     1      34.624 -20.345 -21.011  0.00  0.00    +0.058 C 
ENDROOT
BRANCH   4   7
ATOM      6  N   UNL     1      34.969 -22.811 -16.740  0.00  0.00    -0.266 N 
ATOM      7  C   UNL     1      34.626 -21.570 -18.721  0.00  0.00    +0.048 C 
ATOM      8  C   UNL     1      35.460 -22.029 -17.711  0.00  0.00    +0.156 C 
ATOM      9  C   UNL     1      33.285 -21.937 -18.702  0.00  0.00    +0.003 C 
ATOM     10  C   UNL     1      33.682 -23.180 -16.697  0.00  0.00    +0.064 C 
ATOM     11  C   UNL     1      32.803 -22.751 -17.680  0.00  0.00    +0.016 C 
BRANCH   8  12
ATOM     12  N   UNL     1      36.827 -21.679 -17.694  0.00  0.00    -0.303 NA
ATOM     13  H   UNL     1      37.099 -20.748 -17.862  0.00  0.00    +0.121 HD
ATOM     14  H   UNL     1      37.508 -22.367 -17.515  0.00  0.00    +0.121 HD
ENDBRANCH   8  12
BRANCH   6  15
ATOM     15  C   UNL     1      35.850 -23.295 -15.674  0.00  0.00    +0.251 C 
BRANCH  15  16
ATOM     16  O   UNL     1      35.386 -24.567 -15.244  0.00  0.00    -0.250 OA
BRANCH  16  17
ATOM     17  P   UNL     1      36.445 -25.623 -14.586  0.00  0.00    +0.504 P 
ATOM     18  O   UNL     1      37.805 -24.973 -14.459  0.00  0.00    -0.225 OA
ATOM     19  O   UNL     1      36.294 -26.954 -15.289  0.00  0.00    -0.116 OA
BRANCH  17  20
ATOM     20  O   UNL     1      35.793 -25.761 -13.094  0.00  0.00    -0.301 OA
ATOM     21  H   UNL     1      36.482 -25.619 -12.426  0.00  0.00    +0.222 HD
ENDBRANCH  17  20
ENDBRANCH  16  17
ENDBRANCH  15  16
ENDBRANCH   6  15
ENDBRANCH   4   7
BRANCH   3  22
ATOM     22  C   UNL     1      35.642 -18.801 -22.816  0.00  0.00    +0.075 C 
BRANCH  22  23
ATOM     23  C   UNL     1      35.124 -17.369 -22.767  0.00  0.00    -0.016 C 
ATOM     24  C   UNL     1      34.737 -16.727 -23.943  0.00  0.00    -0.004 C 
ATOM     25  C   UNL     1      35.036 -16.700 -21.546  0.00  0.00    -0.004 C 
ATOM     26  C   UNL     1      34.174 -14.748 -22.678  0.00  0.00    +0.021 C 
ATOM     27  C   UNL     1      34.262 -15.417 -23.899  0.00  0.00    -0.001 C 
ATOM     28  C   UNL     1      34.561 -15.389 -21.502  0.00  0.00    -0.001 C 
BRANCH  26  29
ATOM     29  C   UNL     1      33.664 -13.348 -22.631  0.00  0.00    +0.234 C 
BRANCH  29  30
ATOM     30  O   UNL     1      32.472 -13.305 -21.856  0.00  0.00    -0.455 OA
BRANCH  30  32
ATOM     31  N   UNL     1      32.174 -11.014 -22.079  0.00  0.00    -0.210 NA
ATOM     32  C   UNL     1      32.155 -12.103 -21.278  0.00  0.00    +0.225 C 
ATOM     33  C   UNL     1      31.835 -12.070 -19.930  0.00  0.00    +0.058 C 
ATOM     34  C   UNL     1      31.514 -10.839 -19.368  0.00  0.00    +0.006 C 
ATOM     35  C   UNL     1      31.856  -9.836 -21.497  0.00  0.00    +0.102 C 
ATOM     36  C   UNL     1      31.522  -9.696 -20.160  0.00  0.00    +0.021 C 
ENDBRANCH  30  32
ENDBRANCH  29  30
ENDBRANCH  26  29
ENDBRANCH  22  23
ENDBRANCH   3  22
TORSDOF 11
ENDMDL
MODEL 7
REMARK VINA RESULT:     -11.1      3.975      5.765
REMARK  Name = 44123754
REMARK  11 active torsions:
REMARK  status: ('A' for Active; 'I' for Inactive)
REMARK    1  A    between atoms: C_3  and  C_22
REMARK    2  A    between atoms: C_4  and  C_7
REMARK    3  A    between atoms: N_6  and  C_15
REMARK    4  A    between atoms: C_8  and  N_12
REMARK    5  A    between atoms: C_15  and  O_16
REMARK    6  A    between atoms: O_16  and  P_17
REMARK    7  A    between atoms: P_17  and  O_20
REMARK    8  A    between atoms: C_22  and  C_23
REMARK    9  A    between atoms: C_26  and  C_29
REMARK   10  A    between atoms: C_29  and  O_30
REMARK   11  A    between atoms: O_30  and  C_32
REMARK                            x       y       z     vdW  Elec       q    Type
REMARK                         _______ _______ _______ _____ _____    ______ ____
ROOT
ATOM      1  O   UNL     1      36.452 -19.877 -19.999  0.00  0.00    -0.354 OA
ATOM      2  N   UNL     1      36.699 -19.051 -21.089  0.00  0.00    -0.081 NA
ATOM      3  C   UNL     1      35.601 -19.137 -21.844  0.00  0.00    +0.105 C 
ATOM      4  C   UNL     1      35.220 -20.433 -20.128  0.00  0.00    +0.175 C 
ATOM      5  C   UNL     1      34.635 -19.994 -21.286  0.00  0.00    +0.058 C 
ENDROOT
BRANCH   4   7
ATOM      6  N   UNL     1      35.257 -22.468 -17.042  0.00  0.00    -0.266 N 
ATOM      7  C   UNL     1      34.820 -21.321 -19.062  0.00  0.00    +0.048 C 
ATOM      8  C   UNL     1      35.669 -21.639 -18.012  0.00  0.00    +0.156 C 
ATOM      9  C   UNL     1      33.545 -21.878 -19.085  0.00  0.00    +0.003 C 
ATOM     10  C   UNL     1      34.036 -23.018 -17.040  0.00  0.00    +0.064 C 
ATOM     11  C   UNL     1      33.144 -22.737 -18.065  0.00  0.00    +0.016 C 
BRANCH   8  12
ATOM     12  N   UNL     1      36.970 -21.095 -17.950  0.00  0.00    -0.303 NA
ATOM     13  H   UNL     1      37.094 -20.134 -17.776  0.00  0.00    +0.121 HD
ATOM     14  H   UNL     1      37.753 -21.677 -18.083  0.00  0.00    +0.121 HD
ENDBRANCH   8  12
BRANCH   6  15
ATOM     15  C   UNL     1      36.154 -22.802 -15.934  0.00  0.00    +0.251 C 
BRANCH  15  16
ATOM     16  O   UNL     1      35.938 -24.158 -15.568  0.00  0.00    -0.250 OA
BRANCH  16  17
ATOM     17  P   UNL     1      36.948 -24.867 -14.497  0.00  0.00    +0.504 P 
ATOM     18  O   UNL     1      36.194 -25.206 -13.229  0.00  0.00    -0.225 OA
ATOM     19  O   UNL     1      38.226 -24.060 -14.436  0.00  0.00    -0.116 OA
BRANCH  17  20
ATOM     20  O   UNL     1      37.261 -26.254 -15.301  0.00  0.00    -0.301 OA
ATOM     21  H   UNL     1      37.211 -27.003 -14.687  0.00  0.00    +0.222 HD
ENDBRANCH  17  20
ENDBRANCH  16  17
ENDBRANCH  15  16
ENDBRANCH   6  15
ENDBRANCH   4   7
BRANCH   3  22
ATOM     22  C   UNL     1      35.513 -18.378 -23.102  0.00  0.00    +0.075 C 
BRANCH  22  23
ATOM     23  C   UNL     1      34.949 -16.970 -22.955  0.00  0.00    -0.016 C 
ATOM     24  C   UNL     1      34.904 -16.364 -21.699  0.00  0.00    -0.004 C 
ATOM     25  C   UNL     1      34.478 -16.286 -24.077  0.00  0.00    -0.004 C 
ATOM     26  C   UNL     1      33.918 -14.392 -22.686  0.00  0.00    +0.021 C 
ATOM     27  C   UNL     1      34.389 -15.076 -21.564  0.00  0.00    -0.001 C 
ATOM     28  C   UNL     1      33.963 -14.997 -23.942  0.00  0.00    -0.001 C 
BRANCH  26  29
ATOM     29  C   UNL     1      33.369 -13.013 -22.542  0.00  0.00    +0.234 C 
BRANCH  29  30
ATOM     30  O   UNL     1      33.637 -12.272 -23.726  0.00  0.00    -0.455 OA
BRANCH  30  32
ATOM     31  N   UNL     1      32.867 -10.244 -22.901  0.00  0.00    -0.210 NA
ATOM     32  C   UNL     1      33.819 -10.921 -23.581  0.00  0.00    +0.225 C 
ATOM     33  C   UNL     1      34.950 -10.334 -24.126  0.00  0.00    +0.058 C 
ATOM     34  C   UNL     1      35.113  -8.962 -23.964  0.00  0.00    +0.006 C 
ATOM     35  C   UNL     1      33.060  -8.913 -22.763  0.00  0.00    +0.102 C 
ATOM     36  C   UNL     1      34.154  -8.231 -23.270  0.00  0.00    +0.021 C 
ENDBRANCH  30  32
ENDBRANCH  29  30
ENDBRANCH  26  29
ENDBRANCH  22  23
ENDBRANCH   3  22
TORSDOF 11
ENDMDL
MODEL 8
REMARK VINA RESULT:     -10.9      4.504     11.440
REMARK  Name = 44123754
REMARK  11 active torsions:
REMARK  status: ('A' for Active; 'I' for Inactive)
REMARK    1  A    between atoms: C_3  and  C_22
REMARK    2  A    between atoms: C_4  and  C_7
REMARK    3  A    between atoms: N_6  and  C_15
REMARK    4  A    between atoms: C_8  and  N_12
REMARK    5  A    between atoms: C_15  and  O_16
REMARK    6  A    between atoms: O_16  and  P_17
REMARK    7  A    between atoms: P_17  and  O_20
REMARK    8  A    between atoms: C_22  and  C_23
REMARK    9  A    between atoms: C_26  and  C_29
REMARK   10  A    between atoms: C_29  and  O_30
REMARK   11  A    between atoms: O_30  and  C_32
REMARK                            x       y       z     vdW  Elec       q    Type
REMARK                         _______ _______ _______ _____ _____    ______ ____
ROOT
ATOM      1  O   UNL     1      34.132 -15.633 -23.395  0.00  0.00    -0.354 OA
ATOM      2  N   UNL     1      34.863 -16.808 -23.526  0.00  0.00    -0.081 NA
ATOM      3  C   UNL     1      35.329 -17.063 -22.300  0.00  0.00    +0.105 C 
ATOM      4  C   UNL     1      34.179 -15.217 -22.104  0.00  0.00    +0.175 C 
ATOM      5  C   UNL     1      34.929 -16.093 -21.365  0.00  0.00    +0.058 C 
ENDROOT
BRANCH   4   7
ATOM      6  N   UNL     1      32.867 -11.767 -22.317  0.00  0.00    -0.266 N 
ATOM      7  C   UNL     1      33.460 -13.999 -21.812  0.00  0.00    +0.048 C 
ATOM      8  C   UNL     1      33.553 -12.877 -22.624  0.00  0.00    +0.156 C 
ATOM      9  C   UNL     1      32.647 -13.944 -20.685  0.00  0.00    +0.003 C 
ATOM     10  C   UNL     1      32.078 -11.688 -21.237  0.00  0.00    +0.064 C 
ATOM     11  C   UNL     1      31.947 -12.778 -20.390  0.00  0.00    +0.016 C 
BRANCH   8  12
ATOM     12  N   UNL     1      34.367 -12.891 -23.777  0.00  0.00    -0.303 NA
ATOM     13  H   UNL     1      35.174 -12.328 -23.818  0.00  0.00    +0.121 HD
ATOM     14  H   UNL     1      34.127 -13.464 -24.541  0.00  0.00    +0.121 HD
ENDBRANCH   8  12
BRANCH   6  15
ATOM     15  C   UNL     1      32.966 -10.584 -23.174  0.00  0.00    +0.251 C 
BRANCH  15  16
ATOM     16  O   UNL     1      32.493  -9.457 -22.450  0.00  0.00    -0.250 OA
BRANCH  16  17
ATOM     17  P   UNL     1      33.277  -8.030 -22.589  0.00  0.00    +0.504 P 
ATOM     18  O   UNL     1      34.553  -8.222 -23.380  0.00  0.00    -0.225 OA
ATOM     19  O   UNL     1      33.311  -7.367 -21.229  0.00  0.00    -0.116 OA
BRANCH  17  20
ATOM     20  O   UNL     1      32.204  -7.224 -23.520  0.00  0.00    -0.301 OA
ATOM     21  H   UNL     1      31.560  -7.850 -23.887  0.00  0.00    +0.222 HD
ENDBRANCH  17  20
ENDBRANCH  16  17
ENDBRANCH  15  16
ENDBRANCH   6  15
ENDBRANCH   4   7
BRANCH   3  22
ATOM     22  C   UNL     1      36.161 -18.254 -22.064  0.00  0.00    +0.075 C 
BRANCH  22  23
ATOM     23  C   UNL     1      35.521 -19.306 -21.166  0.00  0.00    -0.016 C 
ATOM     24  C   UNL     1      34.136 -19.464 -21.155  0.00  0.00    -0.004 C 
ATOM     25  C   UNL     1      36.322 -20.111 -20.355  0.00  0.00    -0.004 C 
ATOM     26  C   UNL     1      34.351 -21.231 -19.522  0.00  0.00    +0.021 C 
ATOM     27  C   UNL     1      33.550 -20.426 -20.333  0.00  0.00    -0.001 C 
ATOM     28  C   UNL     1      35.736 -21.073 -19.533  0.00  0.00    -0.001 C 
BRANCH  26  29
ATOM     29  C   UNL     1      33.725 -22.262 -18.645  0.00  0.00    +0.234 C 
BRANCH  29  30
ATOM     30  O   UNL     1      34.649 -22.647 -17.634  0.00  0.00    -0.455 OA
BRANCH  30  32
ATOM     31  N   UNL     1      34.958 -23.921 -15.720  0.00  0.00    -0.210 NA
ATOM     32  C   UNL     1      34.122 -23.191 -16.492  0.00  0.00    +0.225 C 
ATOM     33  C   UNL     1      32.788 -22.966 -16.193  0.00  0.00    +0.058 C 
ATOM     34  C   UNL     1      32.278 -23.527 -15.028  0.00  0.00    +0.006 C 
ATOM     35  C   UNL     1      34.428 -24.450 -14.594  0.00  0.00    +0.102 C 
ATOM     36  C   UNL     1      33.108 -24.285 -14.207  0.00  0.00    +0.021 C 
ENDBRANCH  30  32
ENDBRANCH  29  30
ENDBRANCH  26  29
ENDBRANCH  22  23
ENDBRANCH   3  22
TORSDOF 11
ENDMDL
MODEL 9
REMARK VINA RESULT:     -10.9      3.158      4.473
REMARK  Name = 44123754
REMARK  11 active torsions:
REMARK  status: ('A' for Active; 'I' for Inactive)
REMARK    1  A    between atoms: C_3  and  C_22
REMARK    2  A    between atoms: C_4  and  C_7
REMARK    3  A    between atoms: N_6  and  C_15
REMARK    4  A    between atoms: C_8  and  N_12
REMARK    5  A    between atoms: C_15  and  O_16
REMARK    6  A    between atoms: O_16  and  P_17
REMARK    7  A    between atoms: P_17  and  O_20
REMARK    8  A    between atoms: C_22  and  C_23
REMARK    9  A    between atoms: C_26  and  C_29
REMARK   10  A    between atoms: C_29  and  O_30
REMARK   11  A    between atoms: O_30  and  C_32
REMARK                            x       y       z     vdW  Elec       q    Type
REMARK                         _______ _______ _______ _____ _____    ______ ____
ROOT
ATOM      1  O   UNL     1      33.039 -21.292 -19.034  0.00  0.00    -0.354 OA
ATOM      2  N   UNL     1      33.696 -20.637 -20.068  0.00  0.00    -0.081 NA
ATOM      3  C   UNL     1      34.992 -20.896 -19.872  0.00  0.00    +0.105 C 
ATOM      4  C   UNL     1      33.951 -21.922 -18.250  0.00  0.00    +0.175 C 
ATOM      5  C   UNL     1      35.211 -21.701 -18.741  0.00  0.00    +0.058 C 
ENDROOT
BRANCH   4   7
ATOM      6  N   UNL     1      33.688 -23.912 -15.146  0.00  0.00    -0.266 N 
ATOM      7  C   UNL     1      33.413 -22.651 -17.125  0.00  0.00    +0.048 C 
ATOM      8  C   UNL     1      34.230 -23.245 -16.174  0.00  0.00    +0.156 C 
ATOM      9  C   UNL     1      32.033 -22.763 -16.988  0.00  0.00    +0.003 C 
ATOM     10  C   UNL     1      32.363 -24.036 -14.990  0.00  0.00    +0.064 C 
ATOM     11  C   UNL     1      31.498 -23.463 -15.910  0.00  0.00    +0.016 C 
BRANCH   8  12
ATOM     12  N   UNL     1      35.635 -23.154 -16.277  0.00  0.00    -0.303 NA
ATOM     13  H   UNL     1      36.200 -23.901 -15.973  0.00  0.00    +0.121 HD
ATOM     14  H   UNL     1      36.049 -22.344 -16.653  0.00  0.00    +0.121 HD
ENDBRANCH   8  12
BRANCH   6  15
ATOM     15  C   UNL     1      34.552 -24.538 -14.142  0.00  0.00    +0.251 C 
BRANCH  15  16
ATOM     16  O   UNL     1      35.321 -25.552 -14.774  0.00  0.00    -0.250 OA
BRANCH  16  17
ATOM     17  P   UNL     1      36.803 -25.914 -14.188  0.00  0.00    +0.504 P 
ATOM     18  O   UNL     1      37.669 -24.673 -14.185  0.00  0.00    -0.225 OA
ATOM     19  O   UNL     1      37.285 -27.184 -14.854  0.00  0.00    -0.116 OA
BRANCH  17  20
ATOM     20  O   UNL     1      36.401 -26.271 -12.645  0.00  0.00    -0.301 OA
ATOM     21  H   UNL     1      37.186 -26.587 -12.171  0.00  0.00    +0.222 HD
ENDBRANCH  17  20
ENDBRANCH  16  17
ENDBRANCH  15  16
ENDBRANCH   6  15
ENDBRANCH   4   7
BRANCH   3  22
ATOM     22  C   UNL     1      35.998 -20.349 -20.798  0.00  0.00    +0.075 C 
BRANCH  22  23
ATOM     23  C   UNL     1      35.463 -19.311 -21.775  0.00  0.00    -0.016 C 
ATOM     24  C   UNL     1      34.848 -19.719 -22.958  0.00  0.00    -0.004 C 
ATOM     25  C   UNL     1      35.588 -17.951 -21.487  0.00  0.00    -0.004 C 
ATOM     26  C   UNL     1      34.483 -17.409 -23.565  0.00  0.00    +0.021 C 
ATOM     27  C   UNL     1      34.358 -18.769 -23.854  0.00  0.00    -0.001 C 
ATOM     28  C   UNL     1      35.098 -17.001 -22.382  0.00  0.00    -0.001 C 
BRANCH  26  29
ATOM     29  C   UNL     1      33.956 -16.394 -24.522  0.00  0.00    +0.234 C 
BRANCH  29  30
ATOM     30  O   UNL     1      33.288 -15.367 -23.799  0.00  0.00    -0.455 OA
BRANCH  30  32
ATOM     31  N   UNL     1      33.304 -13.845 -25.551  0.00  0.00    -0.210 NA
ATOM     32  C   UNL     1      33.482 -14.081 -24.232  0.00  0.00    +0.225 C 
ATOM     33  C   UNL     1      33.843 -13.110 -23.311  0.00  0.00    +0.058 C 
ATOM     34  C   UNL     1      34.033 -11.813 -23.774  0.00  0.00    +0.006 C 
ATOM     35  C   UNL     1      33.496 -12.572 -25.964  0.00  0.00    +0.102 C 
ATOM     36  C   UNL     1      33.858 -11.530 -25.125  0.00  0.00    +0.021 C 
ENDBRANCH  30  32
ENDBRANCH  29  30
ENDBRANCH  26  29
ENDBRANCH  22  23
ENDBRANCH   3  22
TORSDOF 11
ENDMDL
