MODEL 1
REMARK VINA RESULT:     -11.8      0.000      0.000
REMARK  Name = 124173720
REMARK  4 active torsions:
REMARK  status: ('A' for Active; 'I' for Inactive)
REMARK    1  A    between atoms: C_13  and  N_24
REMARK    2  A    between atoms: C_18  and  C_23
REMARK    3  A    between atoms: N_24  and  C_26
REMARK    4  A    between atoms: C_26  and  C_30
REMARK                            x       y       z     vdW  Elec       q    Type
REMARK                         _______ _______ _______ _____ _____    ______ ____
ROOT
ATOM      1  O   UNL     1      32.452 -22.482 -18.287  0.00  0.00    -0.473 OA
ATOM      2  N   UNL     1      33.885 -23.628 -15.873  0.00  0.00    -0.272 N 
ATOM      3  N   UNL     1      36.073 -23.360 -15.955  0.00  0.00    -0.374 NA
ATOM      4  C   UNL     1      35.749 -24.125 -14.869  0.00  0.00    +0.190 C 
ATOM      5  C   UNL     1      34.934 -23.062 -16.570  0.00  0.00    +0.188 C 
ATOM      6  C   UNL     1      32.467 -23.564 -16.155  0.00  0.00    +0.141 C 
ATOM      7  C   UNL     1      34.395 -24.309 -14.797  0.00  0.00    +0.169 C 
ATOM      8  C   UNL     1      34.864 -22.249 -17.802  0.00  0.00    +0.078 C 
ATOM      9  C   UNL     1      32.070 -22.324 -16.924  0.00  0.00    +0.227 C 
ATOM     10  C   UNL     1      33.709 -22.018 -18.568  0.00  0.00    +0.144 C 
ATOM     11  C   UNL     1      36.070 -21.687 -18.273  0.00  0.00    +0.008 C 
ATOM     12  C   UNL     1      33.779 -21.300 -19.775  0.00  0.00    +0.051 C 
ATOM     13  C   UNL     1      34.984 -20.763 -20.215  0.00  0.00    +0.048 C 
ATOM     14  C   UNL     1      36.132 -20.951 -19.459  0.00  0.00    +0.015 C 
ATOM     15  O   UNL     1      38.699 -25.204 -13.147  0.00  0.00    -0.432 OA
ATOM     16  O   UNL     1      38.666 -23.682 -14.856  0.00  0.00    -0.226 OA
ATOM     17  N   UNL     1      36.686 -24.624 -13.997  0.00  0.00    -0.194 N 
ATOM     18  C   UNL     1      36.404 -25.438 -12.836  0.00  0.00    +0.195 C 
ATOM     19  C   UNL     1      37.738 -26.121 -12.612  0.00  0.00    +0.236 C 
ATOM     20  C   UNL     1      38.066 -24.424 -14.089  0.00  0.00    +0.411 C 
ENDROOT
BRANCH  18  23
ATOM     21  F   UNL     1      34.856 -25.093 -11.115  0.00  0.00    -0.196 F 
ATOM     22  F   UNL     1      36.950 -24.682 -10.689  0.00  0.00    -0.196 F 
ATOM     23  C   UNL     1      35.993 -24.588 -11.635  0.00  0.00    +0.340 C 
ENDBRANCH  18  23
BRANCH  13  24
ATOM     24  N   UNL     1      35.038 -20.032 -21.419  0.00  0.00    -0.327 N 
ATOM     25  H   UNL     1      34.741 -20.471 -22.248  0.00  0.00    +0.147 HD
BRANCH  24  26
ATOM     26  C   UNL     1      35.506 -18.682 -21.490  0.00  0.00    +0.146 C 
ATOM     27  C   UNL     1      37.024 -18.675 -21.595  0.00  0.00    +0.031 C 
BRANCH  26  30
ATOM     28  O   UNL     1      33.931 -18.465 -23.322  0.00  0.00    -0.274 OA
ATOM     29  N   UNL     1      35.478 -16.799 -23.004  0.00  0.00    -0.327 N 
ATOM     30  C   UNL     1      34.878 -17.999 -22.693  0.00  0.00    +0.237 C 
ATOM     31  H   UNL     1      35.153 -16.268 -23.767  0.00  0.00    +0.145 HD
ATOM     32  H   UNL     1      36.234 -16.471 -22.463  0.00  0.00    +0.145 HD
ENDBRANCH  26  30
ENDBRANCH  24  26
ENDBRANCH  13  24
TORSDOF 4
ENDMDL
MODEL 2
REMARK VINA RESULT:     -11.4      3.959      6.287
REMARK  Name = 124173720
REMARK  4 active torsions:
REMARK  status: ('A' for Active; 'I' for Inactive)
REMARK    1  A    between atoms: C_13  and  N_24
REMARK    2  A    between atoms: C_18  and  C_23
REMARK    3  A    between atoms: N_24  and  C_26
REMARK    4  A    between atoms: C_26  and  C_30
REMARK                            x       y       z     vdW  Elec       q    Type
REMARK                         _______ _______ _______ _____ _____    ______ ____
ROOT
ATOM      1  O   UNL     1      32.415 -22.401 -17.258  0.00  0.00    -0.473 OA
ATOM      2  N   UNL     1      34.827 -23.281 -15.644  0.00  0.00    -0.272 N 
ATOM      3  N   UNL     1      34.309 -23.961 -13.611  0.00  0.00    -0.374 NA
ATOM      4  C   UNL     1      35.668 -23.933 -13.748  0.00  0.00    +0.190 C 
ATOM      5  C   UNL     1      33.796 -23.557 -14.768  0.00  0.00    +0.188 C 
ATOM      6  C   UNL     1      34.755 -22.826 -17.016  0.00  0.00    +0.141 C 
ATOM      7  C   UNL     1      36.017 -23.511 -15.001  0.00  0.00    +0.169 C 
ATOM      8  C   UNL     1      32.344 -23.442 -15.018  0.00  0.00    +0.078 C 
ATOM      9  C   UNL     1      33.477 -23.235 -17.712  0.00  0.00    +0.227 C 
ATOM     10  C   UNL     1      31.751 -22.893 -16.167  0.00  0.00    +0.144 C 
ATOM     11  C   UNL     1      31.477 -23.887 -13.997  0.00  0.00    +0.008 C 
ATOM     12  C   UNL     1      30.354 -22.754 -16.257  0.00  0.00    +0.051 C 
ATOM     13  C   UNL     1      29.527 -23.197 -15.231  0.00  0.00    +0.048 C 
ATOM     14  C   UNL     1      30.089 -23.771 -14.100  0.00  0.00    +0.015 C 
ATOM     15  O   UNL     1      37.277 -24.819 -10.672  0.00  0.00    -0.432 OA
ATOM     16  O   UNL     1      35.027 -24.979 -11.065  0.00  0.00    -0.226 OA
ATOM     17  N   UNL     1      36.531 -24.286 -12.738  0.00  0.00    -0.194 N 
ATOM     18  C   UNL     1      37.974 -24.274 -12.825  0.00  0.00    +0.195 C 
ATOM     19  C   UNL     1      38.366 -24.197 -11.362  0.00  0.00    +0.236 C 
ATOM     20  C   UNL     1      36.154 -24.716 -11.463  0.00  0.00    +0.411 C 
ENDROOT
BRANCH  18  23
ATOM     21  F   UNL     1      38.992 -25.218 -14.709  0.00  0.00    -0.196 F 
ATOM     22  F   UNL     1      39.543 -26.010 -12.758  0.00  0.00    -0.196 F 
ATOM     23  C   UNL     1      38.512 -25.540 -13.490  0.00  0.00    +0.340 C 
ENDBRANCH  18  23
BRANCH  13  24
ATOM     24  N   UNL     1      28.128 -23.064 -15.340  0.00  0.00    -0.327 N 
ATOM     25  H   UNL     1      27.567 -23.377 -14.595  0.00  0.00    +0.147 HD
BRANCH  24  26
ATOM     26  C   UNL     1      27.487 -22.496 -16.487  0.00  0.00    +0.146 C 
ATOM     27  C   UNL     1      27.353 -23.555 -17.571  0.00  0.00    +0.031 C 
BRANCH  26  30
ATOM     28  O   UNL     1      25.569 -22.244 -15.023  0.00  0.00    -0.274 OA
ATOM     29  N   UNL     1      25.573 -21.123 -17.027  0.00  0.00    -0.327 N 
ATOM     30  C   UNL     1      26.124 -21.962 -16.082  0.00  0.00    +0.237 C 
ATOM     31  H   UNL     1      24.689 -20.718 -16.871  0.00  0.00    +0.145 HD
ATOM     32  H   UNL     1      26.062 -20.929 -17.859  0.00  0.00    +0.145 HD
ENDBRANCH  26  30
ENDBRANCH  24  26
ENDBRANCH  13  24
TORSDOF 4
ENDMDL
MODEL 3
REMARK VINA RESULT:     -10.8      4.148      8.919
REMARK  Name = 124173720
REMARK  4 active torsions:
REMARK  status: ('A' for Active; 'I' for Inactive)
REMARK    1  A    between atoms: C_13  and  N_24
REMARK    2  A    between atoms: C_18  and  C_23
REMARK    3  A    between atoms: N_24  and  C_26
REMARK    4  A    between atoms: C_26  and  C_30
REMARK                            x       y       z     vdW  Elec       q    Type
REMARK                         _______ _______ _______ _____ _____    ______ ____
ROOT
ATOM      1  O   UNL     1      33.634 -23.037 -16.539  0.00  0.00    -0.473 OA
ATOM      2  N   UNL     1      33.810 -21.377 -19.071  0.00  0.00    -0.272 N 
ATOM      3  N   UNL     1      35.823 -20.551 -19.428  0.00  0.00    -0.374 NA
ATOM      4  C   UNL     1      34.957 -20.056 -20.362  0.00  0.00    +0.190 C 
ATOM      5  C   UNL     1      35.121 -21.354 -18.637  0.00  0.00    +0.188 C 
ATOM      6  C   UNL     1      32.688 -22.116 -18.532  0.00  0.00    +0.141 C 
ATOM      7  C   UNL     1      33.697 -20.551 -20.160  0.00  0.00    +0.169 C 
ATOM      8  C   UNL     1      35.704 -22.080 -17.490  0.00  0.00    +0.078 C 
ATOM      9  C   UNL     1      33.099 -23.381 -17.813  0.00  0.00    +0.227 C 
ATOM     10  C   UNL     1      34.987 -22.829 -16.543  0.00  0.00    +0.144 C 
ATOM     11  C   UNL     1      37.101 -21.981 -17.308  0.00  0.00    +0.008 C 
ATOM     12  C   UNL     1      35.641 -23.405 -15.439  0.00  0.00    +0.051 C 
ATOM     13  C   UNL     1      37.018 -23.285 -15.284  0.00  0.00    +0.048 C 
ATOM     14  C   UNL     1      37.751 -22.576 -16.225  0.00  0.00    +0.015 C 
ATOM     15  O   UNL     1      36.603 -17.710 -22.511  0.00  0.00    -0.432 OA
ATOM     16  O   UNL     1      37.656 -19.031 -20.967  0.00  0.00    -0.226 OA
ATOM     17  N   UNL     1      35.338 -19.179 -21.349  0.00  0.00    -0.194 N 
ATOM     18  C   UNL     1      34.467 -18.621 -22.359  0.00  0.00    +0.195 C 
ATOM     19  C   UNL     1      35.234 -17.381 -22.771  0.00  0.00    +0.236 C 
ATOM     20  C   UNL     1      36.631 -18.684 -21.538  0.00  0.00    +0.411 C 
ENDROOT
BRANCH  18  23
ATOM     21  F   UNL     1      34.114 -18.863 -24.660  0.00  0.00    -0.196 F 
ATOM     22  F   UNL     1      35.387 -20.326 -23.673  0.00  0.00    -0.196 F 
ATOM     23  C   UNL     1      34.270 -19.583 -23.530  0.00  0.00    +0.340 C 
ENDBRANCH  18  23
BRANCH  13  24
ATOM     24  N   UNL     1      37.663 -23.879 -14.181  0.00  0.00    -0.327 N 
ATOM     25  H   UNL     1      37.658 -23.402 -13.321  0.00  0.00    +0.147 HD
BRANCH  24  26
ATOM     26  C   UNL     1      38.324 -25.146 -14.256  0.00  0.00    +0.146 C 
ATOM     27  C   UNL     1      39.215 -25.327 -13.035  0.00  0.00    +0.031 C 
BRANCH  26  30
ATOM     28  O   UNL     1      37.066 -26.912 -15.344  0.00  0.00    -0.274 OA
ATOM     29  N   UNL     1      36.605 -26.432 -13.146  0.00  0.00    -0.327 N 
ATOM     30  C   UNL     1      37.282 -26.249 -14.332  0.00  0.00    +0.237 C 
ATOM     31  H   UNL     1      35.905 -27.122 -13.080  0.00  0.00    +0.145 HD
ATOM     32  H   UNL     1      36.821 -25.874 -12.364  0.00  0.00    +0.145 HD
ENDBRANCH  26  30
ENDBRANCH  24  26
ENDBRANCH  13  24
TORSDOF 4
ENDMDL
MODEL 4
REMARK VINA RESULT:      -9.9      4.090      8.831
REMARK  Name = 124173720
REMARK  4 active torsions:
REMARK  status: ('A' for Active; 'I' for Inactive)
REMARK    1  A    between atoms: C_13  and  N_24
REMARK    2  A    between atoms: C_18  and  C_23
REMARK    3  A    between atoms: N_24  and  C_26
REMARK    4  A    between atoms: C_26  and  C_30
REMARK                            x       y       z     vdW  Elec       q    Type
REMARK                         _______ _______ _______ _____ _____    ______ ____
ROOT
ATOM      1  O   UNL     1      36.192 -23.791 -15.395  0.00  0.00    -0.473 OA
ATOM      2  N   UNL     1      36.177 -21.934 -17.793  0.00  0.00    -0.272 N 
ATOM      3  N   UNL     1      34.163 -21.624 -18.637  0.00  0.00    -0.374 NA
ATOM      4  C   UNL     1      35.089 -21.014 -19.435  0.00  0.00    +0.190 C 
ATOM      5  C   UNL     1      34.829 -22.190 -17.636  0.00  0.00    +0.188 C 
ATOM      6  C   UNL     1      37.281 -22.335 -16.948  0.00  0.00    +0.141 C 
ATOM      7  C   UNL     1      36.349 -21.194 -18.935  0.00  0.00    +0.169 C 
ATOM      8  C   UNL     1      34.176 -22.959 -16.557  0.00  0.00    +0.078 C 
ATOM      9  C   UNL     1      36.880 -22.548 -15.506  0.00  0.00    +0.227 C 
ATOM     10  C   UNL     1      34.836 -23.691 -15.556  0.00  0.00    +0.144 C 
ATOM     11  C   UNL     1      32.765 -22.994 -16.553  0.00  0.00    +0.008 C 
ATOM     12  C   UNL     1      34.109 -24.461 -14.631  0.00  0.00    +0.051 C 
ATOM     13  C   UNL     1      32.719 -24.479 -14.656  0.00  0.00    +0.048 C 
ATOM     14  C   UNL     1      32.044 -23.739 -15.616  0.00  0.00    +0.015 C 
ATOM     15  O   UNL     1      33.529 -19.561 -22.315  0.00  0.00    -0.432 OA
ATOM     16  O   UNL     1      32.408 -20.454 -20.530  0.00  0.00    -0.226 OA
ATOM     17  N   UNL     1      34.758 -20.327 -20.578  0.00  0.00    -0.194 N 
ATOM     18  C   UNL     1      35.692 -19.665 -21.461  0.00  0.00    +0.195 C 
ATOM     19  C   UNL     1      34.894 -19.589 -22.747  0.00  0.00    +0.236 C 
ATOM     20  C   UNL     1      33.462 -20.154 -21.073  0.00  0.00    +0.411 C 
ENDROOT
BRANCH  18  23
ATOM     21  F   UNL     1      37.331 -18.325 -20.464  0.00  0.00    -0.196 F 
ATOM     22  F   UNL     1      36.065 -17.414 -21.982  0.00  0.00    -0.196 F 
ATOM     23  C   UNL     1      36.073 -18.278 -20.946  0.00  0.00    +0.340 C 
ENDBRANCH  18  23
BRANCH  13  24
ATOM     24  N   UNL     1      32.001 -25.243 -13.714  0.00  0.00    -0.327 N 
ATOM     25  H   UNL     1      32.322 -26.148 -13.502  0.00  0.00    +0.147 HD
BRANCH  24  26
ATOM     26  C   UNL     1      30.827 -24.761 -13.054  0.00  0.00    +0.146 C 
ATOM     27  C   UNL     1      31.010 -23.292 -12.700  0.00  0.00    +0.031 C 
BRANCH  26  30
ATOM     28  O   UNL     1      29.035 -24.025 -14.513  0.00  0.00    -0.274 OA
ATOM     29  N   UNL     1      29.275 -26.274 -14.121  0.00  0.00    -0.327 N 
ATOM     30  C   UNL     1      29.628 -24.951 -13.966  0.00  0.00    +0.237 C 
ATOM     31  H   UNL     1      28.510 -26.517 -14.691  0.00  0.00    +0.145 HD
ATOM     32  H   UNL     1      29.787 -26.978 -13.661  0.00  0.00    +0.145 HD
ENDBRANCH  26  30
ENDBRANCH  24  26
ENDBRANCH  13  24
TORSDOF 4
ENDMDL
MODEL 5
REMARK VINA RESULT:      -9.1     11.028     14.656
REMARK  Name = 124173720
REMARK  4 active torsions:
REMARK  status: ('A' for Active; 'I' for Inactive)
REMARK    1  A    between atoms: C_13  and  N_24
REMARK    2  A    between atoms: C_18  and  C_23
REMARK    3  A    between atoms: N_24  and  C_26
REMARK    4  A    between atoms: C_26  and  C_30
REMARK                            x       y       z     vdW  Elec       q    Type
REMARK                         _______ _______ _______ _____ _____    ______ ____
ROOT
ATOM      1  O   UNL     1      31.362  -9.660 -19.864  0.00  0.00    -0.473 OA
ATOM      2  N   UNL     1      32.299 -12.104 -21.396  0.00  0.00    -0.272 N 
ATOM      3  N   UNL     1      32.937 -11.643 -23.456  0.00  0.00    -0.374 NA
ATOM      4  C   UNL     1      32.955 -12.996 -23.267  0.00  0.00    +0.190 C 
ATOM      5  C   UNL     1      32.531 -11.099 -22.315  0.00  0.00    +0.188 C 
ATOM      6  C   UNL     1      31.858 -11.993 -20.022  0.00  0.00    +0.141 C 
ATOM      7  C   UNL     1      32.559 -13.310 -21.995  0.00  0.00    +0.169 C 
ATOM      8  C   UNL     1      32.372  -9.643 -22.119  0.00  0.00    +0.078 C 
ATOM      9  C   UNL     1      32.235 -10.677 -19.381  0.00  0.00    +0.227 C 
ATOM     10  C   UNL     1      31.818  -9.023 -20.986  0.00  0.00    +0.144 C 
ATOM     11  C   UNL     1      32.776  -8.803 -23.179  0.00  0.00    +0.008 C 
ATOM     12  C   UNL     1      31.635  -7.630 -20.948  0.00  0.00    +0.051 C 
ATOM     13  C   UNL     1      32.039  -6.829 -22.011  0.00  0.00    +0.048 C 
ATOM     14  C   UNL     1      32.617  -7.416 -23.127  0.00  0.00    +0.015 C 
ATOM     15  O   UNL     1      33.855 -14.695 -26.290  0.00  0.00    -0.432 OA
ATOM     16  O   UNL     1      33.947 -12.428 -25.986  0.00  0.00    -0.226 OA
ATOM     17  N   UNL     1      33.323 -13.886 -24.247  0.00  0.00    -0.194 N 
ATOM     18  C   UNL     1      33.359 -15.325 -24.105  0.00  0.00    +0.195 C 
ATOM     19  C   UNL     1      33.277 -15.775 -25.550  0.00  0.00    +0.236 C 
ATOM     20  C   UNL     1      33.725 -13.546 -25.541  0.00  0.00    +0.411 C 
ENDROOT
BRANCH  18  23
ATOM     21  F   UNL     1      34.399 -16.037 -22.133  0.00  0.00    -0.196 F 
ATOM     22  F   UNL     1      35.030 -16.961 -24.000  0.00  0.00    -0.196 F 
ATOM     23  C   UNL     1      34.649 -15.796 -23.436  0.00  0.00    +0.340 C 
ENDBRANCH  18  23
BRANCH  13  24
ATOM     24  N   UNL     1      31.862  -5.431 -21.954  0.00  0.00    -0.327 N 
ATOM     25  H   UNL     1      32.614  -4.875 -21.647  0.00  0.00    +0.147 HD
BRANCH  24  26
ATOM     26  C   UNL     1      30.639  -4.786 -22.321  0.00  0.00    +0.146 C 
ATOM     27  C   UNL     1      29.680  -4.806 -21.141  0.00  0.00    +0.031 C 
BRANCH  26  30
ATOM     28  O   UNL     1      31.795  -3.064 -23.580  0.00  0.00    -0.274 OA
ATOM     29  N   UNL     1      30.144  -2.430 -22.116  0.00  0.00    -0.327 N 
ATOM     30  C   UNL     1      30.938  -3.360 -22.751  0.00  0.00    +0.237 C 
ATOM     31  H   UNL     1      30.250  -1.472 -22.317  0.00  0.00    +0.145 HD
ATOM     32  H   UNL     1      29.470  -2.723 -21.460  0.00  0.00    +0.145 HD
ENDBRANCH  26  30
ENDBRANCH  24  26
ENDBRANCH  13  24
TORSDOF 4
ENDMDL
MODEL 6
REMARK VINA RESULT:      -8.9      7.657     11.713
REMARK  Name = 124173720
REMARK  4 active torsions:
REMARK  status: ('A' for Active; 'I' for Inactive)
REMARK    1  A    between atoms: C_13  and  N_24
REMARK    2  A    between atoms: C_18  and  C_23
REMARK    3  A    between atoms: N_24  and  C_26
REMARK    4  A    between atoms: C_26  and  C_30
REMARK                            x       y       z     vdW  Elec       q    Type
REMARK                         _______ _______ _______ _____ _____    ______ ____
ROOT
ATOM      1  O   UNL     1      33.621 -12.085 -25.773  0.00  0.00    -0.473 OA
ATOM      2  N   UNL     1      34.317 -14.840 -24.716  0.00  0.00    -0.272 N 
ATOM      3  N   UNL     1      34.374 -14.935 -22.513  0.00  0.00    -0.374 NA
ATOM      4  C   UNL     1      34.797 -16.127 -23.030  0.00  0.00    +0.190 C 
ATOM      5  C   UNL     1      34.087 -14.148 -23.544  0.00  0.00    +0.188 C 
ATOM      6  C   UNL     1      34.135 -14.399 -26.082  0.00  0.00    +0.141 C 
ATOM      7  C   UNL     1      34.774 -16.094 -24.398  0.00  0.00    +0.169 C 
ATOM      8  C   UNL     1      33.601 -12.760 -23.397  0.00  0.00    +0.078 C 
ATOM      9  C   UNL     1      33.082 -13.324 -26.224  0.00  0.00    +0.227 C 
ATOM     10  C   UNL     1      33.414 -11.841 -24.442  0.00  0.00    +0.144 C 
ATOM     11  C   UNL     1      33.339 -12.305 -22.086  0.00  0.00    +0.008 C 
ATOM     12  C   UNL     1      33.031 -10.515 -24.173  0.00  0.00    +0.051 C 
ATOM     13  C   UNL     1      32.785 -10.095 -22.871  0.00  0.00    +0.048 C 
ATOM     14  C   UNL     1      32.933 -10.994 -21.824  0.00  0.00    +0.015 C 
ATOM     15  O   UNL     1      35.803 -18.363 -20.418  0.00  0.00    -0.432 OA
ATOM     16  O   UNL     1      34.759 -16.353 -20.089  0.00  0.00    -0.226 OA
ATOM     17  N   UNL     1      35.186 -17.188 -22.248  0.00  0.00    -0.194 N 
ATOM     18  C   UNL     1      35.643 -18.470 -22.738  0.00  0.00    +0.195 C 
ATOM     19  C   UNL     1      36.423 -18.990 -21.547  0.00  0.00    +0.236 C 
ATOM     20  C   UNL     1      35.201 -17.202 -20.851  0.00  0.00    +0.411 C 
ENDROOT
BRANCH  18  23
ATOM     21  F   UNL     1      34.911 -20.321 -23.967  0.00  0.00    -0.196 F 
ATOM     22  F   UNL     1      34.069 -20.028 -21.982  0.00  0.00    -0.196 F 
ATOM     23  C   UNL     1      34.476 -19.387 -23.097  0.00  0.00    +0.340 C 
ENDBRANCH  18  23
BRANCH  13  24
ATOM     24  N   UNL     1      32.388  -8.767 -22.616  0.00  0.00    -0.327 N 
ATOM     25  H   UNL     1      31.509  -8.469 -22.942  0.00  0.00    +0.147 HD
BRANCH  24  26
ATOM     26  C   UNL     1      33.207  -7.833 -21.905  0.00  0.00    +0.146 C 
ATOM     27  C   UNL     1      33.665  -6.735 -22.853  0.00  0.00    +0.031 C 
BRANCH  26  30
ATOM     28  O   UNL     1      31.339  -6.666 -20.887  0.00  0.00    -0.274 OA
ATOM     29  N   UNL     1      33.013  -7.452 -19.526  0.00  0.00    -0.327 N 
ATOM     30  C   UNL     1      32.411  -7.252 -20.749  0.00  0.00    +0.237 C 
ATOM     31  H   UNL     1      32.586  -7.116 -18.705  0.00  0.00    +0.145 HD
ATOM     32  H   UNL     1      33.872  -7.931 -19.473  0.00  0.00    +0.145 HD
ENDBRANCH  26  30
ENDBRANCH  24  26
ENDBRANCH  13  24
TORSDOF 4
ENDMDL
MODEL 7
REMARK VINA RESULT:      -8.9      3.034      5.242
REMARK  Name = 124173720
REMARK  4 active torsions:
REMARK  status: ('A' for Active; 'I' for Inactive)
REMARK    1  A    between atoms: C_13  and  N_24
REMARK    2  A    between atoms: C_18  and  C_23
REMARK    3  A    between atoms: N_24  and  C_26
REMARK    4  A    between atoms: C_26  and  C_30
REMARK                            x       y       z     vdW  Elec       q    Type
REMARK                         _______ _______ _______ _____ _____    ______ ____
ROOT
ATOM      1  O   UNL     1      36.132 -22.251 -17.018  0.00  0.00    -0.473 OA
ATOM      2  N   UNL     1      33.562 -23.228 -15.739  0.00  0.00    -0.272 N 
ATOM      3  N   UNL     1      31.759 -22.664 -16.876  0.00  0.00    -0.374 NA
ATOM      4  C   UNL     1      31.388 -23.258 -15.702  0.00  0.00    +0.190 C 
ATOM      5  C   UNL     1      33.087 -22.641 -16.895  0.00  0.00    +0.188 C 
ATOM      6  C   UNL     1      34.933 -23.439 -15.325  0.00  0.00    +0.141 C 
ATOM      7  C   UNL     1      32.491 -23.615 -14.975  0.00  0.00    +0.169 C 
ATOM      8  C   UNL     1      33.875 -22.067 -18.005  0.00  0.00    +0.078 C 
ATOM      9  C   UNL     1      35.894 -23.551 -16.487  0.00  0.00    +0.227 C 
ATOM     10  C   UNL     1      35.269 -21.892 -18.017  0.00  0.00    +0.144 C 
ATOM     11  C   UNL     1      33.161 -21.618 -19.137  0.00  0.00    +0.008 C 
ATOM     12  C   UNL     1      35.902 -21.250 -19.096  0.00  0.00    +0.051 C 
ATOM     13  C   UNL     1      35.170 -20.814 -20.195  0.00  0.00    +0.048 C 
ATOM     14  C   UNL     1      33.796 -21.004 -20.219  0.00  0.00    +0.015 C 
ATOM     15  O   UNL     1      27.824 -23.267 -15.348  0.00  0.00    -0.432 OA
ATOM     16  O   UNL     1      28.948 -22.650 -17.244  0.00  0.00    -0.226 OA
ATOM     17  N   UNL     1      30.077 -23.447 -15.338  0.00  0.00    -0.194 N 
ATOM     18  C   UNL     1      29.626 -24.065 -14.111  0.00  0.00    +0.195 C 
ATOM     19  C   UNL     1      28.217 -23.519 -13.995  0.00  0.00    +0.236 C 
ATOM     20  C   UNL     1      28.964 -23.075 -16.096  0.00  0.00    +0.411 C 
ENDROOT
BRANCH  18  23
ATOM     21  F   UNL     1      28.391 -26.048 -13.976  0.00  0.00    -0.196 F 
ATOM     22  F   UNL     1      29.974 -25.942 -15.466  0.00  0.00    -0.196 F 
ATOM     23  C   UNL     1      29.638 -25.590 -14.208  0.00  0.00    +0.340 C 
ENDBRANCH  18  23
BRANCH  13  24
ATOM     24  N   UNL     1      35.820 -20.185 -21.276  0.00  0.00    -0.327 N 
ATOM     25  H   UNL     1      36.158 -20.745 -22.011  0.00  0.00    +0.147 HD
BRANCH  24  26
ATOM     26  C   UNL     1      36.009 -18.769 -21.352  0.00  0.00    +0.146 C 
ATOM     27  C   UNL     1      37.488 -18.464 -21.538  0.00  0.00    +0.031 C 
BRANCH  26  30
ATOM     28  O   UNL     1      34.218 -18.792 -22.988  0.00  0.00    -0.274 OA
ATOM     29  N   UNL     1      35.660 -17.004 -22.966  0.00  0.00    -0.327 N 
ATOM     30  C   UNL     1      35.194 -18.218 -22.509  0.00  0.00    +0.237 C 
ATOM     31  H   UNL     1      35.208 -16.553 -23.715  0.00  0.00    +0.145 HD
ATOM     32  H   UNL     1      36.446 -16.587 -22.543  0.00  0.00    +0.145 HD
ENDBRANCH  26  30
ENDBRANCH  24  26
ENDBRANCH  13  24
TORSDOF 4
ENDMDL
