MODEL 1
REMARK VINA RESULT:     -11.3      0.000      0.000
REMARK  Name = 11574606
REMARK  6 active torsions:
REMARK  status: ('A' for Active; 'I' for Inactive)
REMARK    1  A    between atoms: C_5  and  O_24
REMARK    2  A    between atoms: C_7  and  N_10
REMARK    3  A    between atoms: N_10  and  C_12
REMARK    4  A    between atoms: C_15  and  S_18
REMARK    5  A    between atoms: S_18  and  N_21
REMARK    6  A    between atoms: O_24  and  C_25
REMARK                            x       y       z     vdW  Elec       q    Type
REMARK                         _______ _______ _______ _____ _____    ______ ____
ROOT
ATOM      1  N   UNL     1      32.917 -23.631 -13.965  0.00  0.00    -0.299 NA
ATOM      2  N   UNL     1      32.032 -23.150 -16.149  0.00  0.00    -0.106 N 
ATOM      3  N   UNL     1      30.843 -22.793 -16.701  0.00  0.00    -0.139 NA
ATOM      4  N   UNL     1      30.621 -23.009 -14.445  0.00  0.00    -0.145 NA
ATOM      5  C   UNL     1      34.041 -23.833 -14.574  0.00  0.00    +0.291 C 
ATOM      6  C   UNL     1      34.316 -23.727 -16.024  0.00  0.00    +0.105 C 
ATOM      7  C   UNL     1      33.263 -23.377 -16.782  0.00  0.00    +0.142 C 
ATOM      8  C   UNL     1      31.871 -23.277 -14.764  0.00  0.00    +0.178 C 
ATOM      9  C   UNL     1      30.045 -22.723 -15.640  0.00  0.00    +0.230 C 
ENDROOT
BRANCH   7  10
ATOM     10  N   UNL     1      33.314 -23.226 -18.139  0.00  0.00    -0.299 N 
ATOM     11  H   UNL     1      32.895 -23.944 -18.666  0.00  0.00    +0.153 HD
BRANCH  10  12
ATOM     12  C   UNL     1      33.886 -22.184 -18.875  0.00  0.00    +0.049 C 
ATOM     13  C   UNL     1      33.076 -21.279 -19.572  0.00  0.00    +0.016 C 
ATOM     14  C   UNL     1      35.279 -22.032 -18.925  0.00  0.00    +0.016 C 
ATOM     15  C   UNL     1      35.034 -20.096 -20.350  0.00  0.00    +0.122 C 
ATOM     16  C   UNL     1      33.647 -20.239 -20.306  0.00  0.00    +0.021 C 
ATOM     17  C   UNL     1      35.849 -20.993 -19.660  0.00  0.00    +0.021 C 
BRANCH  15  18
ATOM     18  S   UNL     1      35.749 -18.796 -21.270  0.00  0.00    +0.057 S 
ATOM     19  O   UNL     1      35.545 -19.069 -22.686  0.00  0.00    -0.153 OA
ATOM     20  O   UNL     1      35.303 -17.530 -20.706  0.00  0.00    -0.153 OA
BRANCH  18  21
ATOM     21  N   UNL     1      37.403 -19.008 -20.901  0.00  0.00    -0.203 NA
ATOM     22  H   UNL     1      37.593 -18.645 -19.966  0.00  0.00    +0.144 HD
ATOM     23  H   UNL     1      37.971 -18.504 -21.582  0.00  0.00    +0.144 HD
ENDBRANCH  18  21
ENDBRANCH  15  18
ENDBRANCH  10  12
ENDBRANCH   7  10
BRANCH   5  24
ATOM     24  O   UNL     1      35.140 -24.189 -13.867  0.00  0.00    -0.455 OA
BRANCH  24  25
ATOM     25  C   UNL     1      36.213 -24.581 -14.721  0.00  0.00    +0.169 C 
ATOM     26  C   UNL     1      37.492 -23.846 -14.315  0.00  0.00    +0.044 C 
ATOM     27  C   UNL     1      36.382 -26.097 -14.633  0.00  0.00    +0.044 C 
ATOM     28  C   UNL     1      38.002 -24.294 -12.944  0.00  0.00    +0.004 C 
ATOM     29  C   UNL     1      36.896 -26.541 -13.263  0.00  0.00    +0.004 C 
ATOM     30  C   UNL     1      38.177 -25.808 -12.877  0.00  0.00    +0.000 C 
ENDBRANCH  24  25
ENDBRANCH   5  24
TORSDOF 6
ENDMDL
MODEL 2
REMARK VINA RESULT:     -10.1      3.683      7.246
REMARK  Name = 11574606
REMARK  6 active torsions:
REMARK  status: ('A' for Active; 'I' for Inactive)
REMARK    1  A    between atoms: C_5  and  O_24
REMARK    2  A    between atoms: C_7  and  N_10
REMARK    3  A    between atoms: N_10  and  C_12
REMARK    4  A    between atoms: C_15  and  S_18
REMARK    5  A    between atoms: S_18  and  N_21
REMARK    6  A    between atoms: O_24  and  C_25
REMARK                            x       y       z     vdW  Elec       q    Type
REMARK                         _______ _______ _______ _____ _____    ______ ____
ROOT
ATOM      1  N   UNL     1      37.402 -22.518 -16.335  0.00  0.00    -0.299 NA
ATOM      2  N   UNL     1      36.211 -23.798 -14.684  0.00  0.00    -0.106 N 
ATOM      3  N   UNL     1      36.499 -24.639 -13.657  0.00  0.00    -0.139 NA
ATOM      4  N   UNL     1      38.424 -23.924 -14.642  0.00  0.00    -0.145 NA
ATOM      5  C   UNL     1      36.233 -22.140 -16.742  0.00  0.00    +0.291 C 
ATOM      6  C   UNL     1      34.915 -22.529 -16.193  0.00  0.00    +0.105 C 
ATOM      7  C   UNL     1      34.957 -23.373 -15.148  0.00  0.00    +0.142 C 
ATOM      8  C   UNL     1      37.407 -23.373 -15.273  0.00  0.00    +0.178 C 
ATOM      9  C   UNL     1      37.828 -24.674 -13.680  0.00  0.00    +0.230 C 
ENDROOT
BRANCH   7  10
ATOM     10  N   UNL     1      33.850 -23.847 -14.502  0.00  0.00    -0.299 N 
ATOM     11  H   UNL     1      34.021 -24.390 -13.699  0.00  0.00    +0.153 HD
BRANCH  10  12
ATOM     12  C   UNL     1      32.504 -23.661 -14.837  0.00  0.00    +0.049 C 
ATOM     13  C   UNL     1      32.147 -23.181 -16.102  0.00  0.00    +0.016 C 
ATOM     14  C   UNL     1      31.496 -23.954 -13.908  0.00  0.00    +0.016 C 
ATOM     15  C   UNL     1      29.808 -23.290 -15.504  0.00  0.00    +0.122 C 
ATOM     16  C   UNL     1      30.805 -22.996 -16.435  0.00  0.00    +0.021 C 
ATOM     17  C   UNL     1      30.155 -23.769 -14.241  0.00  0.00    +0.021 C 
BRANCH  15  18
ATOM     18  S   UNL     1      28.129 -23.058 -15.920  0.00  0.00    +0.057 S 
ATOM     19  O   UNL     1      27.343 -23.095 -14.693  0.00  0.00    -0.153 OA
ATOM     20  O   UNL     1      28.026 -21.910 -16.809  0.00  0.00    -0.153 OA
BRANCH  18  21
ATOM     21  N   UNL     1      27.817 -24.477 -16.817  0.00  0.00    -0.203 NA
ATOM     22  H   UNL     1      27.534 -25.225 -16.183  0.00  0.00    +0.144 HD
ATOM     23  H   UNL     1      28.661 -24.757 -17.317  0.00  0.00    +0.144 HD
ENDBRANCH  18  21
ENDBRANCH  15  18
ENDBRANCH  10  12
ENDBRANCH   7  10
BRANCH   5  24
ATOM     24  O   UNL     1      36.122 -21.291 -17.791  0.00  0.00    -0.455 OA
BRANCH  24  25
ATOM     25  C   UNL     1      35.924 -21.992 -19.018  0.00  0.00    +0.169 C 
ATOM     26  C   UNL     1      34.463 -22.427 -19.136  0.00  0.00    +0.044 C 
ATOM     27  C   UNL     1      36.336 -21.081 -20.175  0.00  0.00    +0.044 C 
ATOM     28  C   UNL     1      33.519 -21.234 -19.299  0.00  0.00    +0.004 C 
ATOM     29  C   UNL     1      35.389 -19.892 -20.338  0.00  0.00    +0.004 C 
ATOM     30  C   UNL     1      33.937 -20.342 -20.465  0.00  0.00    +0.000 C 
ENDBRANCH  24  25
ENDBRANCH   5  24
TORSDOF 6
ENDMDL
MODEL 3
REMARK VINA RESULT:      -9.9      1.897      5.023
REMARK  Name = 11574606
REMARK  6 active torsions:
REMARK  status: ('A' for Active; 'I' for Inactive)
REMARK    1  A    between atoms: C_5  and  O_24
REMARK    2  A    between atoms: C_7  and  N_10
REMARK    3  A    between atoms: N_10  and  C_12
REMARK    4  A    between atoms: C_15  and  S_18
REMARK    5  A    between atoms: S_18  and  N_21
REMARK    6  A    between atoms: O_24  and  C_25
REMARK                            x       y       z     vdW  Elec       q    Type
REMARK                         _______ _______ _______ _____ _____    ______ ____
ROOT
ATOM      1  N   UNL     1      32.286 -23.511 -14.967  0.00  0.00    -0.299 NA
ATOM      2  N   UNL     1      34.481 -23.458 -15.951  0.00  0.00    -0.106 N 
ATOM      3  N   UNL     1      35.759 -23.734 -15.583  0.00  0.00    -0.139 NA
ATOM      4  N   UNL     1      34.345 -24.131 -13.842  0.00  0.00    -0.145 NA
ATOM      5  C   UNL     1      31.870 -23.085 -16.116  0.00  0.00    +0.291 C 
ATOM      6  C   UNL     1      32.679 -22.790 -17.319  0.00  0.00    +0.105 C 
ATOM      7  C   UNL     1      34.000 -22.995 -17.185  0.00  0.00    +0.142 C 
ATOM      8  C   UNL     1      33.632 -23.709 -14.867  0.00  0.00    +0.178 C 
ATOM      9  C   UNL     1      35.615 -24.130 -14.322  0.00  0.00    +0.230 C 
ENDROOT
BRANCH   7  10
ATOM     10  N   UNL     1      34.913 -22.782 -18.179  0.00  0.00    -0.299 N 
ATOM     11  H   UNL     1      35.602 -23.476 -18.285  0.00  0.00    +0.153 HD
BRANCH  10  12
ATOM     12  C   UNL     1      34.994 -21.703 -19.066  0.00  0.00    +0.049 C 
ATOM     13  C   UNL     1      33.835 -21.171 -19.644  0.00  0.00    +0.016 C 
ATOM     14  C   UNL     1      36.237 -21.140 -19.385  0.00  0.00    +0.016 C 
ATOM     15  C   UNL     1      35.158 -19.542 -20.841  0.00  0.00    +0.122 C 
ATOM     16  C   UNL     1      33.916 -20.095 -20.528  0.00  0.00    +0.021 C 
ATOM     17  C   UNL     1      36.318 -20.065 -20.269  0.00  0.00    +0.021 C 
BRANCH  15  18
ATOM     18  S   UNL     1      35.261 -18.196 -21.948  0.00  0.00    +0.057 S 
ATOM     19  O   UNL     1      34.409 -18.479 -23.095  0.00  0.00    -0.153 OA
ATOM     20  O   UNL     1      35.076 -16.963 -21.196  0.00  0.00    -0.153 OA
BRANCH  18  21
ATOM     21  N   UNL     1      36.895 -18.300 -22.436  0.00  0.00    -0.203 NA
ATOM     22  H   UNL     1      37.179 -17.418 -22.865  0.00  0.00    +0.144 HD
ATOM     23  H   UNL     1      37.000 -19.056 -23.113  0.00  0.00    +0.144 HD
ENDBRANCH  18  21
ENDBRANCH  15  18
ENDBRANCH  10  12
ENDBRANCH   7  10
BRANCH   5  24
ATOM     24  O   UNL     1      30.550 -22.857 -16.316  0.00  0.00    -0.455 OA
BRANCH  24  25
ATOM     25  C   UNL     1      29.740 -23.809 -15.628  0.00  0.00    +0.169 C 
ATOM     26  C   UNL     1      29.196 -23.189 -14.339  0.00  0.00    +0.044 C 
ATOM     27  C   UNL     1      28.612 -24.258 -16.557  0.00  0.00    +0.044 C 
ATOM     28  C   UNL     1      28.195 -22.067 -14.619  0.00  0.00    +0.004 C 
ATOM     29  C   UNL     1      27.611 -23.136 -16.831  0.00  0.00    +0.004 C 
ATOM     30  C   UNL     1      27.069 -22.536 -15.537  0.00  0.00    +0.000 C 
ENDBRANCH  24  25
ENDBRANCH   5  24
TORSDOF 6
ENDMDL
MODEL 4
REMARK VINA RESULT:      -9.8      3.414      7.008
REMARK  Name = 11574606
REMARK  6 active torsions:
REMARK  status: ('A' for Active; 'I' for Inactive)
REMARK    1  A    between atoms: C_5  and  O_24
REMARK    2  A    between atoms: C_7  and  N_10
REMARK    3  A    between atoms: N_10  and  C_12
REMARK    4  A    between atoms: C_15  and  S_18
REMARK    5  A    between atoms: S_18  and  N_21
REMARK    6  A    between atoms: O_24  and  C_25
REMARK                            x       y       z     vdW  Elec       q    Type
REMARK                         _______ _______ _______ _____ _____    ______ ____
ROOT
ATOM      1  N   UNL     1      31.631 -23.073 -16.228  0.00  0.00    -0.299 NA
ATOM      2  N   UNL     1      32.216 -24.525 -14.402  0.00  0.00    -0.106 N 
ATOM      3  N   UNL     1      31.584 -25.341 -13.518  0.00  0.00    -0.139 NA
ATOM      4  N   UNL     1      30.063 -24.372 -14.909  0.00  0.00    -0.145 NA
ATOM      5  C   UNL     1      32.902 -22.839 -16.318  0.00  0.00    +0.291 C 
ATOM      6  C   UNL     1      33.986 -23.399 -15.483  0.00  0.00    +0.105 C 
ATOM      7  C   UNL     1      33.587 -24.251 -14.523  0.00  0.00    +0.142 C 
ATOM      8  C   UNL     1      31.262 -23.942 -15.245  0.00  0.00    +0.178 C 
ATOM      9  C   UNL     1      30.309 -25.209 -13.870  0.00  0.00    +0.230 C 
ENDROOT
BRANCH   7  10
ATOM     10  N   UNL     1      34.435 -24.873 -13.651  0.00  0.00    -0.299 N 
ATOM     11  H   UNL     1      34.020 -25.241 -12.837  0.00  0.00    +0.153 HD
BRANCH  10  12
ATOM     12  C   UNL     1      35.818 -25.053 -13.764  0.00  0.00    +0.049 C 
ATOM     13  C   UNL     1      36.702 -24.191 -13.103  0.00  0.00    +0.016 C 
ATOM     14  C   UNL     1      36.335 -26.099 -14.539  0.00  0.00    +0.016 C 
ATOM     15  C   UNL     1      38.587 -25.415 -13.991  0.00  0.00    +0.122 C 
ATOM     16  C   UNL     1      38.081 -24.371 -13.216  0.00  0.00    +0.021 C 
ATOM     17  C   UNL     1      37.713 -26.278 -14.652  0.00  0.00    +0.021 C 
BRANCH  15  18
ATOM     18  S   UNL     1      40.312 -25.640 -14.133  0.00  0.00    +0.057 S 
ATOM     19  O   UNL     1      40.963 -24.358 -13.900  0.00  0.00    -0.153 OA
ATOM     20  O   UNL     1      40.695 -26.800 -13.341  0.00  0.00    -0.153 OA
BRANCH  18  21
ATOM     21  N   UNL     1      40.453 -26.037 -15.789  0.00  0.00    -0.203 NA
ATOM     22  H   UNL     1      40.213 -25.222 -16.356  0.00  0.00    +0.144 HD
ATOM     23  H   UNL     1      39.817 -26.803 -16.011  0.00  0.00    +0.144 HD
ENDBRANCH  18  21
ENDBRANCH  15  18
ENDBRANCH  10  12
ENDBRANCH   7  10
BRANCH   5  24
ATOM     24  O   UNL     1      33.368 -21.990 -17.264  0.00  0.00    -0.455 OA
BRANCH  24  25
ATOM     25  C   UNL     1      33.514 -22.636 -18.528  0.00  0.00    +0.169 C 
ATOM     26  C   UNL     1      32.667 -21.916 -19.578  0.00  0.00    +0.044 C 
ATOM     27  C   UNL     1      34.995 -22.643 -18.907  0.00  0.00    +0.044 C 
ATOM     28  C   UNL     1      33.195 -20.512 -19.879  0.00  0.00    +0.004 C 
ATOM     29  C   UNL     1      35.519 -21.240 -19.212  0.00  0.00    +0.004 C 
ATOM     30  C   UNL     1      34.671 -20.539 -20.268  0.00  0.00    +0.000 C 
ENDBRANCH  24  25
ENDBRANCH   5  24
TORSDOF 6
ENDMDL
MODEL 5
REMARK VINA RESULT:      -9.4      2.289      4.516
REMARK  Name = 11574606
REMARK  6 active torsions:
REMARK  status: ('A' for Active; 'I' for Inactive)
REMARK    1  A    between atoms: C_5  and  O_24
REMARK    2  A    between atoms: C_7  and  N_10
REMARK    3  A    between atoms: N_10  and  C_12
REMARK    4  A    between atoms: C_15  and  S_18
REMARK    5  A    between atoms: S_18  and  N_21
REMARK    6  A    between atoms: O_24  and  C_25
REMARK                            x       y       z     vdW  Elec       q    Type
REMARK                         _______ _______ _______ _____ _____    ______ ____
ROOT
ATOM      1  N   UNL     1      33.569 -23.238 -14.957  0.00  0.00    -0.299 NA
ATOM      2  N   UNL     1      35.345 -22.684 -16.481  0.00  0.00    -0.106 N 
ATOM      3  N   UNL     1      36.662 -22.354 -16.421  0.00  0.00    -0.139 NA
ATOM      4  N   UNL     1      35.849 -22.704 -14.322  0.00  0.00    -0.145 NA
ATOM      5  C   UNL     1      32.831 -23.353 -16.014  0.00  0.00    +0.291 C 
ATOM      6  C   UNL     1      33.234 -23.154 -17.424  0.00  0.00    +0.105 C 
ATOM      7  C   UNL     1      34.521 -22.815 -17.609  0.00  0.00    +0.142 C 
ATOM      8  C   UNL     1      34.869 -22.894 -15.182  0.00  0.00    +0.178 C 
ATOM      9  C   UNL     1      36.904 -22.383 -15.114  0.00  0.00    +0.230 C 
ENDROOT
BRANCH   7  10
ATOM     10  N   UNL     1      35.084 -22.589 -18.833  0.00  0.00    -0.299 N 
ATOM     11  H   UNL     1      35.547 -23.357 -19.241  0.00  0.00    +0.153 HD
BRANCH  10  12
ATOM     12  C   UNL     1      35.089 -21.407 -19.582  0.00  0.00    +0.049 C 
ATOM     13  C   UNL     1      33.892 -20.879 -20.080  0.00  0.00    +0.016 C 
ATOM     14  C   UNL     1      36.292 -20.737 -19.841  0.00  0.00    +0.016 C 
ATOM     15  C   UNL     1      35.099 -19.040 -21.080  0.00  0.00    +0.122 C 
ATOM     16  C   UNL     1      33.897 -19.700 -20.826  0.00  0.00    +0.021 C 
ATOM     17  C   UNL     1      36.297 -19.559 -20.587  0.00  0.00    +0.021 C 
BRANCH  15  18
ATOM     18  S   UNL     1      35.107 -17.566 -22.014  0.00  0.00    +0.057 S 
ATOM     19  O   UNL     1      34.262 -17.760 -23.186  0.00  0.00    -0.153 OA
ATOM     20  O   UNL     1      34.852 -16.447 -21.117  0.00  0.00    -0.153 OA
BRANCH  18  21
ATOM     21  N   UNL     1      36.739 -17.506 -22.516  0.00  0.00    -0.203 NA
ATOM     22  H   UNL     1      37.017 -16.534 -22.653  0.00  0.00    +0.144 HD
ATOM     23  H   UNL     1      36.844 -18.016 -23.393  0.00  0.00    +0.144 HD
ENDBRANCH  18  21
ENDBRANCH  15  18
ENDBRANCH  10  12
ENDBRANCH   7  10
BRANCH   5  24
ATOM     24  O   UNL     1      31.525 -23.691 -15.896  0.00  0.00    -0.455 OA
BRANCH  24  25
ATOM     25  C   UNL     1      30.993 -23.305 -14.629  0.00  0.00    +0.169 C 
ATOM     26  C   UNL     1      29.580 -22.749 -14.809  0.00  0.00    +0.044 C 
ATOM     27  C   UNL     1      31.007 -24.520 -13.701  0.00  0.00    +0.044 C 
ATOM     28  C   UNL     1      28.589 -23.828 -15.252  0.00  0.00    +0.004 C 
ATOM     29  C   UNL     1      30.013 -25.594 -14.143  0.00  0.00    +0.004 C 
ATOM     30  C   UNL     1      28.607 -25.027 -14.307  0.00  0.00    +0.000 C 
ENDBRANCH  24  25
ENDBRANCH   5  24
TORSDOF 6
ENDMDL
MODEL 6
REMARK VINA RESULT:      -9.4      5.237     10.736
REMARK  Name = 11574606
REMARK  6 active torsions:
REMARK  status: ('A' for Active; 'I' for Inactive)
REMARK    1  A    between atoms: C_5  and  O_24
REMARK    2  A    between atoms: C_7  and  N_10
REMARK    3  A    between atoms: N_10  and  C_12
REMARK    4  A    between atoms: C_15  and  S_18
REMARK    5  A    between atoms: S_18  and  N_21
REMARK    6  A    between atoms: O_24  and  C_25
REMARK                            x       y       z     vdW  Elec       q    Type
REMARK                         _______ _______ _______ _____ _____    ______ ____
ROOT
ATOM      1  N   UNL     1      33.906 -16.220 -24.341  0.00  0.00    -0.299 NA
ATOM      2  N   UNL     1      34.745 -18.269 -23.401  0.00  0.00    -0.106 N 
ATOM      3  N   UNL     1      34.739 -19.595 -23.700  0.00  0.00    -0.139 NA
ATOM      4  N   UNL     1      33.616 -18.429 -25.303  0.00  0.00    -0.145 NA
ATOM      5  C   UNL     1      34.450 -15.645 -23.316  0.00  0.00    +0.291 C 
ATOM      6  C   UNL     1      35.201 -16.282 -22.213  0.00  0.00    +0.105 C 
ATOM      7  C   UNL     1      35.324 -17.618 -22.302  0.00  0.00    +0.142 C 
ATOM      8  C   UNL     1      34.051 -17.575 -24.399  0.00  0.00    +0.178 C 
ATOM      9  C   UNL     1      34.055 -19.627 -24.840  0.00  0.00    +0.230 C 
ENDROOT
BRANCH   7  10
ATOM     10  N   UNL     1      35.981 -18.388 -21.384  0.00  0.00    -0.299 N 
ATOM     11  H   UNL     1      36.922 -18.152 -21.221  0.00  0.00    +0.153 HD
BRANCH  10  12
ATOM     12  C   UNL     1      35.488 -19.470 -20.647  0.00  0.00    +0.049 C 
ATOM     13  C   UNL     1      34.110 -19.708 -20.572  0.00  0.00    +0.016 C 
ATOM     14  C   UNL     1      36.367 -20.330 -19.976  0.00  0.00    +0.016 C 
ATOM     15  C   UNL     1      34.502 -21.638 -19.171  0.00  0.00    +0.122 C 
ATOM     16  C   UNL     1      33.619 -20.788 -19.837  0.00  0.00    +0.021 C 
ATOM     17  C   UNL     1      35.876 -21.409 -19.242  0.00  0.00    +0.021 C 
BRANCH  15  18
ATOM     18  S   UNL     1      33.888 -22.988 -18.251  0.00  0.00    +0.057 S 
ATOM     19  O   UNL     1      33.770 -24.136 -19.142  0.00  0.00    -0.153 OA
ATOM     20  O   UNL     1      34.662 -23.103 -17.024  0.00  0.00    -0.153 OA
BRANCH  18  21
ATOM     21  N   UNL     1      32.321 -22.431 -17.861  0.00  0.00    -0.203 NA
ATOM     22  H   UNL     1      32.108 -22.667 -16.891  0.00  0.00    +0.144 HD
ATOM     23  H   UNL     1      31.639 -22.875 -18.476  0.00  0.00    +0.144 HD
ENDBRANCH  18  21
ENDBRANCH  15  18
ENDBRANCH  10  12
ENDBRANCH   7  10
BRANCH   5  24
ATOM     24  O   UNL     1      34.361 -14.301 -23.168  0.00  0.00    -0.455 OA
BRANCH  24  25
ATOM     25  C   UNL     1      33.160 -13.786 -23.740  0.00  0.00    +0.169 C 
ATOM     26  C   UNL     1      32.309 -13.129 -22.652  0.00  0.00    +0.044 C 
ATOM     27  C   UNL     1      33.528 -12.794 -24.843  0.00  0.00    +0.044 C 
ATOM     28  C   UNL     1      32.962 -11.862 -22.097  0.00  0.00    +0.004 C 
ATOM     29  C   UNL     1      34.177 -11.527 -24.286  0.00  0.00    +0.004 C 
ATOM     30  C   UNL     1      33.312 -10.877 -23.210  0.00  0.00    +0.000 C 
ENDBRANCH  24  25
ENDBRANCH   5  24
TORSDOF 6
ENDMDL
MODEL 7
REMARK VINA RESULT:      -9.3      7.952     11.633
REMARK  Name = 11574606
REMARK  6 active torsions:
REMARK  status: ('A' for Active; 'I' for Inactive)
REMARK    1  A    between atoms: C_5  and  O_24
REMARK    2  A    between atoms: C_7  and  N_10
REMARK    3  A    between atoms: N_10  and  C_12
REMARK    4  A    between atoms: C_15  and  S_18
REMARK    5  A    between atoms: S_18  and  N_21
REMARK    6  A    between atoms: O_24  and  C_25
REMARK                            x       y       z     vdW  Elec       q    Type
REMARK                         _______ _______ _______ _____ _____    ______ ____
ROOT
ATOM      1  N   UNL     1      34.790 -16.230 -24.171  0.00  0.00    -0.299 NA
ATOM      2  N   UNL     1      33.349 -14.313 -24.356  0.00  0.00    -0.106 N 
ATOM      3  N   UNL     1      32.742 -13.597 -25.339  0.00  0.00    -0.139 NA
ATOM      4  N   UNL     1      33.942 -15.306 -26.248  0.00  0.00    -0.145 NA
ATOM      5  C   UNL     1      34.735 -16.023 -22.894  0.00  0.00    +0.291 C 
ATOM      6  C   UNL     1      33.998 -14.957 -22.181  0.00  0.00    +0.105 C 
ATOM      7  C   UNL     1      33.309 -14.113 -22.968  0.00  0.00    +0.142 C 
ATOM      8  C   UNL     1      34.079 -15.355 -24.938  0.00  0.00    +0.178 C 
ATOM      9  C   UNL     1      33.130 -14.235 -26.438  0.00  0.00    +0.230 C 
ENDROOT
BRANCH   7  10
ATOM     10  N   UNL     1      32.566 -13.066 -22.502  0.00  0.00    -0.299 N 
ATOM     11  H   UNL     1      31.736 -13.305 -22.028  0.00  0.00    +0.153 HD
BRANCH  10  12
ATOM     12  C   UNL     1      32.831 -11.696 -22.611  0.00  0.00    +0.049 C 
ATOM     13  C   UNL     1      33.878 -11.239 -23.421  0.00  0.00    +0.016 C 
ATOM     14  C   UNL     1      32.051 -10.765 -21.912  0.00  0.00    +0.016 C 
ATOM     15  C   UNL     1      33.361  -8.954 -22.829  0.00  0.00    +0.122 C 
ATOM     16  C   UNL     1      34.142  -9.873 -23.530  0.00  0.00    +0.021 C 
ATOM     17  C   UNL     1      32.316  -9.401 -22.020  0.00  0.00    +0.021 C 
BRANCH  15  18
ATOM     18  S   UNL     1      33.691  -7.245 -22.964  0.00  0.00    +0.057 S 
ATOM     19  O   UNL     1      35.136  -7.054 -22.949  0.00  0.00    -0.153 OA
ATOM     20  O   UNL     1      32.902  -6.706 -24.062  0.00  0.00    -0.153 OA
BRANCH  18  21
ATOM     21  N   UNL     1      33.044  -6.671 -21.491  0.00  0.00    -0.203 NA
ATOM     22  H   UNL     1      33.529  -7.116 -20.710  0.00  0.00    +0.144 HD
ATOM     23  H   UNL     1      32.050  -6.896 -21.445  0.00  0.00    +0.144 HD
ENDBRANCH  18  21
ENDBRANCH  15  18
ENDBRANCH  10  12
ENDBRANCH   7  10
BRANCH   5  24
ATOM     24  O   UNL     1      35.407 -16.838 -22.046  0.00  0.00    -0.455 OA
BRANCH  24  25
ATOM     25  C   UNL     1      35.736 -18.082 -22.660  0.00  0.00    +0.169 C 
ATOM     26  C   UNL     1      37.042 -18.620 -22.073  0.00  0.00    +0.044 C 
ATOM     27  C   UNL     1      34.578 -19.057 -22.445  0.00  0.00    +0.044 C 
ATOM     28  C   UNL     1      36.889 -19.024 -20.606  0.00  0.00    +0.004 C 
ATOM     29  C   UNL     1      34.431 -19.462 -20.979  0.00  0.00    +0.004 C 
ATOM     30  C   UNL     1      35.738 -20.006 -20.411  0.00  0.00    +0.000 C 
ENDBRANCH  24  25
ENDBRANCH   5  24
TORSDOF 6
ENDMDL
MODEL 8
REMARK VINA RESULT:      -9.3      3.215      8.307
REMARK  Name = 11574606
REMARK  6 active torsions:
REMARK  status: ('A' for Active; 'I' for Inactive)
REMARK    1  A    between atoms: C_5  and  O_24
REMARK    2  A    between atoms: C_7  and  N_10
REMARK    3  A    between atoms: N_10  and  C_12
REMARK    4  A    between atoms: C_15  and  S_18
REMARK    5  A    between atoms: S_18  and  N_21
REMARK    6  A    between atoms: O_24  and  C_25
REMARK                            x       y       z     vdW  Elec       q    Type
REMARK                         _______ _______ _______ _____ _____    ______ ____
ROOT
ATOM      1  N   UNL     1      34.088 -21.598 -19.350  0.00  0.00    -0.299 NA
ATOM      2  N   UNL     1      34.947 -22.611 -17.345  0.00  0.00    -0.106 N 
ATOM      3  N   UNL     1      34.486 -23.379 -16.323  0.00  0.00    -0.139 NA
ATOM      4  N   UNL     1      32.800 -22.937 -17.790  0.00  0.00    -0.145 NA
ATOM      5  C   UNL     1      35.291 -21.152 -19.521  0.00  0.00    +0.291 C 
ATOM      6  C   UNL     1      36.468 -21.365 -18.650  0.00  0.00    +0.105 C 
ATOM      7  C   UNL     1      36.242 -22.113 -17.557  0.00  0.00    +0.142 C 
ATOM      8  C   UNL     1      33.895 -22.353 -18.231  0.00  0.00    +0.178 C 
ATOM      9  C   UNL     1      33.206 -23.541 -16.644  0.00  0.00    +0.230 C 
ENDROOT
BRANCH   7  10
ATOM     10  N   UNL     1      37.198 -22.424 -16.631  0.00  0.00    -0.299 N 
ATOM     11  H   UNL     1      38.120 -22.173 -16.866  0.00  0.00    +0.153 HD
BRANCH  10  12
ATOM     12  C   UNL     1      37.035 -23.053 -15.392  0.00  0.00    +0.049 C 
ATOM     13  C   UNL     1      37.618 -24.303 -15.149  0.00  0.00    +0.016 C 
ATOM     14  C   UNL     1      36.286 -22.440 -14.379  0.00  0.00    +0.016 C 
ATOM     15  C   UNL     1      36.707 -24.312 -12.911  0.00  0.00    +0.122 C 
ATOM     16  C   UNL     1      37.455 -24.930 -13.913  0.00  0.00    +0.021 C 
ATOM     17  C   UNL     1      36.123 -23.068 -13.144  0.00  0.00    +0.021 C 
BRANCH  15  18
ATOM     18  S   UNL     1      36.502 -25.097 -11.365  0.00  0.00    +0.057 S 
ATOM     19  O   UNL     1      36.901 -26.492 -11.502  0.00  0.00    -0.153 OA
ATOM     20  O   UNL     1      37.116 -24.267 -10.339  0.00  0.00    -0.153 OA
BRANCH  18  21
ATOM     21  N   UNL     1      34.805 -25.025 -11.186  0.00  0.00    -0.203 NA
ATOM     22  H   UNL     1      34.567 -24.340 -10.467  0.00  0.00    +0.144 HD
ATOM     23  H   UNL     1      34.452 -25.942 -10.911  0.00  0.00    +0.144 HD
ENDBRANCH  18  21
ENDBRANCH  15  18
ENDBRANCH  10  12
ENDBRANCH   7  10
BRANCH   5  24
ATOM     24  O   UNL     1      35.584 -20.391 -20.603  0.00  0.00    -0.455 OA
BRANCH  24  25
ATOM     25  C   UNL     1      34.636 -19.340 -20.781  0.00  0.00    +0.169 C 
ATOM     26  C   UNL     1      35.360 -17.994 -20.833  0.00  0.00    +0.044 C 
ATOM     27  C   UNL     1      33.846 -19.605 -22.063  0.00  0.00    +0.044 C 
ATOM     28  C   UNL     1      36.225 -17.854 -22.087  0.00  0.00    +0.004 C 
ATOM     29  C   UNL     1      34.711 -19.460 -23.314  0.00  0.00    +0.004 C 
ATOM     30  C   UNL     1      35.418 -18.108 -23.357  0.00  0.00    +0.000 C 
ENDBRANCH  24  25
ENDBRANCH   5  24
TORSDOF 6
ENDMDL
MODEL 9
REMARK VINA RESULT:      -9.3      3.935      6.926
REMARK  Name = 11574606
REMARK  6 active torsions:
REMARK  status: ('A' for Active; 'I' for Inactive)
REMARK    1  A    between atoms: C_5  and  O_24
REMARK    2  A    between atoms: C_7  and  N_10
REMARK    3  A    between atoms: N_10  and  C_12
REMARK    4  A    between atoms: C_15  and  S_18
REMARK    5  A    between atoms: S_18  and  N_21
REMARK    6  A    between atoms: O_24  and  C_25
REMARK                            x       y       z     vdW  Elec       q    Type
REMARK                         _______ _______ _______ _____ _____    ______ ____
ROOT
ATOM      1  N   UNL     1      36.864 -23.812 -13.948  0.00  0.00    -0.299 NA
ATOM      2  N   UNL     1      35.068 -24.543 -12.525  0.00  0.00    -0.106 N 
ATOM      3  N   UNL     1      34.895 -24.923 -11.232  0.00  0.00    -0.139 NA
ATOM      4  N   UNL     1      37.080 -24.396 -11.603  0.00  0.00    -0.145 NA
ATOM      5  C   UNL     1      35.965 -23.740 -14.877  0.00  0.00    +0.291 C 
ATOM      6  C   UNL     1      34.523 -24.052 -14.767  0.00  0.00    +0.105 C 
ATOM      7  C   UNL     1      34.116 -24.455 -13.551  0.00  0.00    +0.142 C 
ATOM      8  C   UNL     1      36.416 -24.225 -12.729  0.00  0.00    +0.178 C 
ATOM      9  C   UNL     1      36.124 -24.814 -10.735  0.00  0.00    +0.230 C 
ENDROOT
BRANCH   7  10
ATOM     10  N   UNL     1      32.827 -24.788 -13.248  0.00  0.00    -0.299 N 
ATOM     11  H   UNL     1      32.709 -25.389 -12.476  0.00  0.00    +0.153 HD
BRANCH  10  12
ATOM     12  C   UNL     1      31.652 -24.388 -13.893  0.00  0.00    +0.049 C 
ATOM     13  C   UNL     1      30.601 -25.294 -14.080  0.00  0.00    +0.016 C 
ATOM     14  C   UNL     1      31.512 -23.073 -14.359  0.00  0.00    +0.016 C 
ATOM     15  C   UNL     1      29.299 -23.583 -15.185  0.00  0.00    +0.122 C 
ATOM     16  C   UNL     1      29.429 -24.893 -14.723  0.00  0.00    +0.021 C 
ATOM     17  C   UNL     1      30.341 -22.674 -15.002  0.00  0.00    +0.021 C 
BRANCH  15  18
ATOM     18  S   UNL     1      27.834 -23.082 -15.990  0.00  0.00    +0.057 S 
ATOM     19  O   UNL     1      26.768 -23.007 -15.000  0.00  0.00    -0.153 OA
ATOM     20  O   UNL     1      28.134 -21.922 -16.818  0.00  0.00    -0.153 OA
BRANCH  18  21
ATOM     21  N   UNL     1      27.547 -24.423 -17.008  0.00  0.00    -0.203 NA
ATOM     22  H   UNL     1      28.409 -24.959 -17.116  0.00  0.00    +0.144 HD
ATOM     23  H   UNL     1      27.234 -24.096 -17.922  0.00  0.00    +0.144 HD
ENDBRANCH  18  21
ENDBRANCH  15  18
ENDBRANCH  10  12
ENDBRANCH   7  10
BRANCH   5  24
ATOM     24  O   UNL     1      36.311 -23.340 -16.124  0.00  0.00    -0.455 OA
BRANCH  24  25
ATOM     25  C   UNL     1      35.824 -22.030 -16.412  0.00  0.00    +0.169 C 
ATOM     26  C   UNL     1      36.789 -21.316 -17.360  0.00  0.00    +0.044 C 
ATOM     27  C   UNL     1      34.425 -22.148 -17.017  0.00  0.00    +0.044 C 
ATOM     28  C   UNL     1      36.811 -21.957 -18.749  0.00  0.00    +0.004 C 
ATOM     29  C   UNL     1      34.450 -22.784 -18.407  0.00  0.00    +0.004 C 
ATOM     30  C   UNL     1      35.408 -22.055 -19.343  0.00  0.00    +0.000 C 
ENDBRANCH  24  25
ENDBRANCH   5  24
TORSDOF 6
ENDMDL
