MODEL 1
REMARK VINA RESULT:     -13.2      0.000      0.000
REMARK  Name = 10074640
REMARK  6 active torsions:
REMARK  status: ('A' for Active; 'I' for Inactive)
REMARK    1  A    between atoms: N_2  and  C_5
REMARK    2  A    between atoms: C_3  and  C_30
REMARK    3  A    between atoms: C_6  and  N_13
REMARK    4  A    between atoms: C_16  and  C_20
REMARK    5  A    between atoms: C_25  and  C_31
REMARK    6  A    between atoms: C_31  and  N_32
REMARK                            x       y       z     vdW  Elec       q    Type
REMARK                         _______ _______ _______ _____ _____    ______ ____
ROOT
ATOM      1  O   UNL     1      33.775 -23.942 -18.571  0.00  0.00    -0.270 OA
ATOM      2  N   UNL     1      33.154 -22.259 -17.060  0.00  0.00    -0.280 N 
ATOM      3  C   UNL     1      33.716 -22.745 -18.248  0.00  0.00    +0.249 C 
ATOM      4  H   UNL     1      33.180 -21.281 -16.943  0.00  0.00    +0.155 HD
ENDROOT
BRANCH   2   5
ATOM      5  C   UNL     1      32.553 -22.989 -16.006  0.00  0.00    +0.052 C 
ATOM      6  C   UNL     1      32.630 -23.834 -13.764  0.00  0.00    +0.048 C 
ATOM      7  C   UNL     1      33.223 -23.116 -14.802  0.00  0.00    +0.029 C 
ATOM      8  C   UNL     1      31.375 -24.414 -13.945  0.00  0.00    -0.008 C 
ATOM      9  C   UNL     1      31.306 -23.558 -16.203  0.00  0.00    +0.014 C 
ATOM     10  C   UNL     1      30.712 -24.277 -15.166  0.00  0.00    -0.002 C 
ATOM     11  C   UNL     1      30.717 -25.189 -12.851  0.00  0.00    +0.032 C 
BRANCH   6  13
ATOM     12  S   UNL     1      35.129 -24.522 -10.672  0.00  0.00    -0.059 S 
ATOM     13  N   UNL     1      33.314 -23.964 -12.535  0.00  0.00    -0.283 N 
ATOM     14  N   UNL     1      35.543 -24.354 -13.219  0.00  0.00    -0.384 NA
ATOM     15  C   UNL     1      34.626 -24.258 -12.288  0.00  0.00    +0.211 C 
ATOM     16  C   UNL     1      36.749 -24.663 -12.618  0.00  0.00    +0.124 C 
ATOM     17  C   UNL     1      36.722 -24.793 -11.246  0.00  0.00    +0.125 C 
ATOM     18  H   UNL     1      32.761 -23.819 -11.733  0.00  0.00    +0.155 HD
BRANCH  16  20
ATOM     19  N   UNL     1      39.275 -24.208 -15.306  0.00  0.00    -0.242 NA
ATOM     20  C   UNL     1      37.948 -24.833 -13.386  0.00  0.00    +0.046 C 
ATOM     21  C   UNL     1      38.924 -25.743 -12.997  0.00  0.00    +0.005 C 
ATOM     22  C   UNL     1      38.168 -24.096 -14.538  0.00  0.00    +0.101 C 
ATOM     23  C   UNL     1      40.076 -25.887 -13.762  0.00  0.00    +0.021 C 
ATOM     24  C   UNL     1      40.202 -25.102 -14.897  0.00  0.00    +0.099 C 
ENDBRANCH  16  20
ENDBRANCH   6  13
ENDBRANCH   2   5
BRANCH   3  30
ATOM     25  C   UNL     1      35.379 -19.835 -20.829  0.00  0.00    -0.043 C 
ATOM     26  C   UNL     1      36.221 -20.660 -20.096  0.00  0.00    -0.006 C 
ATOM     27  C   UNL     1      33.999 -19.952 -20.729  0.00  0.00    -0.006 C 
ATOM     28  C   UNL     1      35.672 -21.620 -19.245  0.00  0.00    +0.004 C 
ATOM     29  C   UNL     1      33.451 -20.911 -19.879  0.00  0.00    +0.004 C 
ATOM     30  C   UNL     1      34.287 -21.745 -19.137  0.00  0.00    +0.054 C 
BRANCH  25  31
ATOM     31  C   UNL     1      35.971 -18.800 -21.749  0.00  0.00    -0.050 C 
BRANCH  31  32
ATOM     32  N   UNL     1      34.942 -18.111 -22.525  0.00  0.00    +0.387 N 
ATOM     33  N   UNL     1      34.022 -16.586 -24.803  0.00  0.00    +0.383 N 
ATOM     34  C   UNL     1      35.264 -16.686 -22.668  0.00  0.00    -0.100 C 
ATOM     35  C   UNL     1      34.779 -18.734 -23.844  0.00  0.00    -0.100 C 
ATOM     36  C   UNL     1      34.187 -15.963 -23.484  0.00  0.00    -0.101 C 
ATOM     37  C   UNL     1      33.701 -18.012 -24.659  0.00  0.00    -0.101 C 
ATOM     38  C   UNL     1      32.991 -15.898 -25.578  0.00  0.00    -0.101 C 
ATOM     39  H   UNL     1      34.059 -18.192 -22.020  0.00  0.00    -0.079 HD
ATOM     40  H   UNL     1      34.903 -16.504 -25.309  0.00  0.00    -0.080 HD
ENDBRANCH  31  32
ENDBRANCH  25  31
ENDBRANCH   3  30
TORSDOF 6
ENDMDL
MODEL 2
REMARK VINA RESULT:     -10.7      7.037     11.750
REMARK  Name = 10074640
REMARK  6 active torsions:
REMARK  status: ('A' for Active; 'I' for Inactive)
REMARK    1  A    between atoms: N_2  and  C_5
REMARK    2  A    between atoms: C_3  and  C_30
REMARK    3  A    between atoms: C_6  and  N_13
REMARK    4  A    between atoms: C_16  and  C_20
REMARK    5  A    between atoms: C_25  and  C_31
REMARK    6  A    between atoms: C_31  and  N_32
REMARK                            x       y       z     vdW  Elec       q    Type
REMARK                         _______ _______ _______ _____ _____    ______ ____
ROOT
ATOM      1  O   UNL     1      34.127 -12.047 -25.494  0.00  0.00    -0.270 OA
ATOM      2  N   UNL     1      33.714 -13.085 -23.430  0.00  0.00    -0.280 N 
ATOM      3  C   UNL     1      33.846 -11.983 -24.286  0.00  0.00    +0.249 C 
ATOM      4  H   UNL     1      33.487 -12.876 -22.495  0.00  0.00    +0.155 HD
ENDROOT
BRANCH   2   5
ATOM      5  C   UNL     1      33.865 -14.460 -23.735  0.00  0.00    +0.052 C 
ATOM      6  C   UNL     1      35.095 -16.507 -23.521  0.00  0.00    +0.048 C 
ATOM      7  C   UNL     1      34.949 -15.152 -23.222  0.00  0.00    +0.029 C 
ATOM      8  C   UNL     1      34.156 -17.149 -24.328  0.00  0.00    -0.008 C 
ATOM      9  C   UNL     1      32.923 -15.082 -24.537  0.00  0.00    +0.014 C 
ATOM     10  C   UNL     1      33.070 -16.436 -24.837  0.00  0.00    -0.002 C 
ATOM     11  C   UNL     1      34.290 -18.597 -24.665  0.00  0.00    +0.032 C 
BRANCH   6  13
ATOM     12  S   UNL     1      37.763 -18.757 -21.497  0.00  0.00    -0.059 S 
ATOM     13  N   UNL     1      36.200 -17.213 -22.998  0.00  0.00    -0.283 N 
ATOM     14  N   UNL     1      35.178 -18.792 -21.565  0.00  0.00    -0.384 NA
ATOM     15  C   UNL     1      36.241 -18.212 -22.065  0.00  0.00    +0.211 C 
ATOM     16  C   UNL     1      35.586 -19.750 -20.656  0.00  0.00    +0.124 C 
ATOM     17  C   UNL     1      36.948 -19.877 -20.485  0.00  0.00    +0.125 C 
ATOM     18  H   UNL     1      37.076 -16.945 -23.361  0.00  0.00    +0.155 HD
BRANCH  16  20
ATOM     19  N   UNL     1      32.334 -21.102 -19.468  0.00  0.00    -0.242 NA
ATOM     20  C   UNL     1      34.640 -20.556 -19.941  0.00  0.00    +0.046 C 
ATOM     21  C   UNL     1      35.064 -21.541 -19.055  0.00  0.00    +0.005 C 
ATOM     22  C   UNL     1      33.277 -20.377 -20.111  0.00  0.00    +0.101 C 
ATOM     23  C   UNL     1      34.124 -22.307 -18.376  0.00  0.00    +0.021 C 
ATOM     24  C   UNL     1      32.783 -22.050 -18.616  0.00  0.00    +0.099 C 
ENDBRANCH  16  20
ENDBRANCH   6  13
ENDBRANCH   2   5
BRANCH   3  30
ATOM     25  C   UNL     1      33.292  -8.185 -22.509  0.00  0.00    -0.043 C 
ATOM     26  C   UNL     1      32.353  -9.184 -22.292  0.00  0.00    -0.006 C 
ATOM     27  C   UNL     1      34.410  -8.413 -23.299  0.00  0.00    -0.006 C 
ATOM     28  C   UNL     1      32.537 -10.437 -22.878  0.00  0.00    +0.004 C 
ATOM     29  C   UNL     1      34.593  -9.665 -23.884  0.00  0.00    +0.004 C 
ATOM     30  C   UNL     1      33.657 -10.677 -23.674  0.00  0.00    +0.054 C 
BRANCH  25  31
ATOM     31  C   UNL     1      33.095  -6.833 -21.874  0.00  0.00    -0.050 C 
BRANCH  31  32
ATOM     32  N   UNL     1      32.266  -5.959 -22.703  0.00  0.00    +0.387 N 
ATOM     33  N   UNL     1      31.545  -3.392 -23.821  0.00  0.00    +0.383 N 
ATOM     34  C   UNL     1      31.615  -4.929 -21.886  0.00  0.00    -0.100 C 
ATOM     35  C   UNL     1      33.064  -5.340 -23.768  0.00  0.00    -0.100 C 
ATOM     36  C   UNL     1      30.748  -4.011 -22.754  0.00  0.00    -0.101 C 
ATOM     37  C   UNL     1      32.196  -4.424 -24.637  0.00  0.00    -0.101 C 
ATOM     38  C   UNL     1      30.715  -2.521 -24.650  0.00  0.00    -0.101 C 
ATOM     39  H   UNL     1      31.541  -6.532 -23.136  0.00  0.00    -0.079 HD
ATOM     40  H   UNL     1      32.269  -2.819 -23.389  0.00  0.00    -0.080 HD
ENDBRANCH  31  32
ENDBRANCH  25  31
ENDBRANCH   3  30
TORSDOF 6
ENDMDL
