MODEL 1
REMARK VINA RESULT:     -13.0      0.000      0.000
REMARK  Name = 10138993
REMARK  4 active torsions:
REMARK  status: ('A' for Active; 'I' for Inactive)
REMARK    1  A    between atoms: C_5  and  N_18
REMARK    2  A    between atoms: C_12  and  C_22
REMARK    3  A    between atoms: C_22  and  C_26
REMARK    4  A    between atoms: C_23  and  N_29
REMARK                            x       y       z     vdW  Elec       q    Type
REMARK                         _______ _______ _______ _____ _____    ______ ____
ROOT
ATOM      1  O   UNL     1      33.089 -21.239 -20.077  0.00  0.00    -0.274 OA
ATOM      2  N   UNL     1      32.000 -23.218 -16.532  0.00  0.00    -0.275 N 
ATOM      3  N   UNL     1      34.568 -21.834 -18.352  0.00  0.00    -0.268 N 
ATOM      4  N   UNL     1      32.420 -22.585 -17.640  0.00  0.00    -0.157 NA
ATOM      5  C   UNL     1      35.370 -23.739 -14.260  0.00  0.00    +0.069 C 
ATOM      6  C   UNL     1      35.372 -23.110 -15.512  0.00  0.00    +0.020 C 
ATOM      7  C   UNL     1      34.187 -24.232 -13.706  0.00  0.00    +0.018 C 
ATOM      8  C   UNL     1      34.155 -22.987 -16.203  0.00  0.00    +0.052 A 
ATOM      9  C   UNL     1      32.993 -23.488 -15.629  0.00  0.00    +0.077 A 
ATOM     10  C   UNL     1      32.968 -24.118 -14.383  0.00  0.00    +0.020 C 
ATOM     11  C   UNL     1      33.721 -22.454 -17.424  0.00  0.00    +0.155 A 
ATOM     12  C   UNL     1      34.209 -21.284 -19.579  0.00  0.00    +0.232 C 
ATOM     13  H   UNL     1      31.059 -23.467 -16.383  0.00  0.00    +0.189 HD
ATOM     14  H   UNL     1      35.520 -21.782 -18.110  0.00  0.00    +0.156 HD
ENDROOT
BRANCH   5  18
ATOM     15  S   UNL     1      37.863 -24.885 -14.204  0.00  0.00    +0.057 S 
ATOM     16  O   UNL     1      37.290 -26.088 -14.775  0.00  0.00    -0.154 OA
ATOM     17  O   UNL     1      38.805 -24.060 -14.931  0.00  0.00    -0.154 OA
ATOM     18  N   UNL     1      36.617 -23.876 -13.528  0.00  0.00    -0.194 N 
ATOM     19  C   UNL     1      38.564 -25.310 -12.616  0.00  0.00    +0.174 C 
ATOM     20  C   UNL     1      38.072 -24.233 -11.663  0.00  0.00    +0.051 C 
ATOM     21  C   UNL     1      36.616 -23.969 -12.040  0.00  0.00    +0.117 C 
ENDBRANCH   5  18
BRANCH  12  22
ATOM     22  C   UNL     1      35.428 -20.703 -20.291  0.00  0.00    +0.112 C 
BRANCH  22  26
ATOM     23  C   UNL     1      34.549 -17.280 -22.753  0.00  0.00    +0.048 C 
ATOM     24  C   UNL     1      34.330 -18.587 -23.228  0.00  0.00    +0.014 C 
ATOM     25  C   UNL     1      35.062 -17.122 -21.452  0.00  0.00    +0.014 C 
ATOM     26  C   UNL     1      35.124 -19.517 -21.143  0.00  0.00    -0.013 C 
ATOM     27  C   UNL     1      34.616 -19.696 -22.431  0.00  0.00    -0.003 C 
ATOM     28  C   UNL     1      35.347 -18.231 -20.655  0.00  0.00    -0.003 C 
BRANCH  23  29
ATOM     29  N   UNL     1      34.262 -16.166 -23.554  0.00  0.00    -0.307 N 
ATOM     30  C   UNL     1      33.801 -13.893 -25.272  0.00  0.00    +0.004 C 
ATOM     31  C   UNL     1      33.677 -13.782 -23.758  0.00  0.00    +0.021 C 
ATOM     32  C   UNL     1      33.469 -15.310 -25.724  0.00  0.00    +0.021 C 
ATOM     33  C   UNL     1      34.544 -14.819 -23.044  0.00  0.00    +0.091 C 
ATOM     34  C   UNL     1      34.340 -16.342 -25.011  0.00  0.00    +0.091 C 
ENDBRANCH  23  29
ENDBRANCH  22  26
ENDBRANCH  12  22
TORSDOF 4
ENDMDL
MODEL 2
REMARK VINA RESULT:     -12.4      1.231      1.422
REMARK  Name = 10138993
REMARK  4 active torsions:
REMARK  status: ('A' for Active; 'I' for Inactive)
REMARK    1  A    between atoms: C_5  and  N_18
REMARK    2  A    between atoms: C_12  and  C_22
REMARK    3  A    between atoms: C_22  and  C_26
REMARK    4  A    between atoms: C_23  and  N_29
REMARK                            x       y       z     vdW  Elec       q    Type
REMARK                         _______ _______ _______ _____ _____    ______ ____
ROOT
ATOM      1  O   UNL     1      32.837 -21.065 -19.796  0.00  0.00    -0.274 OA
ATOM      2  N   UNL     1      31.705 -23.163 -16.333  0.00  0.00    -0.275 N 
ATOM      3  N   UNL     1      34.323 -22.030 -18.254  0.00  0.00    -0.268 N 
ATOM      4  N   UNL     1      32.140 -22.505 -17.421  0.00  0.00    -0.157 NA
ATOM      5  C   UNL     1      35.105 -24.391 -14.403  0.00  0.00    +0.069 C 
ATOM      6  C   UNL     1      35.116 -23.661 -15.598  0.00  0.00    +0.020 C 
ATOM      7  C   UNL     1      33.901 -24.746 -13.790  0.00  0.00    +0.018 C 
ATOM      8  C   UNL     1      33.888 -23.293 -16.172  0.00  0.00    +0.052 A 
ATOM      9  C   UNL     1      32.705 -23.661 -15.542  0.00  0.00    +0.077 A 
ATOM     10  C   UNL     1      32.670 -24.388 -14.349  0.00  0.00    +0.020 C 
ATOM     11  C   UNL     1      33.457 -22.594 -17.308  0.00  0.00    +0.155 A 
ATOM     12  C   UNL     1      33.968 -21.325 -19.400  0.00  0.00    +0.232 C 
ATOM     13  H   UNL     1      30.750 -23.278 -16.125  0.00  0.00    +0.189 HD
ATOM     14  H   UNL     1      35.286 -22.145 -18.090  0.00  0.00    +0.156 HD
ENDROOT
BRANCH   5  18
ATOM     15  S   UNL     1      36.558 -24.541 -12.079  0.00  0.00    +0.057 S 
ATOM     16  O   UNL     1      35.987 -23.271 -11.676  0.00  0.00    -0.154 OA
ATOM     17  O   UNL     1      36.257 -25.775 -11.385  0.00  0.00    -0.154 OA
ATOM     18  N   UNL     1      36.363 -24.782 -13.792  0.00  0.00    -0.194 N 
ATOM     19  C   UNL     1      38.330 -24.343 -12.176  0.00  0.00    +0.174 C 
ATOM     20  C   UNL     1      38.730 -24.969 -13.501  0.00  0.00    +0.051 C 
ATOM     21  C   UNL     1      37.654 -24.558 -14.503  0.00  0.00    +0.117 C 
ENDBRANCH   5  18
BRANCH  12  22
ATOM     22  C   UNL     1      35.210 -20.875 -20.166  0.00  0.00    +0.112 C 
BRANCH  22  26
ATOM     23  C   UNL     1      34.563 -17.440 -22.684  0.00  0.00    +0.048 C 
ATOM     24  C   UNL     1      34.213 -18.733 -23.119  0.00  0.00    +0.014 C 
ATOM     25  C   UNL     1      35.130 -17.301 -21.403  0.00  0.00    +0.014 C 
ATOM     26  C   UNL     1      34.986 -19.685 -21.038  0.00  0.00    -0.013 C 
ATOM     27  C   UNL     1      34.422 -19.845 -22.304  0.00  0.00    -0.003 C 
ATOM     28  C   UNL     1      35.340 -18.414 -20.588  0.00  0.00    -0.003 C 
BRANCH  23  29
ATOM     29  N   UNL     1      34.351 -16.323 -23.503  0.00  0.00    -0.307 N 
ATOM     30  C   UNL     1      34.046 -14.050 -25.255  0.00  0.00    +0.004 C 
ATOM     31  C   UNL     1      33.900 -13.914 -23.745  0.00  0.00    +0.021 C 
ATOM     32  C   UNL     1      33.646 -15.453 -25.697  0.00  0.00    +0.021 C 
ATOM     33  C   UNL     1      34.695 -14.987 -23.002  0.00  0.00    +0.091 C 
ATOM     34  C   UNL     1      34.447 -16.520 -24.956  0.00  0.00    +0.091 C 
ENDBRANCH  23  29
ENDBRANCH  22  26
ENDBRANCH  12  22
TORSDOF 4
ENDMDL
MODEL 3
REMARK VINA RESULT:     -10.0      2.700      3.739
REMARK  Name = 10138993
REMARK  4 active torsions:
REMARK  status: ('A' for Active; 'I' for Inactive)
REMARK    1  A    between atoms: C_5  and  N_18
REMARK    2  A    between atoms: C_12  and  C_22
REMARK    3  A    between atoms: C_22  and  C_26
REMARK    4  A    between atoms: C_23  and  N_29
REMARK                            x       y       z     vdW  Elec       q    Type
REMARK                         _______ _______ _______ _____ _____    ______ ____
ROOT
ATOM      1  O   UNL     1      37.188 -20.346 -19.925  0.00  0.00    -0.274 OA
ATOM      2  N   UNL     1      37.529 -21.624 -15.935  0.00  0.00    -0.275 N 
ATOM      3  N   UNL     1      35.526 -21.495 -18.727  0.00  0.00    -0.268 N 
ATOM      4  N   UNL     1      37.349 -21.246 -17.211  0.00  0.00    -0.157 NA
ATOM      5  C   UNL     1      34.047 -23.513 -14.886  0.00  0.00    +0.069 C 
ATOM      6  C   UNL     1      34.275 -22.962 -16.153  0.00  0.00    +0.020 C 
ATOM      7  C   UNL     1      35.022 -23.448 -13.888  0.00  0.00    +0.018 C 
ATOM      8  C   UNL     1      35.508 -22.336 -16.401  0.00  0.00    +0.052 A 
ATOM      9  C   UNL     1      36.461 -22.284 -15.390  0.00  0.00    +0.077 A 
ATOM     10  C   UNL     1      36.255 -22.828 -14.120  0.00  0.00    +0.020 C 
ATOM     11  C   UNL     1      36.126 -21.683 -17.475  0.00  0.00    +0.155 A 
ATOM     12  C   UNL     1      36.077 -20.859 -19.836  0.00  0.00    +0.232 C 
ATOM     13  H   UNL     1      38.357 -21.442 -15.435  0.00  0.00    +0.189 HD
ATOM     14  H   UNL     1      34.615 -21.851 -18.834  0.00  0.00    +0.156 HD
ENDROOT
BRANCH   5  18
ATOM     15  S   UNL     1      31.323 -23.219 -14.721  0.00  0.00    +0.057 S 
ATOM     16  O   UNL     1      31.530 -21.898 -14.161  0.00  0.00    -0.154 OA
ATOM     17  O   UNL     1      30.723 -23.418 -16.024  0.00  0.00    -0.154 OA
ATOM     18  N   UNL     1      32.779 -24.165 -14.607  0.00  0.00    -0.194 N 
ATOM     19  C   UNL     1      30.438 -24.195 -13.515  0.00  0.00    +0.174 C 
ATOM     20  C   UNL     1      31.182 -25.518 -13.450  0.00  0.00    +0.051 C 
ATOM     21  C   UNL     1      32.667 -25.171 -13.513  0.00  0.00    +0.117 C 
ENDBRANCH   5  18
BRANCH  12  22
ATOM     22  C   UNL     1      35.099 -20.866 -21.008  0.00  0.00    +0.112 C 
BRANCH  22  26
ATOM     23  C   UNL     1      34.446 -16.987 -22.764  0.00  0.00    +0.048 C 
ATOM     24  C   UNL     1      34.203 -18.164 -23.498  0.00  0.00    +0.014 C 
ATOM     25  C   UNL     1      34.908 -17.113 -21.440  0.00  0.00    +0.014 C 
ATOM     26  C   UNL     1      34.873 -19.522 -21.615  0.00  0.00    -0.013 C 
ATOM     27  C   UNL     1      34.414 -19.420 -22.930  0.00  0.00    -0.003 C 
ATOM     28  C   UNL     1      35.119 -18.369 -20.872  0.00  0.00    -0.003 C 
BRANCH  23  29
ATOM     29  N   UNL     1      34.232 -15.726 -23.335  0.00  0.00    -0.307 N 
ATOM     30  C   UNL     1      33.921 -13.143 -24.585  0.00  0.00    +0.004 C 
ATOM     31  C   UNL     1      33.809 -13.314 -23.075  0.00  0.00    +0.021 C 
ATOM     32  C   UNL     1      33.493 -14.423 -25.292  0.00  0.00    +0.021 C 
ATOM     33  C   UNL     1      34.605 -14.522 -22.583  0.00  0.00    +0.091 C 
ATOM     34  C   UNL     1      34.295 -15.626 -24.800  0.00  0.00    +0.091 C 
ENDBRANCH  23  29
ENDBRANCH  22  26
ENDBRANCH  12  22
TORSDOF 4
ENDMDL
MODEL 4
REMARK VINA RESULT:     -10.0      2.911      4.753
REMARK  Name = 10138993
REMARK  4 active torsions:
REMARK  status: ('A' for Active; 'I' for Inactive)
REMARK    1  A    between atoms: C_5  and  N_18
REMARK    2  A    between atoms: C_12  and  C_22
REMARK    3  A    between atoms: C_22  and  C_26
REMARK    4  A    between atoms: C_23  and  N_29
REMARK                            x       y       z     vdW  Elec       q    Type
REMARK                         _______ _______ _______ _____ _____    ______ ____
ROOT
ATOM      1  O   UNL     1      37.386 -21.580 -18.005  0.00  0.00    -0.274 OA
ATOM      2  N   UNL     1      35.823 -22.665 -14.257  0.00  0.00    -0.275 N 
ATOM      3  N   UNL     1      35.217 -22.399 -17.631  0.00  0.00    -0.268 N 
ATOM      4  N   UNL     1      36.255 -22.338 -15.486  0.00  0.00    -0.157 NA
ATOM      5  C   UNL     1      31.970 -23.954 -14.793  0.00  0.00    +0.069 C 
ATOM      6  C   UNL     1      32.790 -23.515 -15.840  0.00  0.00    +0.020 C 
ATOM      7  C   UNL     1      32.436 -23.977 -13.477  0.00  0.00    +0.018 C 
ATOM      8  C   UNL     1      34.096 -23.095 -15.539  0.00  0.00    +0.052 A 
ATOM      9  C   UNL     1      34.534 -23.127 -14.220  0.00  0.00    +0.077 A 
ATOM     10  C   UNL     1      33.734 -23.561 -13.161  0.00  0.00    +0.020 C 
ATOM     11  C   UNL     1      35.202 -22.603 -16.245  0.00  0.00    +0.155 A 
ATOM     12  C   UNL     1      36.274 -21.917 -18.397  0.00  0.00    +0.232 C 
ATOM     13  H   UNL     1      36.383 -22.579 -13.453  0.00  0.00    +0.189 HD
ATOM     14  H   UNL     1      34.390 -22.622 -18.116  0.00  0.00    +0.156 HD
ENDROOT
BRANCH   5  18
ATOM     15  S   UNL     1      29.423 -23.188 -15.472  0.00  0.00    +0.057 S 
ATOM     16  O   UNL     1      29.579 -22.025 -14.621  0.00  0.00    -0.154 OA
ATOM     17  O   UNL     1      29.305 -23.079 -16.911  0.00  0.00    -0.154 OA
ATOM     18  N   UNL     1      30.616 -24.393 -15.082  0.00  0.00    -0.194 N 
ATOM     19  C   UNL     1      28.054 -24.150 -14.845  0.00  0.00    +0.174 C 
ATOM     20  C   UNL     1      28.558 -25.583 -14.808  0.00  0.00    +0.051 C 
ATOM     21  C   UNL     1      30.000 -25.511 -14.311  0.00  0.00    +0.117 C 
ENDBRANCH   5  18
BRANCH  12  22
ATOM     22  C   UNL     1      35.887 -21.845 -19.873  0.00  0.00    +0.112 C 
BRANCH  22  26
ATOM     23  C   UNL     1      35.027 -17.859 -21.262  0.00  0.00    +0.048 C 
ATOM     24  C   UNL     1      36.348 -18.258 -20.978  0.00  0.00    +0.014 C 
ATOM     25  C   UNL     1      33.996 -18.800 -21.079  0.00  0.00    +0.014 C 
ATOM     26  C   UNL     1      35.589 -20.465 -20.354  0.00  0.00    -0.013 C 
ATOM     27  C   UNL     1      36.626 -19.548 -20.528  0.00  0.00    -0.003 C 
ATOM     28  C   UNL     1      34.274 -20.090 -20.629  0.00  0.00    -0.003 C 
BRANCH  23  29
ATOM     29  N   UNL     1      34.748 -16.563 -21.715  0.00  0.00    -0.307 N 
ATOM     30  C   UNL     1      34.316 -13.876 -22.677  0.00  0.00    +0.004 C 
ATOM     31  C   UNL     1      33.804 -14.324 -21.314  0.00  0.00    +0.021 C 
ATOM     32  C   UNL     1      34.373 -15.063 -23.633  0.00  0.00    +0.021 C 
ATOM     33  C   UNL     1      34.641 -15.468 -20.744  0.00  0.00    +0.091 C 
ATOM     34  C   UNL     1      35.215 -16.200 -23.060  0.00  0.00    +0.091 C 
ENDBRANCH  23  29
ENDBRANCH  22  26
ENDBRANCH  12  22
TORSDOF 4
ENDMDL
