MODEL 1
REMARK VINA RESULT:     -12.1      0.000      0.000
REMARK  Name = 11282283
REMARK  4 active torsions:
REMARK  status: ('A' for Active; 'I' for Inactive)
REMARK    1  A    between atoms: N_3  and  C_21
REMARK    2  A    between atoms: C_21  and  N_22
REMARK    3  A    between atoms: N_22  and  C_24
REMARK    4  A    between atoms: C_24  and  C_27
REMARK                            x       y       z     vdW  Elec       q    Type
REMARK                         _______ _______ _______ _____ _____    ______ ____
ROOT
ATOM      1  O   UNL     1      33.906 -10.066 -23.197  0.00  0.00    -0.466 OA
ATOM      2  N   UNL     1      32.958 -12.651 -22.161  0.00  0.00    -0.290 N 
ATOM      3  N   UNL     1      34.133 -15.184 -22.863  0.00  0.00    -0.288 N 
ATOM      4  N   UNL     1      31.336 -11.359 -20.974  0.00  0.00    -0.230 NA
ATOM      5  N   UNL     1      31.251  -8.924 -21.149  0.00  0.00    -0.245 NA
ATOM      6  C   UNL     1      32.940 -13.775 -21.218  0.00  0.00    +0.113 C 
ATOM      7  C   UNL     1      33.590 -12.848 -23.470  0.00  0.00    +0.113 C 
ATOM      8  C   UNL     1      34.108 -14.722 -21.484  0.00  0.00    +0.114 C 
ATOM      9  C   UNL     1      33.545 -14.320 -23.876  0.00  0.00    +0.114 C 
ATOM     10  C   UNL     1      32.387 -11.426 -21.822  0.00  0.00    +0.152 C 
ATOM     11  C   UNL     1      32.872 -10.242 -22.336  0.00  0.00    +0.258 C 
ATOM     12  C   UNL     1      32.304  -9.022 -21.997  0.00  0.00    +0.106 C 
ATOM     13  C   UNL     1      33.039  -8.030 -22.696  0.00  0.00    +0.051 C 
ATOM     14  C   UNL     1      34.011  -8.723 -23.417  0.00  0.00    +0.141 C 
ATOM     15  C   UNL     1      30.840 -10.129 -20.693  0.00  0.00    +0.251 C 
ATOM     16  C   UNL     1      32.995  -6.629 -22.802  0.00  0.00    +0.004 C 
ATOM     17  C   UNL     1      34.950  -8.109 -24.245  0.00  0.00    +0.037 C 
ATOM     18  C   UNL     1      33.928  -5.986 -23.627  0.00  0.00    +0.000 C 
ATOM     19  C   UNL     1      34.887  -6.716 -24.334  0.00  0.00    +0.003 C 
ENDROOT
BRANCH   3  21
ATOM     20  S   UNL     1      34.511 -17.017 -24.730  0.00  0.00    -0.019 S 
ATOM     21  C   UNL     1      34.685 -16.379 -23.194  0.00  0.00    +0.135 C 
BRANCH  21  22
ATOM     22  N   UNL     1      35.393 -17.043 -22.224  0.00  0.00    -0.312 N 
ATOM     23  H   UNL     1      35.436 -16.623 -21.335  0.00  0.00    +0.149 HD
BRANCH  22  24
ATOM     24  C   UNL     1      36.084 -18.307 -22.388  0.00  0.00    +0.116 C 
BRANCH  24  27
ATOM     25  O   UNL     1      32.764 -20.930 -19.844  0.00  0.00    -0.435 OA
ATOM     26  O   UNL     1      34.461 -22.009 -18.516  0.00  0.00    -0.435 OA
ATOM     27  C   UNL     1      35.683 -19.306 -21.341  0.00  0.00    +0.001 C 
ATOM     28  C   UNL     1      34.336 -19.595 -21.150  0.00  0.00    +0.038 C 
ATOM     29  C   UNL     1      36.676 -19.929 -20.573  0.00  0.00    +0.001 C 
ATOM     30  C   UNL     1      34.017 -20.520 -20.177  0.00  0.00    +0.176 C 
ATOM     31  C   UNL     1      34.987 -21.136 -19.419  0.00  0.00    +0.176 C 
ATOM     32  C   UNL     1      36.328 -20.861 -19.593  0.00  0.00    +0.040 C 
ATOM     33  C   UNL     1      33.052 -21.874 -18.792  0.00  0.00    +0.429 C 
ENDBRANCH  24  27
ENDBRANCH  22  24
ENDBRANCH  21  22
ENDBRANCH   3  21
TORSDOF 4
ENDMDL
MODEL 2
REMARK VINA RESULT:     -11.8      3.173     10.905
REMARK  Name = 11282283
REMARK  4 active torsions:
REMARK  status: ('A' for Active; 'I' for Inactive)
REMARK    1  A    between atoms: N_3  and  C_21
REMARK    2  A    between atoms: C_21  and  N_22
REMARK    3  A    between atoms: N_22  and  C_24
REMARK    4  A    between atoms: C_24  and  C_27
REMARK                            x       y       z     vdW  Elec       q    Type
REMARK                         _______ _______ _______ _____ _____    ______ ____
ROOT
ATOM      1  O   UNL     1      34.264 -15.282 -22.109  0.00  0.00    -0.466 OA
ATOM      2  N   UNL     1      33.052 -12.893 -23.324  0.00  0.00    -0.290 N 
ATOM      3  N   UNL     1      32.245 -10.571 -21.826  0.00  0.00    -0.288 N 
ATOM      4  N   UNL     1      33.276 -14.072 -25.391  0.00  0.00    -0.230 NA
ATOM      5  N   UNL     1      34.241 -16.312 -25.498  0.00  0.00    -0.245 NA
ATOM      6  C   UNL     1      33.077 -11.560 -23.935  0.00  0.00    +0.113 C 
ATOM      7  C   UNL     1      32.607 -13.015 -21.932  0.00  0.00    +0.113 C 
ATOM      8  C   UNL     1      33.256 -10.480 -22.869  0.00  0.00    +0.114 C 
ATOM      9  C   UNL     1      31.658 -11.876 -21.566  0.00  0.00    +0.114 C 
ATOM     10  C   UNL     1      33.440 -14.017 -24.051  0.00  0.00    +0.152 C 
ATOM     11  C   UNL     1      34.006 -15.112 -23.431  0.00  0.00    +0.258 C 
ATOM     12  C   UNL     1      34.394 -16.231 -24.154  0.00  0.00    +0.106 C 
ATOM     13  C   UNL     1      34.927 -17.151 -23.214  0.00  0.00    +0.051 C 
ATOM     14  C   UNL     1      34.825 -16.520 -21.974  0.00  0.00    +0.141 C 
ATOM     15  C   UNL     1      33.681 -15.199 -26.023  0.00  0.00    +0.251 C 
ATOM     16  C   UNL     1      35.483 -18.440 -23.268  0.00  0.00    +0.004 C 
ATOM     17  C   UNL     1      35.243 -17.093 -20.774  0.00  0.00    +0.037 C 
ATOM     18  C   UNL     1      35.911 -19.040 -22.076  0.00  0.00    +0.000 C 
ATOM     19  C   UNL     1      35.792 -18.376 -20.852  0.00  0.00    +0.003 C 
ENDROOT
BRANCH   3  21
ATOM     20  S   UNL     1      31.827  -9.492 -19.449  0.00  0.00    -0.019 S 
ATOM     21  C   UNL     1      31.864  -9.475 -21.122  0.00  0.00    +0.135 C 
BRANCH  21  22
ATOM     22  N   UNL     1      31.513  -8.353 -21.829  0.00  0.00    -0.312 N 
ATOM     23  H   UNL     1      30.864  -8.470 -22.559  0.00  0.00    +0.149 HD
BRANCH  22  24
ATOM     24  C   UNL     1      32.009  -7.010 -21.599  0.00  0.00    +0.116 C 
BRANCH  24  27
ATOM     25  O   UNL     1      32.827  -4.376 -25.694  0.00  0.00    -0.435 OA
ATOM     26  O   UNL     1      35.107  -5.136 -25.867  0.00  0.00    -0.435 OA
ATOM     27  C   UNL     1      32.868  -6.527 -22.731  0.00  0.00    +0.001 C 
ATOM     28  C   UNL     1      32.336  -5.646 -23.667  0.00  0.00    +0.038 C 
ATOM     29  C   UNL     1      34.194  -6.974 -22.825  0.00  0.00    +0.001 C 
ATOM     30  C   UNL     1      33.164  -5.230 -24.689  0.00  0.00    +0.176 C 
ATOM     31  C   UNL     1      34.467  -5.664 -24.788  0.00  0.00    +0.176 C 
ATOM     32  C   UNL     1      35.012  -6.538 -23.869  0.00  0.00    +0.040 C 
ATOM     33  C   UNL     1      34.063  -4.321 -26.435  0.00  0.00    +0.429 C 
ENDBRANCH  24  27
ENDBRANCH  22  24
ENDBRANCH  21  22
ENDBRANCH   3  21
TORSDOF 4
ENDMDL
MODEL 3
REMARK VINA RESULT:     -11.0      2.263      3.456
REMARK  Name = 11282283
REMARK  4 active torsions:
REMARK  status: ('A' for Active; 'I' for Inactive)
REMARK    1  A    between atoms: N_3  and  C_21
REMARK    2  A    between atoms: C_21  and  N_22
REMARK    3  A    between atoms: N_22  and  C_24
REMARK    4  A    between atoms: C_24  and  C_27
REMARK                            x       y       z     vdW  Elec       q    Type
REMARK                         _______ _______ _______ _____ _____    ______ ____
ROOT
ATOM      1  O   UNL     1      32.766 -12.836 -21.656  0.00  0.00    -0.466 OA
ATOM      2  N   UNL     1      34.029 -14.601 -23.643  0.00  0.00    -0.290 N 
ATOM      3  N   UNL     1      34.382 -17.434 -23.271  0.00  0.00    -0.288 N 
ATOM      4  N   UNL     1      34.281 -12.619 -24.954  0.00  0.00    -0.230 NA
ATOM      5  N   UNL     1      33.503 -10.444 -24.163  0.00  0.00    -0.245 NA
ATOM      6  C   UNL     1      34.034 -15.514 -24.791  0.00  0.00    +0.113 C 
ATOM      7  C   UNL     1      34.207 -15.165 -22.300  0.00  0.00    +0.113 C 
ATOM      8  C   UNL     1      33.585 -16.912 -24.371  0.00  0.00    +0.114 C 
ATOM      9  C   UNL     1      34.993 -16.474 -22.364  0.00  0.00    +0.114 C 
ATOM     10  C   UNL     1      33.861 -13.229 -23.824  0.00  0.00    +0.152 C 
ATOM     11  C   UNL     1      33.260 -12.447 -22.860  0.00  0.00    +0.258 C 
ATOM     12  C   UNL     1      33.092 -11.082 -23.040  0.00  0.00    +0.106 C 
ATOM     13  C   UNL     1      32.450 -10.599 -21.870  0.00  0.00    +0.051 C 
ATOM     14  C   UNL     1      32.273 -11.715 -21.053  0.00  0.00    +0.141 C 
ATOM     15  C   UNL     1      34.079 -11.283 -25.053  0.00  0.00    +0.251 C 
ATOM     16  C   UNL     1      32.001  -9.350 -21.408  0.00  0.00    +0.004 C 
ATOM     17  C   UNL     1      31.672 -11.671 -19.796  0.00  0.00    +0.037 C 
ATOM     18  C   UNL     1      31.393  -9.277 -20.147  0.00  0.00    +0.000 C 
ATOM     19  C   UNL     1      31.232 -10.419 -19.358  0.00  0.00    +0.003 C 
ENDROOT
BRANCH   3  21
ATOM     20  S   UNL     1      34.704 -19.799 -24.406  0.00  0.00    -0.019 S 
ATOM     21  C   UNL     1      34.549 -18.769 -23.097  0.00  0.00    +0.135 C 
BRANCH  21  22
ATOM     22  N   UNL     1      34.589 -19.245 -21.811  0.00  0.00    -0.312 N 
ATOM     23  H   UNL     1      33.750 -19.214 -21.297  0.00  0.00    +0.149 HD
BRANCH  22  24
ATOM     24  C   UNL     1      35.752 -19.789 -21.138  0.00  0.00    +0.116 C 
BRANCH  24  27
ATOM     25  O   UNL     1      32.491 -22.253 -18.368  0.00  0.00    -0.435 OA
ATOM     26  O   UNL     1      34.205 -23.117 -16.912  0.00  0.00    -0.435 OA
ATOM     27  C   UNL     1      35.372 -20.685 -19.995  0.00  0.00    +0.001 C 
ATOM     28  C   UNL     1      34.033 -21.005 -19.791  0.00  0.00    +0.038 C 
ATOM     29  C   UNL     1      36.375 -21.184 -19.153  0.00  0.00    +0.001 C 
ATOM     30  C   UNL     1      33.734 -21.832 -18.728  0.00  0.00    +0.176 C 
ATOM     31  C   UNL     1      34.713 -22.326 -17.897  0.00  0.00    +0.176 C 
ATOM     32  C   UNL     1      36.046 -22.019 -18.083  0.00  0.00    +0.040 C 
ATOM     33  C   UNL     1      32.797 -23.067 -17.219  0.00  0.00    +0.429 C 
ENDBRANCH  24  27
ENDBRANCH  22  24
ENDBRANCH  21  22
ENDBRANCH   3  21
TORSDOF 4
ENDMDL
MODEL 4
REMARK VINA RESULT:     -10.9      5.334     12.457
REMARK  Name = 11282283
REMARK  4 active torsions:
REMARK  status: ('A' for Active; 'I' for Inactive)
REMARK    1  A    between atoms: N_3  and  C_21
REMARK    2  A    between atoms: C_21  and  N_22
REMARK    3  A    between atoms: N_22  and  C_24
REMARK    4  A    between atoms: C_24  and  C_27
REMARK                            x       y       z     vdW  Elec       q    Type
REMARK                         _______ _______ _______ _____ _____    ______ ____
ROOT
ATOM      1  O   UNL     1      32.989 -22.912 -15.993  0.00  0.00    -0.466 OA
ATOM      2  N   UNL     1      35.561 -22.382 -17.320  0.00  0.00    -0.290 N 
ATOM      3  N   UNL     1      35.857 -20.657 -19.605  0.00  0.00    -0.288 N 
ATOM      4  N   UNL     1      36.487 -23.852 -15.678  0.00  0.00    -0.230 NA
ATOM      5  N   UNL     1      35.100 -24.912 -13.970  0.00  0.00    -0.245 NA
ATOM      6  C   UNL     1      36.808 -21.643 -17.546  0.00  0.00    +0.113 C 
ATOM      7  C   UNL     1      34.468 -22.221 -18.285  0.00  0.00    +0.113 C 
ATOM      8  C   UNL     1      36.545 -20.374 -18.354  0.00  0.00    +0.114 C 
ATOM      9  C   UNL     1      35.014 -21.841 -19.660  0.00  0.00    +0.114 C 
ATOM     10  C   UNL     1      35.419 -23.220 -16.215  0.00  0.00    +0.152 C 
ATOM     11  C   UNL     1      34.189 -23.433 -15.630  0.00  0.00    +0.258 C 
ATOM     12  C   UNL     1      34.047 -24.266 -14.529  0.00  0.00    +0.106 C 
ATOM     13  C   UNL     1      32.669 -24.256 -14.193  0.00  0.00    +0.051 C 
ATOM     14  C   UNL     1      32.064 -23.410 -15.122  0.00  0.00    +0.141 C 
ATOM     15  C   UNL     1      36.265 -24.647 -14.604  0.00  0.00    +0.251 C 
ATOM     16  C   UNL     1      31.865 -24.863 -13.213  0.00  0.00    +0.004 C 
ATOM     17  C   UNL     1      30.699 -23.125 -15.141  0.00  0.00    +0.037 C 
ATOM     18  C   UNL     1      30.489 -24.594 -13.209  0.00  0.00    +0.000 C 
ATOM     19  C   UNL     1      29.919 -23.740 -14.157  0.00  0.00    +0.003 C 
ENDROOT
BRANCH   3  21
ATOM     20  S   UNL     1      37.450 -19.073 -21.000  0.00  0.00    -0.019 S 
ATOM     21  C   UNL     1      35.999 -19.844 -20.682  0.00  0.00    +0.135 C 
BRANCH  21  22
ATOM     22  N   UNL     1      34.911 -19.677 -21.502  0.00  0.00    -0.312 N 
ATOM     23  H   UNL     1      34.024 -19.693 -21.076  0.00  0.00    +0.149 HD
BRANCH  22  24
ATOM     24  C   UNL     1      34.949 -19.478 -22.937  0.00  0.00    +0.116 C 
BRANCH  24  27
ATOM     25  O   UNL     1      33.345 -15.976 -26.026  0.00  0.00    -0.435 OA
ATOM     26  O   UNL     1      33.836 -14.209 -24.463  0.00  0.00    -0.435 OA
ATOM     27  C   UNL     1      34.662 -18.053 -23.314  0.00  0.00    +0.001 C 
ATOM     28  C   UNL     1      34.117 -17.771 -24.563  0.00  0.00    +0.038 C 
ATOM     29  C   UNL     1      34.951 -17.031 -22.400  0.00  0.00    +0.001 C 
ATOM     30  C   UNL     1      33.871 -16.447 -24.863  0.00  0.00    +0.176 C 
ATOM     31  C   UNL     1      34.151 -15.438 -23.970  0.00  0.00    +0.176 C 
ATOM     32  C   UNL     1      34.693 -15.699 -22.728  0.00  0.00    +0.040 C 
ATOM     33  C   UNL     1      33.325 -14.558 -25.766  0.00  0.00    +0.429 C 
ENDBRANCH  24  27
ENDBRANCH  22  24
ENDBRANCH  21  22
ENDBRANCH   3  21
TORSDOF 4
ENDMDL
MODEL 5
REMARK VINA RESULT:     -10.6      4.427      6.972
REMARK  Name = 11282283
REMARK  4 active torsions:
REMARK  status: ('A' for Active; 'I' for Inactive)
REMARK    1  A    between atoms: N_3  and  C_21
REMARK    2  A    between atoms: C_21  and  N_22
REMARK    3  A    between atoms: N_22  and  C_24
REMARK    4  A    between atoms: C_24  and  C_27
REMARK                            x       y       z     vdW  Elec       q    Type
REMARK                         _______ _______ _______ _____ _____    ______ ____
ROOT
ATOM      1  O   UNL     1      32.911  -5.005 -24.842  0.00  0.00    -0.466 OA
ATOM      2  N   UNL     1      31.449  -5.850 -22.433  0.00  0.00    -0.290 N 
ATOM      3  N   UNL     1      31.670  -8.471 -21.264  0.00  0.00    -0.288 N 
ATOM      4  N   UNL     1      30.530  -3.644 -22.455  0.00  0.00    -0.230 NA
ATOM      5  N   UNL     1      31.138  -2.013 -24.168  0.00  0.00    -0.245 NA
ATOM      6  C   UNL     1      31.273  -6.046 -20.990  0.00  0.00    +0.113 C 
ATOM      7  C   UNL     1      31.740  -7.021 -23.266  0.00  0.00    +0.113 C 
ATOM      8  C   UNL     1      32.038  -7.279 -20.515  0.00  0.00    +0.114 C 
ATOM      9  C   UNL     1      31.188  -8.292 -22.625  0.00  0.00    +0.114 C 
ATOM     10  C   UNL     1      31.338  -4.581 -22.999  0.00  0.00    +0.152 C 
ATOM     11  C   UNL     1      32.048  -4.236 -24.129  0.00  0.00    +0.258 C 
ATOM     12  C   UNL     1      31.940  -2.972 -24.692  0.00  0.00    +0.106 C 
ATOM     13  C   UNL     1      32.793  -2.963 -25.826  0.00  0.00    +0.051 C 
ATOM     14  C   UNL     1      33.366  -4.234 -25.873  0.00  0.00    +0.141 C 
ATOM     15  C   UNL     1      30.481  -2.435 -23.065  0.00  0.00    +0.251 C 
ATOM     16  C   UNL     1      33.147  -2.030 -26.815  0.00  0.00    +0.004 C 
ATOM     17  C   UNL     1      34.276  -4.642 -26.847  0.00  0.00    +0.037 C 
ATOM     18  C   UNL     1      34.060  -2.414 -27.807  0.00  0.00    +0.000 C 
ATOM     19  C   UNL     1      34.612  -3.697 -27.821  0.00  0.00    +0.003 C 
ENDROOT
BRANCH   3  21
ATOM     20  S   UNL     1      31.800  -9.912 -19.051  0.00  0.00    -0.019 S 
ATOM     21  C   UNL     1      31.774  -9.706 -20.712  0.00  0.00    +0.135 C 
BRANCH  21  22
ATOM     22  N   UNL     1      31.853 -10.780 -21.562  0.00  0.00    -0.312 N 
ATOM     23  H   UNL     1      32.223 -10.614 -22.458  0.00  0.00    +0.149 HD
BRANCH  22  24
ATOM     24  C   UNL     1      31.443 -12.138 -21.261  0.00  0.00    +0.116 C 
BRANCH  24  27
ATOM     25  O   UNL     1      33.865 -14.885 -24.572  0.00  0.00    -0.435 OA
ATOM     26  O   UNL     1      35.286 -15.866 -22.891  0.00  0.00    -0.435 OA
ATOM     27  C   UNL     1      32.485 -13.141 -21.664  0.00  0.00    +0.001 C 
ATOM     28  C   UNL     1      32.616 -13.492 -23.004  0.00  0.00    +0.038 C 
ATOM     29  C   UNL     1      33.308 -13.707 -20.681  0.00  0.00    +0.001 C 
ATOM     30  C   UNL     1      33.588 -14.418 -23.325  0.00  0.00    +0.176 C 
ATOM     31  C   UNL     1      34.400 -14.978 -22.365  0.00  0.00    +0.176 C 
ATOM     32  C   UNL     1      34.284 -14.642 -21.031  0.00  0.00    +0.040 C 
ATOM     33  C   UNL     1      34.943 -15.802 -24.290  0.00  0.00    +0.429 C 
ENDBRANCH  24  27
ENDBRANCH  22  24
ENDBRANCH  21  22
ENDBRANCH   3  21
TORSDOF 4
ENDMDL
MODEL 6
REMARK VINA RESULT:      -9.9      8.522     14.211
REMARK  Name = 11282283
REMARK  4 active torsions:
REMARK  status: ('A' for Active; 'I' for Inactive)
REMARK    1  A    between atoms: N_3  and  C_21
REMARK    2  A    between atoms: C_21  and  N_22
REMARK    3  A    between atoms: N_22  and  C_24
REMARK    4  A    between atoms: C_24  and  C_27
REMARK                            x       y       z     vdW  Elec       q    Type
REMARK                         _______ _______ _______ _____ _____    ______ ____
ROOT
ATOM      1  O   UNL     1      36.985 -24.761 -14.248  0.00  0.00    -0.466 OA
ATOM      2  N   UNL     1      34.258 -23.920 -13.536  0.00  0.00    -0.290 N 
ATOM      3  N   UNL     1      32.258 -23.175 -15.468  0.00  0.00    -0.288 N 
ATOM      4  N   UNL     1      34.955 -24.258 -11.275  0.00  0.00    -0.230 NA
ATOM      5  N   UNL     1      37.210 -25.015 -10.722  0.00  0.00    -0.245 NA
ATOM      6  C   UNL     1      32.833 -24.137 -13.263  0.00  0.00    +0.113 C 
ATOM      7  C   UNL     1      34.640 -23.315 -14.817  0.00  0.00    +0.113 C 
ATOM      8  C   UNL     1      32.052 -24.298 -14.566  0.00  0.00    +0.114 C 
ATOM      9  C   UNL     1      33.510 -22.443 -15.360  0.00  0.00    +0.114 C 
ATOM     10  C   UNL     1      35.225 -24.278 -12.599  0.00  0.00    +0.152 C 
ATOM     11  C   UNL     1      36.490 -24.667 -12.988  0.00  0.00    +0.258 C 
ATOM     12  C   UNL     1      37.454 -25.025 -12.055  0.00  0.00    +0.106 C 
ATOM     13  C   UNL     1      38.619 -25.363 -12.792  0.00  0.00    +0.051 C 
ATOM     14  C   UNL     1      38.278 -25.185 -14.133  0.00  0.00    +0.141 C 
ATOM     15  C   UNL     1      35.949 -24.623 -10.430  0.00  0.00    +0.251 C 
ATOM     16  C   UNL     1      39.918 -25.798 -12.481  0.00  0.00    +0.004 C 
ATOM     17  C   UNL     1      39.153 -25.413 -15.194  0.00  0.00    +0.037 C 
ATOM     18  C   UNL     1      40.818 -26.034 -13.529  0.00  0.00    +0.000 C 
ATOM     19  C   UNL     1      40.440 -25.844 -14.860  0.00  0.00    +0.003 C 
ENDROOT
BRANCH   3  21
ATOM     20  S   UNL     1      29.686 -22.849 -15.989  0.00  0.00    -0.019 S 
ATOM     21  C   UNL     1      31.314 -22.823 -16.377  0.00  0.00    +0.135 C 
BRANCH  21  22
ATOM     22  N   UNL     1      31.741 -22.444 -17.624  0.00  0.00    -0.312 N 
ATOM     23  H   UNL     1      31.154 -21.838 -18.132  0.00  0.00    +0.149 HD
BRANCH  22  24
ATOM     24  C   UNL     1      32.977 -22.851 -18.263  0.00  0.00    +0.116 C 
BRANCH  24  27
ATOM     25  O   UNL     1      36.716 -20.151 -20.026  0.00  0.00    -0.435 OA
ATOM     26  O   UNL     1      35.255 -18.808 -21.393  0.00  0.00    -0.435 OA
ATOM     27  C   UNL     1      33.555 -21.758 -19.115  0.00  0.00    +0.001 C 
ATOM     28  C   UNL     1      34.928 -21.535 -19.104  0.00  0.00    +0.038 C 
ATOM     29  C   UNL     1      32.699 -20.981 -19.908  0.00  0.00    +0.001 C 
ATOM     30  C   UNL     1      35.412 -20.520 -19.904  0.00  0.00    +0.176 C 
ATOM     31  C   UNL     1      34.578 -19.753 -20.685  0.00  0.00    +0.176 C 
ATOM     32  C   UNL     1      33.213 -19.959 -20.708  0.00  0.00    +0.040 C 
ATOM     33  C   UNL     1      36.610 -19.068 -20.971  0.00  0.00    +0.429 C 
ENDBRANCH  24  27
ENDBRANCH  22  24
ENDBRANCH  21  22
ENDBRANCH   3  21
TORSDOF 4
ENDMDL
MODEL 7
REMARK VINA RESULT:      -9.8      2.001      3.226
REMARK  Name = 11282283
REMARK  4 active torsions:
REMARK  status: ('A' for Active; 'I' for Inactive)
REMARK    1  A    between atoms: N_3  and  C_21
REMARK    2  A    between atoms: C_21  and  N_22
REMARK    3  A    between atoms: N_22  and  C_24
REMARK    4  A    between atoms: C_24  and  C_27
REMARK                            x       y       z     vdW  Elec       q    Type
REMARK                         _______ _______ _______ _____ _____    ______ ____
ROOT
ATOM      1  O   UNL     1      32.742 -10.709 -22.206  0.00  0.00    -0.466 OA
ATOM      2  N   UNL     1      33.975 -12.264 -24.378  0.00  0.00    -0.290 N 
ATOM      3  N   UNL     1      33.537 -15.081 -24.776  0.00  0.00    -0.288 N 
ATOM      4  N   UNL     1      34.999 -10.199 -25.010  0.00  0.00    -0.230 NA
ATOM      5  N   UNL     1      34.603  -8.133 -23.771  0.00  0.00    -0.245 NA
ATOM      6  C   UNL     1      34.030 -12.850 -25.721  0.00  0.00    +0.113 C 
ATOM      7  C   UNL     1      33.690 -13.147 -23.242  0.00  0.00    +0.113 C 
ATOM      8  C   UNL     1      33.172 -14.111 -25.797  0.00  0.00    +0.114 C 
ATOM      9  C   UNL     1      34.130 -14.578 -23.546  0.00  0.00    +0.114 C 
ATOM     10  C   UNL     1      34.190 -10.901 -24.185  0.00  0.00    +0.152 C 
ATOM     11  C   UNL     1      33.585 -10.218 -23.150  0.00  0.00    +0.258 C 
ATOM     12  C   UNL     1      33.798  -8.860 -22.959  0.00  0.00    +0.106 C 
ATOM     13  C   UNL     1      33.034  -8.491 -21.821  0.00  0.00    +0.051 C 
ATOM     14  C   UNL     1      32.405  -9.661 -21.397  0.00  0.00    +0.141 C 
ATOM     15  C   UNL     1      35.153  -8.877 -24.756  0.00  0.00    +0.251 C 
ATOM     16  C   UNL     1      32.803  -7.306 -21.103  0.00  0.00    +0.004 C 
ATOM     17  C   UNL     1      31.554  -9.731 -20.296  0.00  0.00    +0.037 C 
ATOM     18  C   UNL     1      31.950  -7.348 -19.991  0.00  0.00    +0.000 C 
ATOM     19  C   UNL     1      31.338  -8.540 -19.597  0.00  0.00    +0.003 C 
ENDROOT
BRANCH   3  21
ATOM     20  S   UNL     1      32.032 -16.965 -25.860  0.00  0.00    -0.019 S 
ATOM     21  C   UNL     1      33.332 -16.409 -24.965  0.00  0.00    +0.135 C 
BRANCH  21  22
ATOM     22  N   UNL     1      34.229 -17.280 -24.399  0.00  0.00    -0.312 N 
ATOM     23  H   UNL     1      35.163 -16.977 -24.330  0.00  0.00    +0.149 HD
BRANCH  22  24
ATOM     24  C   UNL     1      33.928 -18.604 -23.892  0.00  0.00    +0.116 C 
BRANCH  24  27
ATOM     25  O   UNL     1      34.932 -21.148 -19.781  0.00  0.00    -0.435 OA
ATOM     26  O   UNL     1      37.048 -20.038 -19.472  0.00  0.00    -0.435 OA
ATOM     27  C   UNL     1      34.790 -18.965 -22.717  0.00  0.00    +0.001 C 
ATOM     28  C   UNL     1      34.355 -19.936 -21.821  0.00  0.00    +0.038 C 
ATOM     29  C   UNL     1      36.020 -18.315 -22.544  0.00  0.00    +0.001 C 
ATOM     30  C   UNL     1      35.183 -20.234 -20.758  0.00  0.00    +0.176 C 
ATOM     31  C   UNL     1      36.392 -19.600 -20.581  0.00  0.00    +0.176 C 
ATOM     32  C   UNL     1      36.839 -18.634 -21.459  0.00  0.00    +0.040 C 
ATOM     33  C   UNL     1      36.118 -21.019 -18.971  0.00  0.00    +0.429 C 
ENDBRANCH  24  27
ENDBRANCH  22  24
ENDBRANCH  21  22
ENDBRANCH   3  21
TORSDOF 4
ENDMDL
MODEL 8
REMARK VINA RESULT:      -9.7      4.312      6.956
REMARK  Name = 11282283
REMARK  4 active torsions:
REMARK  status: ('A' for Active; 'I' for Inactive)
REMARK    1  A    between atoms: N_3  and  C_21
REMARK    2  A    between atoms: C_21  and  N_22
REMARK    3  A    between atoms: N_22  and  C_24
REMARK    4  A    between atoms: C_24  and  C_27
REMARK                            x       y       z     vdW  Elec       q    Type
REMARK                         _______ _______ _______ _____ _____    ______ ____
ROOT
ATOM      1  O   UNL     1      32.835  -5.196 -24.794  0.00  0.00    -0.466 OA
ATOM      2  N   UNL     1      31.470  -6.294 -22.430  0.00  0.00    -0.290 N 
ATOM      3  N   UNL     1      31.745  -9.019 -21.546  0.00  0.00    -0.288 N 
ATOM      4  N   UNL     1      30.544  -4.104 -22.191  0.00  0.00    -0.230 NA
ATOM      5  N   UNL     1      31.080  -2.302 -23.750  0.00  0.00    -0.245 NA
ATOM      6  C   UNL     1      31.351  -6.638 -21.009  0.00  0.00    +0.113 C 
ATOM      7  C   UNL     1      31.732  -7.372 -23.390  0.00  0.00    +0.113 C 
ATOM      8  C   UNL     1      32.138  -7.908 -20.693  0.00  0.00    +0.114 C 
ATOM      9  C   UNL     1      31.209  -8.706 -22.862  0.00  0.00    +0.114 C 
ATOM     10  C   UNL     1      31.333  -4.975 -22.859  0.00  0.00    +0.152 C 
ATOM     11  C   UNL     1      31.998  -4.510 -23.974  0.00  0.00    +0.258 C 
ATOM     12  C   UNL     1      31.863  -3.197 -24.400  0.00  0.00    +0.106 C 
ATOM     13  C   UNL     1      32.672  -3.066 -25.559  0.00  0.00    +0.051 C 
ATOM     14  C   UNL     1      33.247  -4.321 -25.758  0.00  0.00    +0.141 C 
ATOM     15  C   UNL     1      30.467  -2.839 -22.671  0.00  0.00    +0.251 C 
ATOM     16  C   UNL     1      32.984  -2.034 -26.460  0.00  0.00    +0.004 C 
ATOM     17  C   UNL     1      34.119  -4.620 -26.803  0.00  0.00    +0.037 C 
ATOM     18  C   UNL     1      33.859  -2.307 -27.521  0.00  0.00    +0.000 C 
ATOM     19  C   UNL     1      34.415  -3.578 -27.687  0.00  0.00    +0.003 C 
ENDROOT
BRANCH   3  21
ATOM     20  S   UNL     1      31.628 -10.721 -19.526  0.00  0.00    -0.019 S 
ATOM     21  C   UNL     1      31.874 -10.304 -21.128  0.00  0.00    +0.135 C 
BRANCH  21  22
ATOM     22  N   UNL     1      32.209 -11.249 -22.064  0.00  0.00    -0.312 N 
ATOM     23  H   UNL     1      31.547 -11.954 -22.244  0.00  0.00    +0.149 HD
BRANCH  22  24
ATOM     24  C   UNL     1      33.449 -11.303 -22.815  0.00  0.00    +0.116 C 
BRANCH  24  27
ATOM     25  O   UNL     1      34.344 -16.120 -23.421  0.00  0.00    -0.435 OA
ATOM     26  O   UNL     1      33.869 -16.030 -25.782  0.00  0.00    -0.435 OA
ATOM     27  C   UNL     1      33.551 -12.552 -23.640  0.00  0.00    +0.001 C 
ATOM     28  C   UNL     1      33.920 -13.747 -23.031  0.00  0.00    +0.038 C 
ATOM     29  C   UNL     1      33.273 -12.492 -25.013  0.00  0.00    +0.001 C 
ATOM     30  C   UNL     1      34.000 -14.869 -23.831  0.00  0.00    +0.176 C 
ATOM     31  C   UNL     1      33.729 -14.817 -25.179  0.00  0.00    +0.176 C 
ATOM     32  C   UNL     1      33.362 -13.641 -25.801  0.00  0.00    +0.040 C 
ATOM     33  C   UNL     1      34.257 -16.850 -24.662  0.00  0.00    +0.429 C 
ENDBRANCH  24  27
ENDBRANCH  22  24
ENDBRANCH  21  22
ENDBRANCH   3  21
TORSDOF 4
ENDMDL
MODEL 9
REMARK VINA RESULT:      -9.6      3.279      5.407
REMARK  Name = 11282283
REMARK  4 active torsions:
REMARK  status: ('A' for Active; 'I' for Inactive)
REMARK    1  A    between atoms: N_3  and  C_21
REMARK    2  A    between atoms: C_21  and  N_22
REMARK    3  A    between atoms: N_22  and  C_24
REMARK    4  A    between atoms: C_24  and  C_27
REMARK                            x       y       z     vdW  Elec       q    Type
REMARK                         _______ _______ _______ _____ _____    ______ ____
ROOT
ATOM      1  O   UNL     1      33.302 -14.558 -21.360  0.00  0.00    -0.466 OA
ATOM      2  N   UNL     1      34.553 -16.994 -22.434  0.00  0.00    -0.290 N 
ATOM      3  N   UNL     1      35.122 -19.331 -20.853  0.00  0.00    -0.288 N 
ATOM      4  N   UNL     1      34.585 -15.823 -24.517  0.00  0.00    -0.230 NA
ATOM      5  N   UNL     1      33.711 -13.553 -24.732  0.00  0.00    -0.245 NA
ATOM      6  C   UNL     1      34.547 -18.330 -23.040  0.00  0.00    +0.113 C 
ATOM      7  C   UNL     1      34.855 -16.877 -21.004  0.00  0.00    +0.113 C 
ATOM      8  C   UNL     1      34.222 -19.396 -21.995  0.00  0.00    +0.114 C 
ATOM      9  C   UNL     1      35.722 -18.044 -20.537  0.00  0.00    +0.114 C 
ATOM     10  C   UNL     1      34.281 -15.863 -23.201  0.00  0.00    +0.152 C 
ATOM     11  C   UNL     1      33.690 -14.746 -22.647  0.00  0.00    +0.258 C 
ATOM     12  C   UNL     1      33.417 -13.620 -23.410  0.00  0.00    +0.106 C 
ATOM     13  C   UNL     1      32.821 -12.676 -22.534  0.00  0.00    +0.051 C 
ATOM     14  C   UNL     1      32.772 -13.301 -21.288  0.00  0.00    +0.141 C 
ATOM     15  C   UNL     1      34.285 -14.687 -25.192  0.00  0.00    +0.251 C 
ATOM     16  C   UNL     1      32.317 -11.370 -22.650  0.00  0.00    +0.004 C 
ATOM     17  C   UNL     1      32.251 -12.707 -20.140  0.00  0.00    +0.037 C 
ATOM     18  C   UNL     1      31.787 -10.748 -21.511  0.00  0.00    +0.000 C 
ATOM     19  C   UNL     1      31.756 -11.407 -20.280  0.00  0.00    +0.003 C 
ENDROOT
BRANCH   3  21
ATOM     20  S   UNL     1      36.965 -20.934 -19.842  0.00  0.00    -0.019 S 
ATOM     21  C   UNL     1      35.391 -20.434 -20.109  0.00  0.00    +0.135 C 
BRANCH  21  22
ATOM     22  N   UNL     1      34.328 -21.121 -19.581  0.00  0.00    -0.312 N 
ATOM     23  H   UNL     1      33.499 -20.613 -19.427  0.00  0.00    +0.149 HD
BRANCH  22  24
ATOM     24  C   UNL     1      34.311 -22.528 -19.231  0.00  0.00    +0.116 C 
BRANCH  24  27
ATOM     25  O   UNL     1      31.092 -23.247 -15.557  0.00  0.00    -0.435 OA
ATOM     26  O   UNL     1      32.833 -23.337 -13.893  0.00  0.00    -0.435 OA
ATOM     27  C   UNL     1      33.950 -22.744 -17.790  0.00  0.00    +0.001 C 
ATOM     28  C   UNL     1      32.613 -22.890 -17.433  0.00  0.00    +0.038 C 
ATOM     29  C   UNL     1      34.968 -22.795 -16.828  0.00  0.00    +0.001 C 
ATOM     30  C   UNL     1      32.331 -23.086 -16.097  0.00  0.00    +0.176 C 
ATOM     31  C   UNL     1      33.325 -23.138 -15.147  0.00  0.00    +0.176 C 
ATOM     32  C   UNL     1      34.657 -22.995 -15.481  0.00  0.00    +0.040 C 
ATOM     33  C   UNL     1      31.418 -23.406 -14.161  0.00  0.00    +0.429 C 
ENDBRANCH  24  27
ENDBRANCH  22  24
ENDBRANCH  21  22
ENDBRANCH   3  21
TORSDOF 4
ENDMDL
