MODEL 1
REMARK VINA RESULT:     -11.6      0.000      0.000
REMARK  Name = 9801640
REMARK  6 active torsions:
REMARK  status: ('A' for Active; 'I' for Inactive)
REMARK    1  A    between atoms: C_1  and  C_2
REMARK    2  A    between atoms: C_1  and  C_16
REMARK    3  A    between atoms: C_2  and  N_3
REMARK    4  A    between atoms: C_7  and  C_11
REMARK    5  A    between atoms: C_16  and  C_17
REMARK    6  A    between atoms: C_17  and  N_21
REMARK                            x       y       z     vdW  Elec       q    Type
REMARK                         _______ _______ _______ _____ _____    ______ ____
ROOT
ATOM      1  C   UNL     1      33.801 -15.275 -23.944  0.00  0.00    -0.021 C 
ENDROOT
BRANCH   1   2
ATOM      2  C   UNL     1      35.012 -16.117 -24.342  0.00  0.00    -0.077 C 
BRANCH   2   3
ATOM      3  N   UNL     1      35.208 -17.207 -23.389  0.00  0.00    +0.390 N 
ATOM      4  C   UNL     1      35.009 -16.748 -22.011  0.00  0.00    -0.072 C 
ATOM      5  C   UNL     1      34.312 -18.334 -23.695  0.00  0.00    -0.051 C 
ATOM      6  C   UNL     1      35.383 -17.868 -21.028  0.00  0.00    +0.005 C 
ATOM      7  C   UNL     1      34.767 -19.201 -21.391  0.00  0.00    -0.013 C 
ATOM      8  C   UNL     1      34.275 -19.396 -22.628  0.00  0.00    -0.052 C 
ATOM      9  H   UNL     1      36.171 -17.531 -23.475  0.00  0.00    -0.079 HD
BRANCH   7  11
ATOM     10  N   UNL     1      35.928 -20.645 -19.854  0.00  0.00    -0.244 NA
ATOM     11  C   UNL     1      34.731 -20.263 -20.357  0.00  0.00    +0.077 C 
ATOM     12  C   UNL     1      33.517 -20.806 -19.959  0.00  0.00    +0.019 C 
ATOM     13  C   UNL     1      33.534 -21.800 -18.987  0.00  0.00    +0.003 C 
ATOM     14  C   UNL     1      35.904 -21.615 -18.911  0.00  0.00    +0.099 C 
ATOM     15  C   UNL     1      34.746 -22.218 -18.448  0.00  0.00    +0.021 C 
ENDBRANCH   7  11
ENDBRANCH   2   3
ENDBRANCH   1   2
BRANCH   1  16
ATOM     16  C   UNL     1      34.233 -13.907 -23.407  0.00  0.00    +0.020 C 
BRANCH  16  17
ATOM     17  C   UNL     1      33.687 -12.751 -24.238  0.00  0.00    +0.099 C 
BRANCH  17  21
ATOM     18 CL   UNL     1      35.305 -10.334 -24.647  0.00  0.00    -0.062 Cl
ATOM     19  O   UNL     1      32.173  -8.925 -22.682  0.00  0.00    -0.448 OA
ATOM     20  O   UNL     1      31.722 -12.928 -22.300  0.00  0.00    -0.269 OA
ATOM     21  N   UNL     1      33.291 -11.603 -23.411  0.00  0.00    -0.244 N 
ATOM     22  C   UNL     1      32.350 -11.870 -22.391  0.00  0.00    +0.256 C 
ATOM     23  C   UNL     1      33.853 -10.358 -23.686  0.00  0.00    +0.151 C 
ATOM     24  C   UNL     1      32.141 -10.905 -21.285  0.00  0.00    +0.088 C 
ATOM     25  C   UNL     1      32.048  -9.529 -21.463  0.00  0.00    +0.150 C 
ATOM     26  C   UNL     1      33.345  -9.168 -23.340  0.00  0.00    +0.206 C 
ATOM     27  C   UNL     1      31.966 -11.435 -19.995  0.00  0.00    +0.008 C 
ATOM     28  C   UNL     1      31.761  -8.688 -20.381  0.00  0.00    +0.038 C 
ATOM     29  C   UNL     1      31.701 -10.596 -18.911  0.00  0.00    +0.000 C 
ATOM     30  C   UNL     1      31.595  -9.222 -19.105  0.00  0.00    +0.003 C 
ENDBRANCH  17  21
ENDBRANCH  16  17
ENDBRANCH   1  16
TORSDOF 6
ENDMDL
MODEL 2
REMARK VINA RESULT:     -11.3      6.396     12.148
REMARK  Name = 9801640
REMARK  6 active torsions:
REMARK  status: ('A' for Active; 'I' for Inactive)
REMARK    1  A    between atoms: C_1  and  C_2
REMARK    2  A    between atoms: C_1  and  C_16
REMARK    3  A    between atoms: C_2  and  N_3
REMARK    4  A    between atoms: C_7  and  C_11
REMARK    5  A    between atoms: C_16  and  C_17
REMARK    6  A    between atoms: C_17  and  N_21
REMARK                            x       y       z     vdW  Elec       q    Type
REMARK                         _______ _______ _______ _____ _____    ______ ____
ROOT
ATOM      1  C   UNL     1      34.751 -22.343 -18.647  0.00  0.00    -0.021 C 
ENDROOT
BRANCH   1   2
ATOM      2  C   UNL     1      36.027 -21.633 -19.097  0.00  0.00    -0.077 C 
BRANCH   2   3
ATOM      3  N   UNL     1      35.753 -20.785 -20.255  0.00  0.00    +0.390 N 
ATOM      4  C   UNL     1      34.355 -20.343 -20.269  0.00  0.00    -0.072 C 
ATOM      5  C   UNL     1      36.664 -19.629 -20.281  0.00  0.00    -0.051 C 
ATOM      6  C   UNL     1      34.057 -19.596 -21.578  0.00  0.00    +0.005 C 
ATOM      7  C   UNL     1      35.099 -18.551 -21.911  0.00  0.00    -0.013 C 
ATOM      8  C   UNL     1      36.297 -18.583 -21.298  0.00  0.00    -0.052 C 
ATOM      9  H   UNL     1      35.915 -21.339 -21.095  0.00  0.00    -0.079 HD
BRANCH   7  11
ATOM     10  N   UNL     1      34.987 -16.234 -22.556  0.00  0.00    -0.244 NA
ATOM     11  C   UNL     1      34.760 -17.518 -22.919  0.00  0.00    +0.077 C 
ATOM     12  C   UNL     1      34.243 -17.892 -24.151  0.00  0.00    +0.019 C 
ATOM     13  C   UNL     1      33.940 -16.888 -25.064  0.00  0.00    +0.003 C 
ATOM     14  C   UNL     1      34.680 -15.285 -23.469  0.00  0.00    +0.099 C 
ATOM     15  C   UNL     1      34.160 -15.557 -24.724  0.00  0.00    +0.021 C 
ENDBRANCH   7  11
ENDBRANCH   2   3
ENDBRANCH   1   2
BRANCH   1  16
ATOM     16  C   UNL     1      34.631 -22.346 -17.119  0.00  0.00    +0.020 C 
BRANCH  16  17
ATOM     17  C   UNL     1      33.943 -23.598 -16.587  0.00  0.00    +0.099 C 
BRANCH  17  21
ATOM     18 CL   UNL     1      31.582 -22.790 -15.038  0.00  0.00    -0.062 Cl
ATOM     19  O   UNL     1      33.686 -24.812 -12.366  0.00  0.00    -0.448 OA
ATOM     20  O   UNL     1      36.323 -24.358 -15.400  0.00  0.00    -0.269 OA
ATOM     21  N   UNL     1      34.087 -23.742 -15.131  0.00  0.00    -0.244 N 
ATOM     22  C   UNL     1      35.388 -24.033 -14.664  0.00  0.00    +0.256 C 
ATOM     23  C   UNL     1      32.956 -23.592 -14.331  0.00  0.00    +0.151 C 
ATOM     24  C   UNL     1      35.735 -23.853 -13.234  0.00  0.00    +0.088 C 
ATOM     25  C   UNL     1      34.915 -24.245 -12.181  0.00  0.00    +0.150 C 
ATOM     26  C   UNL     1      32.798 -24.066 -13.089  0.00  0.00    +0.206 C 
ATOM     27  C   UNL     1      36.998 -23.309 -12.942  0.00  0.00    +0.008 C 
ATOM     28  C   UNL     1      35.349 -24.124 -10.856  0.00  0.00    +0.038 C 
ATOM     29  C   UNL     1      37.424 -23.167 -11.620  0.00  0.00    +0.000 C 
ATOM     30  C   UNL     1      36.600 -23.578 -10.576  0.00  0.00    +0.003 C 
ENDBRANCH  17  21
ENDBRANCH  16  17
ENDBRANCH   1  16
TORSDOF 6
ENDMDL
MODEL 3
REMARK VINA RESULT:     -11.0      6.543     11.913
REMARK  Name = 9801640
REMARK  6 active torsions:
REMARK  status: ('A' for Active; 'I' for Inactive)
REMARK    1  A    between atoms: C_1  and  C_2
REMARK    2  A    between atoms: C_1  and  C_16
REMARK    3  A    between atoms: C_2  and  N_3
REMARK    4  A    between atoms: C_7  and  C_11
REMARK    5  A    between atoms: C_16  and  C_17
REMARK    6  A    between atoms: C_17  and  N_21
REMARK                            x       y       z     vdW  Elec       q    Type
REMARK                         _______ _______ _______ _____ _____    ______ ____
ROOT
ATOM      1  C   UNL     1      36.838 -21.494 -16.713  0.00  0.00    -0.021 C 
ENDROOT
BRANCH   1   2
ATOM      2  C   UNL     1      36.148 -22.008 -17.976  0.00  0.00    -0.077 C 
BRANCH   2   3
ATOM      3  N   UNL     1      35.837 -20.897 -18.872  0.00  0.00    +0.390 N 
ATOM      4  C   UNL     1      36.905 -20.696 -19.856  0.00  0.00    -0.072 C 
ATOM      5  C   UNL     1      34.546 -21.114 -19.544  0.00  0.00    -0.051 C 
ATOM      6  C   UNL     1      36.630 -19.424 -20.672  0.00  0.00    +0.005 C 
ATOM      7  C   UNL     1      35.212 -19.351 -21.192  0.00  0.00    -0.013 C 
ATOM      8  C   UNL     1      34.263 -20.143 -20.658  0.00  0.00    -0.052 C 
ATOM      9  H   UNL     1      35.767 -20.050 -18.309  0.00  0.00    -0.079 HD
BRANCH   7  11
ATOM     10  N   UNL     1      35.220 -17.097 -22.038  0.00  0.00    -0.244 NA
ATOM     11  C   UNL     1      34.911 -18.392 -22.282  0.00  0.00    +0.077 C 
ATOM     12  C   UNL     1      34.343 -18.841 -23.465  0.00  0.00    +0.019 C 
ATOM     13  C   UNL     1      34.078 -17.905 -24.459  0.00  0.00    +0.003 C 
ATOM     14  C   UNL     1      34.947 -16.216 -23.027  0.00  0.00    +0.099 C 
ATOM     15  C   UNL     1      34.383 -16.565 -24.243  0.00  0.00    +0.021 C 
ENDBRANCH   7  11
ENDBRANCH   2   3
ENDBRANCH   1   2
BRANCH   1  16
ATOM     16  C   UNL     1      36.398 -22.291 -15.481  0.00  0.00    +0.020 C 
BRANCH  16  17
ATOM     17  C   UNL     1      35.652 -23.569 -15.844  0.00  0.00    +0.099 C 
BRANCH  17  21
ATOM     18 CL   UNL     1      36.266 -25.303 -13.554  0.00  0.00    -0.062 Cl
ATOM     19  O   UNL     1      32.789 -23.731 -12.507  0.00  0.00    -0.448 OA
ATOM     20  O   UNL     1      33.094 -22.675 -16.401  0.00  0.00    -0.269 OA
ATOM     21  N   UNL     1      34.514 -23.828 -14.950  0.00  0.00    -0.244 N 
ATOM     22  C   UNL     1      33.250 -23.402 -15.417  0.00  0.00    +0.256 C 
ATOM     23  C   UNL     1      34.755 -24.455 -13.729  0.00  0.00    +0.151 C 
ATOM     24  C   UNL     1      32.005 -23.909 -14.793  0.00  0.00    +0.088 C 
ATOM     25  C   UNL     1      31.820 -24.035 -13.420  0.00  0.00    +0.150 C 
ATOM     26  C   UNL     1      33.965 -24.412 -12.649  0.00  0.00    +0.206 C 
ATOM     27  C   UNL     1      30.935 -24.216 -15.651  0.00  0.00    +0.008 C 
ATOM     28  C   UNL     1      30.583 -24.438 -12.902  0.00  0.00    +0.038 C 
ATOM     29  C   UNL     1      29.708 -24.639 -15.137  0.00  0.00    +0.000 C 
ATOM     30  C   UNL     1      29.531 -24.746 -13.760  0.00  0.00    +0.003 C 
ENDBRANCH  17  21
ENDBRANCH  16  17
ENDBRANCH   1  16
TORSDOF 6
ENDMDL
MODEL 4
REMARK VINA RESULT:     -10.7      8.170     11.736
REMARK  Name = 9801640
REMARK  6 active torsions:
REMARK  status: ('A' for Active; 'I' for Inactive)
REMARK    1  A    between atoms: C_1  and  C_2
REMARK    2  A    between atoms: C_1  and  C_16
REMARK    3  A    between atoms: C_2  and  N_3
REMARK    4  A    between atoms: C_7  and  C_11
REMARK    5  A    between atoms: C_16  and  C_17
REMARK    6  A    between atoms: C_17  and  N_21
REMARK                            x       y       z     vdW  Elec       q    Type
REMARK                         _______ _______ _______ _____ _____    ______ ____
ROOT
ATOM      1  C   UNL     1      33.671 -24.055 -13.337  0.00  0.00    -0.021 C 
ENDROOT
BRANCH   1   2
ATOM      2  C   UNL     1      32.471 -24.993 -13.449  0.00  0.00    -0.077 C 
BRANCH   2   3
ATOM      3  N   UNL     1      31.447 -24.406 -14.309  0.00  0.00    +0.390 N 
ATOM      4  C   UNL     1      30.304 -25.311 -14.466  0.00  0.00    -0.072 C 
ATOM      5  C   UNL     1      31.009 -23.103 -13.785  0.00  0.00    -0.051 C 
ATOM      6  C   UNL     1      29.325 -24.742 -15.504  0.00  0.00    +0.005 C 
ATOM      7  C   UNL     1      29.003 -23.282 -15.272  0.00  0.00    -0.013 C 
ATOM      8  C   UNL     1      29.793 -22.543 -14.472  0.00  0.00    -0.052 C 
ATOM      9  H   UNL     1      31.858 -24.259 -15.231  0.00  0.00    -0.079 HD
BRANCH   7  11
ATOM     10  N   UNL     1      27.801 -22.792 -17.299  0.00  0.00    -0.244 NA
ATOM     11  C   UNL     1      27.815 -22.708 -15.949  0.00  0.00    +0.077 C 
ATOM     12  C   UNL     1      26.801 -22.128 -15.200  0.00  0.00    +0.019 C 
ATOM     13  C   UNL     1      25.707 -21.603 -15.879  0.00  0.00    +0.003 C 
ATOM     14  C   UNL     1      26.721 -22.269 -17.925  0.00  0.00    +0.099 C 
ATOM     15  C   UNL     1      25.659 -21.670 -17.267  0.00  0.00    +0.021 C 
ENDBRANCH   7  11
ENDBRANCH   2   3
ENDBRANCH   1   2
BRANCH   1  16
ATOM     16  C   UNL     1      33.840 -23.221 -14.611  0.00  0.00    +0.020 C 
BRANCH  16  17
ATOM     17  C   UNL     1      34.851 -23.825 -15.579  0.00  0.00    +0.099 C 
BRANCH  17  21
ATOM     18 CL   UNL     1      37.042 -21.919 -15.139  0.00  0.00    -0.062 Cl
ATOM     19  O   UNL     1      36.570 -21.762 -19.064  0.00  0.00    -0.448 OA
ATOM     20  O   UNL     1      33.297 -23.816 -17.866  0.00  0.00    -0.269 OA
ATOM     21  N   UNL     1      35.133 -22.942 -16.720  0.00  0.00    -0.244 N 
ATOM     22  C   UNL     1      34.192 -22.973 -17.773  0.00  0.00    +0.256 C 
ATOM     23  C   UNL     1      36.285 -22.159 -16.688  0.00  0.00    +0.151 C 
ATOM     24  C   UNL     1      34.165 -21.898 -18.794  0.00  0.00    +0.088 C 
ATOM     25  C   UNL     1      35.304 -21.365 -19.389  0.00  0.00    +0.150 C 
ATOM     26  C   UNL     1      36.908 -21.627 -17.747  0.00  0.00    +0.206 C 
ATOM     27  C   UNL     1      32.904 -21.447 -19.219  0.00  0.00    +0.008 C 
ATOM     28  C   UNL     1      35.195 -20.413 -20.410  0.00  0.00    +0.038 C 
ATOM     29  C   UNL     1      32.794 -20.482 -20.223  0.00  0.00    +0.000 C 
ATOM     30  C   UNL     1      33.941 -19.968 -20.821  0.00  0.00    +0.003 C 
ENDBRANCH  17  21
ENDBRANCH  16  17
ENDBRANCH   1  16
TORSDOF 6
ENDMDL
MODEL 5
REMARK VINA RESULT:     -10.5      1.846      2.747
REMARK  Name = 9801640
REMARK  6 active torsions:
REMARK  status: ('A' for Active; 'I' for Inactive)
REMARK    1  A    between atoms: C_1  and  C_2
REMARK    2  A    between atoms: C_1  and  C_16
REMARK    3  A    between atoms: C_2  and  N_3
REMARK    4  A    between atoms: C_7  and  C_11
REMARK    5  A    between atoms: C_16  and  C_17
REMARK    6  A    between atoms: C_17  and  N_21
REMARK                            x       y       z     vdW  Elec       q    Type
REMARK                         _______ _______ _______ _____ _____    ______ ____
ROOT
ATOM      1  C   UNL     1      33.656 -14.167 -23.038  0.00  0.00    -0.021 C 
ENDROOT
BRANCH   1   2
ATOM      2  C   UNL     1      34.804 -14.933 -23.694  0.00  0.00    -0.077 C 
BRANCH   2   3
ATOM      3  N   UNL     1      35.122 -16.131 -22.920  0.00  0.00    +0.390 N 
ATOM      4  C   UNL     1      34.665 -16.002 -21.533  0.00  0.00    -0.072 C 
ATOM      5  C   UNL     1      34.542 -17.328 -23.549  0.00  0.00    -0.051 C 
ATOM      6  C   UNL     1      35.159 -17.199 -20.706  0.00  0.00    +0.005 C 
ATOM      7  C   UNL     1      34.902 -18.528 -21.381  0.00  0.00    -0.013 C 
ATOM      8  C   UNL     1      34.616 -18.566 -22.696  0.00  0.00    -0.052 C 
ATOM      9  H   UNL     1      36.137 -16.235 -22.907  0.00  0.00    -0.079 HD
BRANCH   7  11
ATOM     10  N   UNL     1      36.221 -20.142 -20.178  0.00  0.00    -0.244 NA
ATOM     11  C   UNL     1      34.981 -19.760 -20.560  0.00  0.00    +0.077 C 
ATOM     12  C   UNL     1      33.823 -20.448 -20.227  0.00  0.00    +0.019 C 
ATOM     13  C   UNL     1      33.947 -21.599 -19.456  0.00  0.00    +0.003 C 
ATOM     14  C   UNL     1      36.302 -21.267 -19.430  0.00  0.00    +0.099 C 
ATOM     15  C   UNL     1      35.206 -22.022 -19.046  0.00  0.00    +0.021 C 
ENDBRANCH   7  11
ENDBRANCH   2   3
ENDBRANCH   1   2
BRANCH   1  16
ATOM     16  C   UNL     1      34.077 -12.736 -22.690  0.00  0.00    +0.020 C 
BRANCH  16  17
ATOM     17  C   UNL     1      33.319 -11.688 -23.499  0.00  0.00    +0.099 C 
BRANCH  17  21
ATOM     18 CL   UNL     1      31.050 -12.157 -21.695  0.00  0.00    -0.062 Cl
ATOM     19  O   UNL     1      32.558  -8.780 -20.286  0.00  0.00    -0.448 OA
ATOM     20  O   UNL     1      34.493  -9.204 -23.814  0.00  0.00    -0.269 OA
ATOM     21  N   UNL     1      32.932 -10.525 -22.688  0.00  0.00    -0.244 N 
ATOM     22  C   UNL     1      33.542  -9.299 -23.034  0.00  0.00    +0.256 C 
ATOM     23  C   UNL     1      32.015 -10.708 -21.655  0.00  0.00    +0.151 C 
ATOM     24  C   UNL     1      32.987  -8.014 -22.545  0.00  0.00    +0.088 C 
ATOM     25  C   UNL     1      32.548  -7.804 -21.242  0.00  0.00    +0.150 C 
ATOM     26  C   UNL     1      31.852  -9.909 -20.593  0.00  0.00    +0.206 C 
ATOM     27  C   UNL     1      32.968  -6.937 -23.448  0.00  0.00    +0.008 C 
ATOM     28  C   UNL     1      32.118  -6.537 -20.830  0.00  0.00    +0.038 C 
ATOM     29  C   UNL     1      32.519  -5.678 -23.044  0.00  0.00    +0.000 C 
ATOM     30  C   UNL     1      32.098  -5.478 -21.733  0.00  0.00    +0.003 C 
ENDBRANCH  17  21
ENDBRANCH  16  17
ENDBRANCH   1  16
TORSDOF 6
ENDMDL
MODEL 6
REMARK VINA RESULT:     -10.5      7.337     13.093
REMARK  Name = 9801640
REMARK  6 active torsions:
REMARK  status: ('A' for Active; 'I' for Inactive)
REMARK    1  A    between atoms: C_1  and  C_2
REMARK    2  A    between atoms: C_1  and  C_16
REMARK    3  A    between atoms: C_2  and  N_3
REMARK    4  A    between atoms: C_7  and  C_11
REMARK    5  A    between atoms: C_16  and  C_17
REMARK    6  A    between atoms: C_17  and  N_21
REMARK                            x       y       z     vdW  Elec       q    Type
REMARK                         _______ _______ _______ _____ _____    ______ ____
ROOT
ATOM      1  C   UNL     1      32.623 -23.103 -16.878  0.00  0.00    -0.021 C 
ENDROOT
BRANCH   1   2
ATOM      2  C   UNL     1      33.863 -23.474 -17.691  0.00  0.00    -0.077 C 
BRANCH   2   3
ATOM      3  N   UNL     1      34.006 -22.577 -18.835  0.00  0.00    +0.390 N 
ATOM      4  C   UNL     1      32.986 -21.524 -18.814  0.00  0.00    -0.072 C 
ATOM      5  C   UNL     1      35.356 -21.991 -18.872  0.00  0.00    -0.051 C 
ATOM      6  C   UNL     1      33.057 -20.701 -20.109  0.00  0.00    +0.005 C 
ATOM      7  C   UNL     1      34.464 -20.270 -20.457  0.00  0.00    -0.013 C 
ATOM      8  C   UNL     1      35.514 -20.877 -19.872  0.00  0.00    -0.052 C 
ATOM      9  H   UNL     1      33.872 -23.126 -19.684  0.00  0.00    -0.079 HD
BRANCH   7  11
ATOM     10  N   UNL     1      34.224 -19.449 -22.707  0.00  0.00    -0.244 NA
ATOM     11  C   UNL     1      34.641 -19.181 -21.448  0.00  0.00    +0.077 C 
ATOM     12  C   UNL     1      35.207 -17.975 -21.062  0.00  0.00    +0.019 C 
ATOM     13  C   UNL     1      35.354 -16.984 -22.027  0.00  0.00    +0.003 C 
ATOM     14  C   UNL     1      34.383 -18.462 -23.618  0.00  0.00    +0.099 C 
ATOM     15  C   UNL     1      34.936 -17.224 -23.331  0.00  0.00    +0.021 C 
ENDBRANCH   7  11
ENDBRANCH   2   3
ENDBRANCH   1   2
BRANCH   1  16
ATOM     16  C   UNL     1      32.930 -23.095 -15.378  0.00  0.00    +0.020 C 
BRANCH  16  17
ATOM     17  C   UNL     1      33.014 -24.499 -14.788  0.00  0.00    +0.099 C 
BRANCH  17  21
ATOM     18 CL   UNL     1      32.924 -23.030 -12.246  0.00  0.00    -0.062 Cl
ATOM     19  O   UNL     1      35.884 -25.584 -11.635  0.00  0.00    -0.448 OA
ATOM     20  O   UNL     1      35.233 -25.928 -15.613  0.00  0.00    -0.269 OA
ATOM     21  N   UNL     1      34.197 -24.679 -13.934  0.00  0.00    -0.244 N 
ATOM     22  C   UNL     1      35.294 -25.342 -14.529  0.00  0.00    +0.256 C 
ATOM     23  C   UNL     1      34.154 -24.202 -12.626  0.00  0.00    +0.151 C 
ATOM     24  C   UNL     1      36.642 -25.273 -13.916  0.00  0.00    +0.088 C 
ATOM     25  C   UNL     1      36.881 -25.406 -12.552  0.00  0.00    +0.150 C 
ATOM     26  C   UNL     1      34.927 -24.609 -11.611  0.00  0.00    +0.206 C 
ATOM     27  C   UNL     1      37.737 -25.127 -14.784  0.00  0.00    +0.008 C 
ATOM     28  C   UNL     1      38.190 -25.419 -12.055  0.00  0.00    +0.038 C 
ATOM     29  C   UNL     1      39.042 -25.117 -14.288  0.00  0.00    +0.000 C 
ATOM     30  C   UNL     1      39.268 -25.267 -12.923  0.00  0.00    +0.003 C 
ENDBRANCH  17  21
ENDBRANCH  16  17
ENDBRANCH   1  16
TORSDOF 6
ENDMDL
MODEL 7
REMARK VINA RESULT:     -10.4      3.456      5.639
REMARK  Name = 9801640
REMARK  6 active torsions:
REMARK  status: ('A' for Active; 'I' for Inactive)
REMARK    1  A    between atoms: C_1  and  C_2
REMARK    2  A    between atoms: C_1  and  C_16
REMARK    3  A    between atoms: C_2  and  N_3
REMARK    4  A    between atoms: C_7  and  C_11
REMARK    5  A    between atoms: C_16  and  C_17
REMARK    6  A    between atoms: C_17  and  N_21
REMARK                            x       y       z     vdW  Elec       q    Type
REMARK                         _______ _______ _______ _____ _____    ______ ____
ROOT
ATOM      1  C   UNL     1      33.427 -10.415 -22.909  0.00  0.00    -0.021 C 
ENDROOT
BRANCH   1   2
ATOM      2  C   UNL     1      33.620 -11.081 -24.270  0.00  0.00    -0.077 C 
BRANCH   2   3
ATOM      3  N   UNL     1      34.087 -12.455 -24.100  0.00  0.00    +0.390 N 
ATOM      4  C   UNL     1      33.760 -12.965 -22.765  0.00  0.00    -0.072 C 
ATOM      5  C   UNL     1      33.526 -13.330 -25.142  0.00  0.00    -0.051 C 
ATOM      6  C   UNL     1      34.406 -14.343 -22.559  0.00  0.00    +0.005 C 
ATOM      7  C   UNL     1      34.170 -15.285 -23.718  0.00  0.00    -0.013 C 
ATOM      8  C   UNL     1      33.760 -14.797 -24.903  0.00  0.00    -0.052 C 
ATOM      9  H   UNL     1      35.103 -12.455 -24.195  0.00  0.00    -0.079 HD
BRANCH   7  11
ATOM     10  N   UNL     1      35.086 -17.068 -22.385  0.00  0.00    -0.244 NA
ATOM     11  C   UNL     1      34.406 -16.734 -23.506  0.00  0.00    +0.077 C 
ATOM     12  C   UNL     1      33.939 -17.657 -24.430  0.00  0.00    +0.019 C 
ATOM     13  C   UNL     1      34.185 -19.004 -24.189  0.00  0.00    +0.003 C 
ATOM     14  C   UNL     1      35.307 -18.388 -22.185  0.00  0.00    +0.099 C 
ATOM     15  C   UNL     1      34.882 -19.384 -23.047  0.00  0.00    +0.021 C 
ENDBRANCH   7  11
ENDBRANCH   2   3
ENDBRANCH   1   2
BRANCH   1  16
ATOM     16  C   UNL     1      32.365  -9.313 -22.981  0.00  0.00    +0.020 C 
BRANCH  16  17
ATOM     17  C   UNL     1      32.725  -8.095 -22.137  0.00  0.00    +0.099 C 
BRANCH  17  21
ATOM     18 CL   UNL     1      35.388  -7.328 -23.111  0.00  0.00    -0.062 Cl
ATOM     19  O   UNL     1      33.005  -5.043 -25.293  0.00  0.00    -0.448 OA
ATOM     20  O   UNL     1      30.489  -6.504 -22.482  0.00  0.00    -0.269 OA
ATOM     21  N   UNL     1      32.754  -6.855 -22.925  0.00  0.00    -0.244 N 
ATOM     22  C   UNL     1      31.565  -6.093 -22.925  0.00  0.00    +0.256 C 
ATOM     23  C   UNL     1      33.924  -6.527 -23.608  0.00  0.00    +0.151 C 
ATOM     24  C   UNL     1      31.572  -4.680 -23.372  0.00  0.00    +0.088 C 
ATOM     25  C   UNL     1      32.250  -4.227 -24.500  0.00  0.00    +0.150 C 
ATOM     26  C   UNL     1      34.020  -5.702 -24.659  0.00  0.00    +0.206 C 
ATOM     27  C   UNL     1      30.794  -3.769 -22.639  0.00  0.00    +0.008 C 
ATOM     28  C   UNL     1      32.138  -2.893 -24.910  0.00  0.00    +0.038 C 
ATOM     29  C   UNL     1      30.699  -2.433 -23.034  0.00  0.00    +0.000 C 
ATOM     30  C   UNL     1      31.368  -1.996 -24.173  0.00  0.00    +0.003 C 
ENDBRANCH  17  21
ENDBRANCH  16  17
ENDBRANCH   1  16
TORSDOF 6
ENDMDL
MODEL 8
REMARK VINA RESULT:     -10.3      3.064      5.186
REMARK  Name = 9801640
REMARK  6 active torsions:
REMARK  status: ('A' for Active; 'I' for Inactive)
REMARK    1  A    between atoms: C_1  and  C_2
REMARK    2  A    between atoms: C_1  and  C_16
REMARK    3  A    between atoms: C_2  and  N_3
REMARK    4  A    between atoms: C_7  and  C_11
REMARK    5  A    between atoms: C_16  and  C_17
REMARK    6  A    between atoms: C_17  and  N_21
REMARK                            x       y       z     vdW  Elec       q    Type
REMARK                         _______ _______ _______ _____ _____    ______ ____
ROOT
ATOM      1  C   UNL     1      34.580 -10.790 -24.583  0.00  0.00    -0.021 C 
ENDROOT
BRANCH   1   2
ATOM      2  C   UNL     1      33.651 -11.546 -23.634  0.00  0.00    -0.077 C 
BRANCH   2   3
ATOM      3  N   UNL     1      34.194 -12.871 -23.342  0.00  0.00    +0.390 N 
ATOM      4  C   UNL     1      33.756 -13.344 -22.025  0.00  0.00    -0.072 C 
ATOM      5  C   UNL     1      33.818 -13.832 -24.391  0.00  0.00    -0.051 C 
ATOM      6  C   UNL     1      34.473 -14.657 -21.676  0.00  0.00    +0.005 C 
ATOM      7  C   UNL     1      34.437 -15.666 -22.802  0.00  0.00    -0.013 C 
ATOM      8  C   UNL     1      34.130 -15.265 -24.050  0.00  0.00    -0.052 C 
ATOM      9  H   UNL     1      35.211 -12.796 -23.325  0.00  0.00    -0.079 HD
BRANCH   7  11
ATOM     10  N   UNL     1      35.241 -17.322 -21.251  0.00  0.00    -0.244 NA
ATOM     11  C   UNL     1      34.752 -17.080 -22.489  0.00  0.00    +0.077 C 
ATOM     12  C   UNL     1      34.542 -18.067 -23.442  0.00  0.00    +0.019 C 
ATOM     13  C   UNL     1      34.853 -19.379 -23.103  0.00  0.00    +0.003 C 
ATOM     14  C   UNL     1      35.533 -18.609 -20.957  0.00  0.00    +0.099 C 
ATOM     15  C   UNL     1      35.358 -19.664 -21.839  0.00  0.00    +0.021 C 
ENDBRANCH   7  11
ENDBRANCH   2   3
ENDBRANCH   1   2
BRANCH   1  16
ATOM     16  C   UNL     1      34.750  -9.333 -24.143  0.00  0.00    +0.020 C 
BRANCH  16  17
ATOM     17  C   UNL     1      34.001  -9.018 -22.852  0.00  0.00    +0.099 C 
BRANCH  17  21
ATOM     18 CL   UNL     1      31.154  -9.353 -22.216  0.00  0.00    -0.062 Cl
ATOM     19  O   UNL     1      31.583  -5.421 -22.102  0.00  0.00    -0.448 OA
ATOM     20  O   UNL     1      35.059  -6.636 -23.777  0.00  0.00    -0.269 OA
ATOM     21  N   UNL     1      33.203  -7.788 -22.952  0.00  0.00    -0.244 N 
ATOM     22  C   UNL     1      33.849  -6.678 -23.541  0.00  0.00    +0.256 C 
ATOM     23  C   UNL     1      31.898  -7.799 -22.463  0.00  0.00    +0.151 C 
ATOM     24  C   UNL     1      33.065  -5.513 -24.017  0.00  0.00    +0.088 C 
ATOM     25  C   UNL     1      32.015  -4.941 -23.305  0.00  0.00    +0.150 C 
ATOM     26  C   UNL     1      31.182  -6.727 -22.100  0.00  0.00    +0.206 C 
ATOM     27  C   UNL     1      33.458  -4.927 -25.232  0.00  0.00    +0.008 C 
ATOM     28  C   UNL     1      31.379  -3.787 -23.778  0.00  0.00    +0.038 C 
ATOM     29  C   UNL     1      32.810  -3.788 -25.716  0.00  0.00    +0.000 C 
ATOM     30  C   UNL     1      31.772  -3.216 -24.986  0.00  0.00    +0.003 C 
ENDBRANCH  17  21
ENDBRANCH  16  17
ENDBRANCH   1  16
TORSDOF 6
ENDMDL
MODEL 9
REMARK VINA RESULT:     -10.1      2.419      4.119
REMARK  Name = 9801640
REMARK  6 active torsions:
REMARK  status: ('A' for Active; 'I' for Inactive)
REMARK    1  A    between atoms: C_1  and  C_2
REMARK    2  A    between atoms: C_1  and  C_16
REMARK    3  A    between atoms: C_2  and  N_3
REMARK    4  A    between atoms: C_7  and  C_11
REMARK    5  A    between atoms: C_16  and  C_17
REMARK    6  A    between atoms: C_17  and  N_21
REMARK                            x       y       z     vdW  Elec       q    Type
REMARK                         _______ _______ _______ _____ _____    ______ ____
ROOT
ATOM      1  C   UNL     1      34.161 -12.447 -24.780  0.00  0.00    -0.021 C 
ENDROOT
BRANCH   1   2
ATOM      2  C   UNL     1      33.241 -13.590 -25.207  0.00  0.00    -0.077 C 
BRANCH   2   3
ATOM      3  N   UNL     1      33.470 -14.765 -24.369  0.00  0.00    +0.390 N 
ATOM      4  C   UNL     1      34.143 -15.829 -25.120  0.00  0.00    -0.072 C 
ATOM      5  C   UNL     1      34.244 -14.406 -23.169  0.00  0.00    -0.051 C 
ATOM      6  C   UNL     1      34.219 -17.103 -24.266  0.00  0.00    +0.005 C 
ATOM      7  C   UNL     1      34.723 -16.845 -22.864  0.00  0.00    -0.013 C 
ATOM      8  C   UNL     1      34.729 -15.590 -22.376  0.00  0.00    -0.052 C 
ATOM      9  H   UNL     1      32.562 -15.119 -24.070  0.00  0.00    -0.079 HD
BRANCH   7  11
ATOM     10  N   UNL     1      34.297 -18.991 -21.860  0.00  0.00    -0.244 NA
ATOM     11  C   UNL     1      35.195 -18.000 -22.063  0.00  0.00    +0.077 C 
ATOM     12  C   UNL     1      36.492 -18.020 -21.569  0.00  0.00    +0.019 C 
ATOM     13  C   UNL     1      36.889 -19.123 -20.822  0.00  0.00    +0.003 C 
ATOM     14  C   UNL     1      34.719 -20.047 -21.128  0.00  0.00    +0.099 C 
ATOM     15  C   UNL     1      35.991 -20.160 -20.593  0.00  0.00    +0.021 C 
ENDBRANCH   7  11
ENDBRANCH   2   3
ENDBRANCH   1   2
BRANCH   1  16
ATOM     16  C   UNL     1      33.351 -11.229 -24.322  0.00  0.00    +0.020 C 
BRANCH  16  17
ATOM     17  C   UNL     1      33.829 -10.676 -22.984  0.00  0.00    +0.099 C 
BRANCH  17  21
ATOM     18 CL   UNL     1      31.209 -10.845 -21.669  0.00  0.00    -0.062 Cl
ATOM     19  O   UNL     1      32.223  -7.072 -21.037  0.00  0.00    -0.448 OA
ATOM     20  O   UNL     1      34.963  -8.275 -23.760  0.00  0.00    -0.269 OA
ATOM     21  N   UNL     1      33.220  -9.377 -22.664  0.00  0.00    -0.244 N 
ATOM     22  C   UNL     1      33.855  -8.242 -23.217  0.00  0.00    +0.256 C 
ATOM     23  C   UNL     1      32.088  -9.354 -21.851  0.00  0.00    +0.151 C 
ATOM     24  C   UNL     1      33.157  -6.936 -23.269  0.00  0.00    +0.088 C 
ATOM     25  C   UNL     1      32.411  -6.412 -22.218  0.00  0.00    +0.150 C 
ATOM     26  C   UNL     1      31.648  -8.308 -21.140  0.00  0.00    +0.206 C 
ATOM     27  C   UNL     1      33.321  -6.165 -24.433  0.00  0.00    +0.008 C 
ATOM     28  C   UNL     1      31.853  -5.131 -22.309  0.00  0.00    +0.038 C 
ATOM     29  C   UNL     1      32.747  -4.896 -24.533  0.00  0.00    +0.000 C 
ATOM     30  C   UNL     1      32.016  -4.378 -23.468  0.00  0.00    +0.003 C 
ENDBRANCH  17  21
ENDBRANCH  16  17
ENDBRANCH   1  16
TORSDOF 6
ENDMDL
