MODEL 1
REMARK VINA RESULT:     -12.0      0.000      0.000
REMARK  Name = 25184541
REMARK  4 active torsions:
REMARK  status: ('A' for Active; 'I' for Inactive)
REMARK    1  A    between atoms: C_4  and  N_19
REMARK    2  A    between atoms: C_5  and  N_11
REMARK    3  A    between atoms: C_20  and  C_23
REMARK    4  A    between atoms: C_23  and  N_25
REMARK                            x       y       z     vdW  Elec       q    Type
REMARK                         _______ _______ _______ _____ _____    ______ ____
ROOT
ATOM      1  F   UNL     1      32.329 -21.629 -18.858  0.00  0.00    -0.200 F 
ATOM      2  F   UNL     1      32.350 -19.974 -21.011  0.00  0.00    -0.200 F 
ATOM      3  F   UNL     1      37.096 -19.845 -20.864  0.00  0.00    -0.203 F 
ATOM      4  C   UNL     1      34.701 -21.588 -18.755  0.00  0.00    +0.089 C 
ATOM      5  C   UNL     1      34.723 -19.887 -20.966  0.00  0.00    +0.110 C 
ATOM      6  C   UNL     1      33.500 -21.194 -19.345  0.00  0.00    +0.182 C 
ATOM      7  C   UNL     1      35.914 -21.130 -19.272  0.00  0.00    +0.048 C 
ATOM      8  C   UNL     1      33.511 -20.344 -20.451  0.00  0.00    +0.184 C 
ATOM      9  C   UNL     1      35.924 -20.280 -20.376  0.00  0.00    +0.157 C 
ENDROOT
BRANCH   5  11
ATOM     10  O   UNL     1      34.710 -16.474 -25.271  0.00  0.00    -0.291 OA
ATOM     11  N   UNL     1      34.735 -19.018 -22.089  0.00  0.00    -0.282 N 
ATOM     12  C   UNL     1      35.413 -17.719 -21.937  0.00  0.00    +0.104 C 
ATOM     13  C   UNL     1      34.810 -16.675 -22.876  0.00  0.00    +0.091 C 
ATOM     14  C   UNL     1      34.306 -19.402 -23.351  0.00  0.00    +0.068 C 
ATOM     15  C   UNL     1      34.633 -17.203 -24.285  0.00  0.00    +0.176 C 
ATOM     16  C   UNL     1      34.265 -18.629 -24.441  0.00  0.00    +0.054 C 
ENDBRANCH   5  11
BRANCH   4  19
ATOM     17  O   UNL     1      35.270 -23.515 -15.720  0.00  0.00    -0.434 OA
ATOM     18  O   UNL     1      36.701 -21.934 -16.490  0.00  0.00    -0.226 OA
ATOM     19  N   UNL     1      34.693 -22.456 -17.627  0.00  0.00    -0.219 N 
ATOM     20  C   UNL     1      33.922 -23.915 -16.004  0.00  0.00    +0.210 C 
ATOM     21  C   UNL     1      33.694 -23.473 -17.434  0.00  0.00    +0.147 C 
ATOM     22  C   UNL     1      35.651 -22.548 -16.621  0.00  0.00    +0.409 C 
BRANCH  20  23
ATOM     23  C   UNL     1      32.988 -23.238 -15.011  0.00  0.00    +0.134 C 
BRANCH  23  25
ATOM     24  O   UNL     1      29.084 -22.635 -16.752  0.00  0.00    -0.349 OA
ATOM     25  N   UNL     1      31.759 -23.983 -14.906  0.00  0.00    -0.312 N 
ATOM     26  N   UNL     1      30.411 -22.570 -16.349  0.00  0.00    -0.062 NA
ATOM     27  C   UNL     1      30.583 -23.629 -15.551  0.00  0.00    +0.171 C 
ATOM     28  C   UNL     1      29.411 -24.390 -15.416  0.00  0.00    +0.081 C 
ATOM     29  C   UNL     1      28.498 -23.724 -16.190  0.00  0.00    +0.215 C 
ATOM     30  H   UNL     1      31.754 -24.791 -14.342  0.00  0.00    +0.148 HD
ENDBRANCH  23  25
ENDBRANCH  20  23
ENDBRANCH   4  19
TORSDOF 4
ENDMDL
MODEL 2
REMARK VINA RESULT:     -12.0      5.640      8.116
REMARK  Name = 25184541
REMARK  4 active torsions:
REMARK  status: ('A' for Active; 'I' for Inactive)
REMARK    1  A    between atoms: C_4  and  N_19
REMARK    2  A    between atoms: C_5  and  N_11
REMARK    3  A    between atoms: C_20  and  C_23
REMARK    4  A    between atoms: C_23  and  N_25
REMARK                            x       y       z     vdW  Elec       q    Type
REMARK                         _______ _______ _______ _____ _____    ______ ____
ROOT
ATOM      1  F   UNL     1      35.214 -23.077 -16.925  0.00  0.00    -0.200 F 
ATOM      2  F   UNL     1      32.530 -22.679 -17.054  0.00  0.00    -0.200 F 
ATOM      3  F   UNL     1      31.996 -24.943 -12.913  0.00  0.00    -0.203 F 
ATOM      4  C   UNL     1      34.983 -24.214 -14.852  0.00  0.00    +0.089 C 
ATOM      5  C   UNL     1      32.227 -23.807 -14.986  0.00  0.00    +0.110 C 
ATOM      6  C   UNL     1      34.430 -23.537 -15.939  0.00  0.00    +0.182 C 
ATOM      7  C   UNL     1      34.158 -24.687 -13.832  0.00  0.00    +0.048 C 
ATOM      8  C   UNL     1      33.052 -23.333 -16.005  0.00  0.00    +0.184 C 
ATOM      9  C   UNL     1      32.781 -24.483 -13.899  0.00  0.00    +0.157 C 
ENDROOT
BRANCH   5  11
ATOM     10  O   UNL     1      26.802 -23.019 -15.341  0.00  0.00    -0.291 OA
ATOM     11  N   UNL     1      30.824 -23.602 -15.055  0.00  0.00    -0.282 N 
ATOM     12  C   UNL     1      29.992 -24.740 -15.484  0.00  0.00    +0.104 C 
ATOM     13  C   UNL     1      28.702 -24.255 -16.145  0.00  0.00    +0.091 C 
ATOM     14  C   UNL     1      30.196 -22.463 -14.573  0.00  0.00    +0.068 C 
ATOM     15  C   UNL     1      28.023 -23.162 -15.345  0.00  0.00    +0.176 C 
ATOM     16  C   UNL     1      28.888 -22.196 -14.631  0.00  0.00    +0.054 C 
ENDBRANCH   5  11
BRANCH   4  19
ATOM     17  O   UNL     1      38.618 -24.074 -14.697  0.00  0.00    -0.434 OA
ATOM     18  O   UNL     1      37.296 -22.238 -14.841  0.00  0.00    -0.226 OA
ATOM     19  N   UNL     1      36.390 -24.423 -14.781  0.00  0.00    -0.219 N 
ATOM     20  C   UNL     1      38.423 -25.468 -14.422  0.00  0.00    +0.210 C 
ATOM     21  C   UNL     1      36.986 -25.732 -14.818  0.00  0.00    +0.147 C 
ATOM     22  C   UNL     1      37.391 -23.455 -14.771  0.00  0.00    +0.409 C 
BRANCH  20  23
ATOM     23  C   UNL     1      38.695 -25.720 -12.945  0.00  0.00    +0.134 C 
BRANCH  23  25
ATOM     24  O   UNL     1      35.341 -25.351 -10.251  0.00  0.00    -0.349 OA
ATOM     25  N   UNL     1      38.204 -24.616 -12.160  0.00  0.00    -0.312 N 
ATOM     26  N   UNL     1      36.319 -25.762 -11.149  0.00  0.00    -0.062 NA
ATOM     27  C   UNL     1      37.090 -24.687 -11.337  0.00  0.00    +0.171 C 
ATOM     28  C   UNL     1      36.652 -23.580 -10.592  0.00  0.00    +0.081 C 
ATOM     29  C   UNL     1      35.551 -24.049  -9.927  0.00  0.00    +0.215 C 
ATOM     30  H   UNL     1      38.689 -23.759 -12.212  0.00  0.00    +0.148 HD
ENDBRANCH  23  25
ENDBRANCH  20  23
ENDBRANCH   4  19
TORSDOF 4
ENDMDL
MODEL 3
REMARK VINA RESULT:     -11.4      8.773     13.733
REMARK  Name = 25184541
REMARK  4 active torsions:
REMARK  status: ('A' for Active; 'I' for Inactive)
REMARK    1  A    between atoms: C_4  and  N_19
REMARK    2  A    between atoms: C_5  and  N_11
REMARK    3  A    between atoms: C_20  and  C_23
REMARK    4  A    between atoms: C_23  and  N_25
REMARK                            x       y       z     vdW  Elec       q    Type
REMARK                         _______ _______ _______ _____ _____    ______ ____
ROOT
ATOM      1  F   UNL     1      31.024 -11.163 -20.567  0.00  0.00    -0.200 F 
ATOM      2  F   UNL     1      31.819 -13.538 -21.617  0.00  0.00    -0.200 F 
ATOM      3  F   UNL     1      34.580 -11.240 -24.724  0.00  0.00    -0.203 F 
ATOM      4  C   UNL     1      32.394  -9.982 -22.105  0.00  0.00    +0.089 C 
ATOM      5  C   UNL     1      33.209 -12.421 -23.185  0.00  0.00    +0.110 C 
ATOM      6  C   UNL     1      31.895 -11.176 -21.586  0.00  0.00    +0.182 C 
ATOM      7  C   UNL     1      33.301 -10.008 -23.165  0.00  0.00    +0.048 C 
ATOM      8  C   UNL     1      32.303 -12.396 -22.126  0.00  0.00    +0.184 C 
ATOM      9  C   UNL     1      33.708 -11.227 -23.704  0.00  0.00    +0.157 C 
ENDROOT
BRANCH   5  11
ATOM     10  O   UNL     1      34.723 -17.252 -25.319  0.00  0.00    -0.291 OA
ATOM     11  N   UNL     1      33.622 -13.663 -23.737  0.00  0.00    -0.282 N 
ATOM     12  C   UNL     1      33.263 -13.936 -25.139  0.00  0.00    +0.104 C 
ATOM     13  C   UNL     1      33.144 -15.439 -25.389  0.00  0.00    +0.091 C 
ATOM     14  C   UNL     1      34.487 -14.533 -23.089  0.00  0.00    +0.068 C 
ATOM     15  C   UNL     1      34.311 -16.212 -24.810  0.00  0.00    +0.176 C 
ATOM     16  C   UNL     1      34.892 -15.725 -23.538  0.00  0.00    +0.054 C 
ENDBRANCH   5  11
BRANCH   4  19
ATOM     17  O   UNL     1      31.583  -7.038 -20.123  0.00  0.00    -0.434 OA
ATOM     18  O   UNL     1      32.593  -8.884 -19.276  0.00  0.00    -0.226 OA
ATOM     19  N   UNL     1      31.980  -8.735 -21.556  0.00  0.00    -0.219 N 
ATOM     20  C   UNL     1      31.292  -6.529 -21.431  0.00  0.00    +0.210 C 
ATOM     21  C   UNL     1      31.236  -7.761 -22.309  0.00  0.00    +0.147 C 
ATOM     22  C   UNL     1      32.118  -8.301 -20.241  0.00  0.00    +0.409 C 
BRANCH  20  23
ATOM     23  C   UNL     1      32.390  -5.554 -21.835  0.00  0.00    +0.134 C 
BRANCH  23  25
ATOM     24  O   UNL     1      34.869  -5.762 -25.363  0.00  0.00    -0.349 OA
ATOM     25  N   UNL     1      32.179  -5.112 -23.190  0.00  0.00    -0.312 N 
ATOM     26  N   UNL     1      34.312  -5.838 -24.093  0.00  0.00    -0.062 NA
ATOM     27  C   UNL     1      33.109  -5.268 -24.207  0.00  0.00    +0.171 C 
ATOM     28  C   UNL     1      32.855  -4.819 -25.514  0.00  0.00    +0.081 C 
ATOM     29  C   UNL     1      33.991  -5.153 -26.201  0.00  0.00    +0.215 C 
ATOM     30  H   UNL     1      31.324  -4.672 -23.406  0.00  0.00    +0.148 HD
ENDBRANCH  23  25
ENDBRANCH  20  23
ENDBRANCH   4  19
TORSDOF 4
ENDMDL
MODEL 4
REMARK VINA RESULT:     -11.3      3.275      9.110
REMARK  Name = 25184541
REMARK  4 active torsions:
REMARK  status: ('A' for Active; 'I' for Inactive)
REMARK    1  A    between atoms: C_4  and  N_19
REMARK    2  A    between atoms: C_5  and  N_11
REMARK    3  A    between atoms: C_20  and  C_23
REMARK    4  A    between atoms: C_23  and  N_25
REMARK                            x       y       z     vdW  Elec       q    Type
REMARK                         _______ _______ _______ _____ _____    ______ ____
ROOT
ATOM      1  F   UNL     1      37.157 -20.912 -18.108  0.00  0.00    -0.200 F 
ATOM      2  F   UNL     1      37.693 -22.271 -15.818  0.00  0.00    -0.200 F 
ATOM      3  F   UNL     1      33.340 -24.168 -15.926  0.00  0.00    -0.203 F 
ATOM      4  C   UNL     1      34.973 -21.843 -18.193  0.00  0.00    +0.089 C 
ATOM      5  C   UNL     1      35.523 -23.237 -15.841  0.00  0.00    +0.110 C 
ATOM      6  C   UNL     1      36.217 -21.708 -17.577  0.00  0.00    +0.182 C 
ATOM      7  C   UNL     1      34.004 -22.675 -17.633  0.00  0.00    +0.048 C 
ATOM      8  C   UNL     1      36.492 -22.406 -16.401  0.00  0.00    +0.184 C 
ATOM      9  C   UNL     1      34.279 -23.372 -16.457  0.00  0.00    +0.157 C 
ENDROOT
BRANCH   5  11
ATOM     10  O   UNL     1      36.659 -25.912 -11.179  0.00  0.00    -0.291 OA
ATOM     11  N   UNL     1      35.802 -23.945 -14.642  0.00  0.00    -0.282 N 
ATOM     12  C   UNL     1      35.310 -23.365 -13.380  0.00  0.00    +0.104 C 
ATOM     13  C   UNL     1      36.189 -23.789 -12.204  0.00  0.00    +0.091 C 
ATOM     14  C   UNL     1      36.345 -25.221 -14.620  0.00  0.00    +0.068 C 
ATOM     15  C   UNL     1      36.485 -25.274 -12.214  0.00  0.00    +0.176 C 
ATOM     16  C   UNL     1      36.657 -25.930 -13.531  0.00  0.00    +0.054 C 
ENDBRANCH   5  11
BRANCH   4  19
ATOM     17  O   UNL     1      33.605 -20.069 -21.063  0.00  0.00    -0.434 OA
ATOM     18  O   UNL     1      32.337 -20.888 -19.372  0.00  0.00    -0.226 OA
ATOM     19  N   UNL     1      34.690 -21.133 -19.394  0.00  0.00    -0.219 N 
ATOM     20  C   UNL     1      35.003 -19.841 -21.289  0.00  0.00    +0.210 C 
ATOM     21  C   UNL     1      35.697 -20.829 -20.376  0.00  0.00    +0.147 C 
ATOM     22  C   UNL     1      33.445 -20.721 -19.862  0.00  0.00    +0.409 C 
BRANCH  20  23
ATOM     23  C   UNL     1      35.324 -18.390 -20.956  0.00  0.00    +0.134 C 
BRANCH  23  25
ATOM     24  O   UNL     1      34.210 -14.275 -21.640  0.00  0.00    -0.349 OA
ATOM     25  N   UNL     1      35.275 -17.589 -22.153  0.00  0.00    -0.312 N 
ATOM     26  N   UNL     1      34.502 -15.531 -21.124  0.00  0.00    -0.062 NA
ATOM     27  C   UNL     1      34.884 -16.259 -22.178  0.00  0.00    +0.171 C 
ATOM     28  C   UNL     1      34.854 -15.522 -23.373  0.00  0.00    +0.081 C 
ATOM     29  C   UNL     1      34.424 -14.282 -22.981  0.00  0.00    +0.215 C 
ATOM     30  H   UNL     1      35.534 -18.013 -23.004  0.00  0.00    +0.148 HD
ENDBRANCH  23  25
ENDBRANCH  20  23
ENDBRANCH   4  19
TORSDOF 4
ENDMDL
MODEL 5
REMARK VINA RESULT:     -11.3      8.706     13.821
REMARK  Name = 25184541
REMARK  4 active torsions:
REMARK  status: ('A' for Active; 'I' for Inactive)
REMARK    1  A    between atoms: C_4  and  N_19
REMARK    2  A    between atoms: C_5  and  N_11
REMARK    3  A    between atoms: C_20  and  C_23
REMARK    4  A    between atoms: C_23  and  N_25
REMARK                            x       y       z     vdW  Elec       q    Type
REMARK                         _______ _______ _______ _____ _____    ______ ____
ROOT
ATOM      1  F   UNL     1      33.783  -9.005 -23.691  0.00  0.00    -0.200 F 
ATOM      2  F   UNL     1      34.564 -11.409 -24.686  0.00  0.00    -0.200 F 
ATOM      3  F   UNL     1      31.843 -13.619 -21.481  0.00  0.00    -0.203 F 
ATOM      4  C   UNL     1      32.411 -10.077 -22.075  0.00  0.00    +0.089 C 
ATOM      5  C   UNL     1      33.215 -12.546 -23.096  0.00  0.00    +0.110 C 
ATOM      6  C   UNL     1      33.305 -10.133 -23.145  0.00  0.00    +0.182 C 
ATOM      7  C   UNL     1      31.919 -11.257 -21.516  0.00  0.00    +0.048 C 
ATOM      8  C   UNL     1      33.706 -11.367 -23.655  0.00  0.00    +0.184 C 
ATOM      9  C   UNL     1      32.321 -12.491 -22.026  0.00  0.00    +0.157 C 
ENDROOT
BRANCH   5  11
ATOM     10  O   UNL     1      34.719 -17.436 -25.096  0.00  0.00    -0.291 OA
ATOM     11  N   UNL     1      33.626 -13.803 -23.613  0.00  0.00    -0.282 N 
ATOM     12  C   UNL     1      33.269 -14.113 -25.009  0.00  0.00    +0.104 C 
ATOM     13  C   UNL     1      33.147 -15.621 -25.219  0.00  0.00    +0.091 C 
ATOM     14  C   UNL     1      34.485 -14.658 -22.940  0.00  0.00    +0.068 C 
ATOM     15  C   UNL     1      34.309 -16.382 -24.616  0.00  0.00    +0.176 C 
ATOM     16  C   UNL     1      34.888 -15.863 -23.356  0.00  0.00    +0.054 C 
ENDBRANCH   5  11
BRANCH   4  19
ATOM     17  O   UNL     1      31.593  -7.096 -20.152  0.00  0.00    -0.434 OA
ATOM     18  O   UNL     1      32.576  -8.935 -19.261  0.00  0.00    -0.226 OA
ATOM     19  N   UNL     1      31.999  -8.819 -21.552  0.00  0.00    -0.219 N 
ATOM     20  C   UNL     1      31.325  -6.606 -21.473  0.00  0.00    +0.210 C 
ATOM     21  C   UNL     1      31.274  -7.852 -22.332  0.00  0.00    +0.147 C 
ATOM     22  C   UNL     1      32.120  -8.365 -20.242  0.00  0.00    +0.409 C 
BRANCH  20  23
ATOM     23  C   UNL     1      32.437  -5.645 -21.876  0.00  0.00    +0.134 C 
BRANCH  23  25
ATOM     24  O   UNL     1      34.966  -5.733 -25.374  0.00  0.00    -0.349 OA
ATOM     25  N   UNL     1      32.229  -5.194 -23.229  0.00  0.00    -0.312 N 
ATOM     26  N   UNL     1      34.396  -5.841 -24.112  0.00  0.00    -0.062 NA
ATOM     27  C   UNL     1      33.176  -5.309 -24.235  0.00  0.00    +0.171 C 
ATOM     28  C   UNL     1      32.924  -4.852 -25.539  0.00  0.00    +0.081 C 
ATOM     29  C   UNL     1      34.079  -5.142 -26.216  0.00  0.00    +0.215 C 
ATOM     30  H   UNL     1      31.364  -4.779 -23.451  0.00  0.00    +0.148 HD
ENDBRANCH  23  25
ENDBRANCH  20  23
ENDBRANCH   4  19
TORSDOF 4
ENDMDL
MODEL 6
REMARK VINA RESULT:     -11.2      9.526     14.190
REMARK  Name = 25184541
REMARK  4 active torsions:
REMARK  status: ('A' for Active; 'I' for Inactive)
REMARK    1  A    between atoms: C_4  and  N_19
REMARK    2  A    between atoms: C_5  and  N_11
REMARK    3  A    between atoms: C_20  and  C_23
REMARK    4  A    between atoms: C_23  and  N_25
REMARK                            x       y       z     vdW  Elec       q    Type
REMARK                         _______ _______ _______ _____ _____    ______ ____
ROOT
ATOM      1  F   UNL     1      30.959 -10.963 -20.557  0.00  0.00    -0.200 F 
ATOM      2  F   UNL     1      31.769 -13.369 -21.523  0.00  0.00    -0.200 F 
ATOM      3  F   UNL     1      34.559 -11.165 -24.672  0.00  0.00    -0.203 F 
ATOM      4  C   UNL     1      32.343  -9.829 -22.118  0.00  0.00    +0.089 C 
ATOM      5  C   UNL     1      33.174 -12.300 -23.111  0.00  0.00    +0.110 C 
ATOM      6  C   UNL     1      31.841 -11.007 -21.566  0.00  0.00    +0.182 C 
ATOM      7  C   UNL     1      33.262  -9.886 -23.167  0.00  0.00    +0.048 C 
ATOM      8  C   UNL     1      32.256 -12.243 -22.063  0.00  0.00    +0.184 C 
ATOM      9  C   UNL     1      33.676 -11.121 -23.663  0.00  0.00    +0.157 C 
ENDROOT
BRANCH   5  11
ATOM     10  O   UNL     1      34.717 -17.192 -25.077  0.00  0.00    -0.291 OA
ATOM     11  N   UNL     1      33.594 -13.557 -23.619  0.00  0.00    -0.282 N 
ATOM     12  C   UNL     1      33.271 -13.866 -25.023  0.00  0.00    +0.104 C 
ATOM     13  C   UNL     1      33.151 -15.374 -25.237  0.00  0.00    +0.091 C 
ATOM     14  C   UNL     1      34.436 -14.414 -22.926  0.00  0.00    +0.068 C 
ATOM     15  C   UNL     1      34.297 -16.137 -24.606  0.00  0.00    +0.176 C 
ATOM     16  C   UNL     1      34.846 -15.620 -23.332  0.00  0.00    +0.054 C 
ENDBRANCH   5  11
BRANCH   4  19
ATOM     17  O   UNL     1      31.519  -6.820 -20.241  0.00  0.00    -0.434 OA
ATOM     18  O   UNL     1      32.552  -8.623 -19.333  0.00  0.00    -0.226 OA
ATOM     19  N   UNL     1      31.922  -8.566 -21.613  0.00  0.00    -0.219 N 
ATOM     20  C   UNL     1      31.214  -6.363 -21.565  0.00  0.00    +0.210 C 
ATOM     21  C   UNL     1      31.164  -7.627 -22.397  0.00  0.00    +0.147 C 
ATOM     22  C   UNL     1      32.064  -8.082 -20.315  0.00  0.00    +0.409 C 
BRANCH  20  23
ATOM     23  C   UNL     1      32.300  -5.394 -22.014  0.00  0.00    +0.134 C 
BRANCH  23  25
ATOM     24  O   UNL     1      29.890  -2.028 -23.238  0.00  0.00    -0.349 OA
ATOM     25  N   UNL     1      31.977  -4.860 -23.312  0.00  0.00    -0.312 N 
ATOM     26  N   UNL     1      30.584  -3.021 -22.558  0.00  0.00    -0.062 NA
ATOM     27  C   UNL     1      31.170  -3.750 -23.512  0.00  0.00    +0.171 C 
ATOM     28  C   UNL     1      30.885  -3.269 -24.801  0.00  0.00    +0.081 C 
ATOM     29  C   UNL     1      30.077  -2.186 -24.574  0.00  0.00    +0.215 C 
ATOM     30  H   UNL     1      32.350  -5.312 -24.105  0.00  0.00    +0.148 HD
ENDBRANCH  23  25
ENDBRANCH  20  23
ENDBRANCH   4  19
TORSDOF 4
ENDMDL
MODEL 7
REMARK VINA RESULT:     -11.0      2.370      3.271
REMARK  Name = 25184541
REMARK  4 active torsions:
REMARK  status: ('A' for Active; 'I' for Inactive)
REMARK    1  A    between atoms: C_4  and  N_19
REMARK    2  A    between atoms: C_5  and  N_11
REMARK    3  A    between atoms: C_20  and  C_23
REMARK    4  A    between atoms: C_23  and  N_25
REMARK                            x       y       z     vdW  Elec       q    Type
REMARK                         _______ _______ _______ _____ _____    ______ ____
ROOT
ATOM      1  F   UNL     1      32.745 -21.838 -18.597  0.00  0.00    -0.200 F 
ATOM      2  F   UNL     1      32.560 -20.150 -20.717  0.00  0.00    -0.200 F 
ATOM      3  F   UNL     1      37.289 -19.704 -20.773  0.00  0.00    -0.203 F 
ATOM      4  C   UNL     1      35.111 -21.638 -18.596  0.00  0.00    +0.089 C 
ATOM      5  C   UNL     1      34.922 -19.904 -20.773  0.00  0.00    +0.110 C 
ATOM      6  C   UNL     1      33.862 -21.317 -19.126  0.00  0.00    +0.182 C 
ATOM      7  C   UNL     1      36.267 -21.091 -19.156  0.00  0.00    +0.048 C 
ATOM      8  C   UNL     1      33.767 -20.450 -20.215  0.00  0.00    +0.184 C 
ATOM      9  C   UNL     1      36.172 -20.224 -20.243  0.00  0.00    +0.157 C 
ENDROOT
BRANCH   5  11
ATOM     10  O   UNL     1      34.493 -16.428 -25.006  0.00  0.00    -0.291 OA
ATOM     11  N   UNL     1      34.826 -19.018 -21.879  0.00  0.00    -0.282 N 
ATOM     12  C   UNL     1      35.458 -17.694 -21.747  0.00  0.00    +0.104 C 
ATOM     13  C   UNL     1      34.754 -16.663 -22.627  0.00  0.00    +0.091 C 
ATOM     14  C   UNL     1      34.333 -19.400 -23.118  0.00  0.00    +0.068 C 
ATOM     15  C   UNL     1      34.509 -17.176 -24.031  0.00  0.00    +0.176 C 
ATOM     16  C   UNL     1      34.190 -18.613 -24.189  0.00  0.00    +0.054 C 
ENDBRANCH   5  11
BRANCH   4  19
ATOM     17  O   UNL     1      36.011 -23.699 -15.733  0.00  0.00    -0.434 OA
ATOM     18  O   UNL     1      37.465 -22.321 -16.795  0.00  0.00    -0.226 OA
ATOM     19  N   UNL     1      35.212 -22.523 -17.486  0.00  0.00    -0.219 N 
ATOM     20  C   UNL     1      34.590 -23.896 -15.729  0.00  0.00    +0.210 C 
ATOM     21  C   UNL     1      34.137 -23.391 -17.083  0.00  0.00    +0.147 C 
ATOM     22  C   UNL     1      36.333 -22.774 -16.701  0.00  0.00    +0.409 C 
BRANCH  20  23
ATOM     23  C   UNL     1      33.989 -23.116 -14.567  0.00  0.00    +0.134 C 
BRANCH  23  25
ATOM     24  O   UNL     1      34.784 -25.098 -10.815  0.00  0.00    -0.349 OA
ATOM     25  N   UNL     1      34.989 -22.897 -13.553  0.00  0.00    -0.312 N 
ATOM     26  N   UNL     1      34.297 -24.667 -12.043  0.00  0.00    -0.062 NA
ATOM     27  C   UNL     1      35.090 -23.649 -12.392  0.00  0.00    +0.171 C 
ATOM     28  C   UNL     1      36.084 -23.395 -11.433  0.00  0.00    +0.081 C 
ATOM     29  C   UNL     1      35.849 -24.332 -10.462  0.00  0.00    +0.215 C 
ATOM     30  H   UNL     1      35.639 -22.169 -13.692  0.00  0.00    +0.148 HD
ENDBRANCH  23  25
ENDBRANCH  20  23
ENDBRANCH   4  19
TORSDOF 4
ENDMDL
MODEL 8
REMARK VINA RESULT:     -10.8      9.729     14.438
REMARK  Name = 25184541
REMARK  4 active torsions:
REMARK  status: ('A' for Active; 'I' for Inactive)
REMARK    1  A    between atoms: C_4  and  N_19
REMARK    2  A    between atoms: C_5  and  N_11
REMARK    3  A    between atoms: C_20  and  C_23
REMARK    4  A    between atoms: C_23  and  N_25
REMARK                            x       y       z     vdW  Elec       q    Type
REMARK                         _______ _______ _______ _____ _____    ______ ____
ROOT
ATOM      1  F   UNL     1      33.781  -8.841 -23.678  0.00  0.00    -0.200 F 
ATOM      2  F   UNL     1      34.537 -11.339 -24.428  0.00  0.00    -0.200 F 
ATOM      3  F   UNL     1      31.538 -13.200 -21.249  0.00  0.00    -0.203 F 
ATOM      4  C   UNL     1      32.271  -9.737 -22.079  0.00  0.00    +0.089 C 
ATOM      5  C   UNL     1      33.049 -12.303 -22.848  0.00  0.00    +0.110 C 
ATOM      6  C   UNL     1      33.229  -9.906 -23.079  0.00  0.00    +0.182 C 
ATOM      7  C   UNL     1      31.702 -10.852 -21.464  0.00  0.00    +0.048 C 
ATOM      8  C   UNL     1      33.617 -11.189 -23.464  0.00  0.00    +0.184 C 
ATOM      9  C   UNL     1      32.091 -12.135 -21.848  0.00  0.00    +0.157 C 
ENDROOT
BRANCH   5  11
ATOM     10  O   UNL     1      34.671 -17.333 -24.347  0.00  0.00    -0.291 OA
ATOM     11  N   UNL     1      33.446 -13.609 -23.237  0.00  0.00    -0.282 N 
ATOM     12  C   UNL     1      34.050 -14.472 -22.206  0.00  0.00    +0.104 C 
ATOM     13  C   UNL     1      34.998 -15.492 -22.835  0.00  0.00    +0.091 C 
ATOM     14  C   UNL     1      33.133 -14.165 -24.469  0.00  0.00    +0.068 C 
ATOM     15  C   UNL     1      34.388 -16.177 -24.040  0.00  0.00    +0.176 C 
ATOM     16  C   UNL     1      33.498 -15.373 -24.908  0.00  0.00    +0.054 C 
ENDBRANCH   5  11
BRANCH   4  19
ATOM     17  O   UNL     1      31.512  -6.560 -20.471  0.00  0.00    -0.434 OA
ATOM     18  O   UNL     1      32.541  -8.285 -19.419  0.00  0.00    -0.226 OA
ATOM     19  N   UNL     1      31.872  -8.428 -21.684  0.00  0.00    -0.219 N 
ATOM     20  C   UNL     1      31.188  -6.222 -21.827  0.00  0.00    +0.210 C 
ATOM     21  C   UNL     1      31.110  -7.556 -22.538  0.00  0.00    +0.147 C 
ATOM     22  C   UNL     1      32.042  -7.830 -20.439  0.00  0.00    +0.409 C 
BRANCH  20  23
ATOM     23  C   UNL     1      32.277  -5.311 -22.380  0.00  0.00    +0.134 C 
BRANCH  23  25
ATOM     24  O   UNL     1      29.860  -1.820 -23.162  0.00  0.00    -0.349 OA
ATOM     25  N   UNL     1      31.830  -4.701 -23.606  0.00  0.00    -0.312 N 
ATOM     26  N   UNL     1      30.591  -2.866 -22.613  0.00  0.00    -0.062 NA
ATOM     27  C   UNL     1      31.045  -3.560 -23.661  0.00  0.00    +0.171 C 
ATOM     28  C   UNL     1      30.635  -3.005 -24.885  0.00  0.00    +0.081 C 
ATOM     29  C   UNL     1      29.894  -1.913 -24.516  0.00  0.00    +0.215 C 
ATOM     30  H   UNL     1      32.099  -5.121 -24.456  0.00  0.00    +0.148 HD
ENDBRANCH  23  25
ENDBRANCH  20  23
ENDBRANCH   4  19
TORSDOF 4
ENDMDL
MODEL 9
REMARK VINA RESULT:     -10.8      2.552      4.137
REMARK  Name = 25184541
REMARK  4 active torsions:
REMARK  status: ('A' for Active; 'I' for Inactive)
REMARK    1  A    between atoms: C_4  and  N_19
REMARK    2  A    between atoms: C_5  and  N_11
REMARK    3  A    between atoms: C_20  and  C_23
REMARK    4  A    between atoms: C_23  and  N_25
REMARK                            x       y       z     vdW  Elec       q    Type
REMARK                         _______ _______ _______ _____ _____    ______ ____
ROOT
ATOM      1  F   UNL     1      32.363 -21.668 -18.659  0.00  0.00    -0.200 F 
ATOM      2  F   UNL     1      32.371 -20.047 -20.838  0.00  0.00    -0.200 F 
ATOM      3  F   UNL     1      37.119 -19.960 -20.755  0.00  0.00    -0.203 F 
ATOM      4  C   UNL     1      34.737 -21.647 -18.588  0.00  0.00    +0.089 C 
ATOM      5  C   UNL     1      34.745 -19.981 -20.825  0.00  0.00    +0.110 C 
ATOM      6  C   UNL     1      33.531 -21.252 -19.168  0.00  0.00    +0.182 C 
ATOM      7  C   UNL     1      35.947 -21.209 -19.127  0.00  0.00    +0.048 C 
ATOM      8  C   UNL     1      33.536 -20.419 -20.287  0.00  0.00    +0.184 C 
ATOM      9  C   UNL     1      35.950 -20.376 -20.245  0.00  0.00    +0.157 C 
ENDROOT
BRANCH   5  11
ATOM     10  O   UNL     1      34.707 -16.635 -25.183  0.00  0.00    -0.291 OA
ATOM     11  N   UNL     1      34.749 -19.131 -21.962  0.00  0.00    -0.282 N 
ATOM     12  C   UNL     1      35.467 -17.849 -21.850  0.00  0.00    +0.104 C 
ATOM     13  C   UNL     1      34.868 -16.803 -22.789  0.00  0.00    +0.091 C 
ATOM     14  C   UNL     1      34.275 -19.521 -23.206  0.00  0.00    +0.068 C 
ATOM     15  C   UNL     1      34.637 -17.347 -24.183  0.00  0.00    +0.176 C 
ATOM     16  C   UNL     1      34.224 -18.764 -24.307  0.00  0.00    +0.054 C 
ENDBRANCH   5  11
BRANCH   4  19
ATOM     17  O   UNL     1      34.382 -24.243 -16.061  0.00  0.00    -0.434 OA
ATOM     18  O   UNL     1      33.526 -24.403 -18.155  0.00  0.00    -0.226 OA
ATOM     19  N   UNL     1      34.736 -22.498 -17.446  0.00  0.00    -0.219 N 
ATOM     20  C   UNL     1      35.315 -23.386 -15.389  0.00  0.00    +0.210 C 
ATOM     21  C   UNL     1      35.266 -22.091 -16.172  0.00  0.00    +0.147 C 
ATOM     22  C   UNL     1      34.163 -23.761 -17.331  0.00  0.00    +0.409 C 
BRANCH  20  23
ATOM     23  C   UNL     1      36.689 -24.045 -15.407  0.00  0.00    +0.134 C 
BRANCH  23  25
ATOM     24  O   UNL     1      38.003 -22.693 -11.523  0.00  0.00    -0.349 OA
ATOM     25  N   UNL     1      36.914 -24.744 -14.167  0.00  0.00    -0.312 N 
ATOM     26  N   UNL     1      37.610 -22.828 -12.849  0.00  0.00    -0.062 NA
ATOM     27  C   UNL     1      37.345 -24.129 -13.001  0.00  0.00    +0.171 C 
ATOM     28  C   UNL     1      37.549 -24.857 -11.817  0.00  0.00    +0.081 C 
ATOM     29  C   UNL     1      37.962 -23.909 -10.919  0.00  0.00    +0.215 C 
ATOM     30  H   UNL     1      36.753 -25.716 -14.148  0.00  0.00    +0.148 HD
ENDBRANCH  23  25
ENDBRANCH  20  23
ENDBRANCH   4  19
TORSDOF 4
ENDMDL
