MODEL 1
REMARK VINA RESULT:     -11.5      0.000      0.000
REMARK  Name = 24812758
REMARK  9 active torsions:
REMARK  status: ('A' for Active; 'I' for Inactive)
REMARK    1  A    between atoms: C_1  and  C_11
REMARK    2  A    between atoms: C_4  and  C_23
REMARK    3  A    between atoms: C_9  and  O_14
REMARK    4  A    between atoms: C_10  and  O_16
REMARK    5  A    between atoms: C_12  and  O_18
REMARK    6  A    between atoms: C_13  and  C_20
REMARK    7  A    between atoms: C_20  and  O_21
REMARK    8  A    between atoms: C_23  and  C_25
REMARK    9  A    between atoms: C_27  and  C_30
REMARK                            x       y       z     vdW  Elec       q    Type
REMARK                         _______ _______ _______ _____ _____    ______ ____
ROOT
ATOM      1  C   UNL     1      34.106 -24.219 -13.955  0.00  0.00    +0.007 C 
ATOM      2  C   UNL     1      33.894 -24.055 -15.324  0.00  0.00    -0.006 C 
ATOM      3  C   UNL     1      33.094 -23.901 -13.049  0.00  0.00    -0.002 C 
ATOM      4  C   UNL     1      32.670 -23.574 -15.788  0.00  0.00    -0.021 C 
ATOM      5  C   UNL     1      31.657 -23.257 -14.882  0.00  0.00    -0.025 C 
ATOM      6  C   UNL     1      31.870 -23.420 -13.514  0.00  0.00    -0.005 C 
ATOM      7  C   UNL     1      30.338 -22.741 -15.354  0.00  0.00    +0.031 C 
ENDROOT
BRANCH   1  11
ATOM      8  O   UNL     1      36.147 -23.640 -12.875  0.00  0.00    -0.347 OA
ATOM      9  C   UNL     1      36.260 -25.395 -14.572  0.00  0.00    +0.171 C 
ATOM     10  C   UNL     1      37.660 -25.769 -14.079  0.00  0.00    +0.169 C 
ATOM     11  C   UNL     1      35.437 -24.741 -13.452  0.00  0.00    +0.167 C 
ATOM     12  C   UNL     1      38.321 -24.603 -13.346  0.00  0.00    +0.169 C 
ATOM     13  C   UNL     1      37.385 -24.030 -12.280  0.00  0.00    +0.174 C 
BRANCH   9  14
ATOM     14  O   UNL     1      35.587 -26.578 -15.002  0.00  0.00    -0.379 OA
ATOM     15  H   UNL     1      35.287 -27.079 -14.228  0.00  0.00    +0.211 HD
ENDBRANCH   9  14
BRANCH  10  16
ATOM     16  O   UNL     1      38.482 -26.111 -15.196  0.00  0.00    -0.379 OA
ATOM     17  H   UNL     1      39.410 -25.923 -14.986  0.00  0.00    +0.211 HD
ENDBRANCH  10  16
BRANCH  12  18
ATOM     18  O   UNL     1      39.520 -25.058 -12.722  0.00  0.00    -0.379 OA
ATOM     19  H   UNL     1      39.299 -25.534 -11.906  0.00  0.00    +0.211 HD
ENDBRANCH  12  18
BRANCH  13  20
ATOM     20  C   UNL     1      37.980 -22.796 -11.610  0.00  0.00    +0.169 C 
BRANCH  20  21
ATOM     21  O   UNL     1      37.197 -22.480 -10.472  0.00  0.00    -0.379 OA
ATOM     22  H   UNL     1      37.195 -21.519 -10.338  0.00  0.00    +0.211 HD
ENDBRANCH  20  21
ENDBRANCH  13  20
ENDBRANCH   1  11
BRANCH   4  23
ATOM     23  C   UNL     1      32.465 -23.408 -17.258  0.00  0.00    +0.059 C 
BRANCH  23  25
ATOM     24  S   UNL     1      33.148 -21.557 -19.229  0.00  0.00    -0.091 S 
ATOM     25  C   UNL     1      33.556 -22.609 -17.941  0.00  0.00    +0.012 C 
ATOM     26  C   UNL     1      34.906 -22.594 -17.669  0.00  0.00    +0.003 C 
ATOM     27  C   UNL     1      34.780 -21.079 -19.427  0.00  0.00    +0.029 C 
ATOM     28  C   UNL     1      35.616 -21.708 -18.530  0.00  0.00    +0.007 C 
BRANCH  27  30
ATOM     29  F   UNL     1      36.041 -17.377 -23.398  0.00  0.00    -0.204 F 
ATOM     30  C   UNL     1      35.107 -20.120 -20.456  0.00  0.00    +0.006 C 
ATOM     31  C   UNL     1      34.142 -19.742 -21.390  0.00  0.00    +0.003 C 
ATOM     32  C   UNL     1      36.388 -19.571 -20.517  0.00  0.00    +0.003 C 
ATOM     33  C   UNL     1      34.457 -18.816 -22.383  0.00  0.00    +0.030 C 
ATOM     34  C   UNL     1      36.703 -18.644 -21.510  0.00  0.00    +0.030 C 
ATOM     35  C   UNL     1      35.738 -18.267 -22.444  0.00  0.00    +0.140 C 
ENDBRANCH  27  30
ENDBRANCH  23  25
ENDBRANCH   4  23
TORSDOF 9
ENDMDL
MODEL 2
REMARK VINA RESULT:     -11.5      1.493      2.140
REMARK  Name = 24812758
REMARK  9 active torsions:
REMARK  status: ('A' for Active; 'I' for Inactive)
REMARK    1  A    between atoms: C_1  and  C_11
REMARK    2  A    between atoms: C_4  and  C_23
REMARK    3  A    between atoms: C_9  and  O_14
REMARK    4  A    between atoms: C_10  and  O_16
REMARK    5  A    between atoms: C_12  and  O_18
REMARK    6  A    between atoms: C_13  and  C_20
REMARK    7  A    between atoms: C_20  and  O_21
REMARK    8  A    between atoms: C_23  and  C_25
REMARK    9  A    between atoms: C_27  and  C_30
REMARK                            x       y       z     vdW  Elec       q    Type
REMARK                         _______ _______ _______ _____ _____    ______ ____
ROOT
ATOM      1  C   UNL     1      34.531 -23.563 -14.550  0.00  0.00    +0.007 C 
ATOM      2  C   UNL     1      34.518 -23.632 -15.943  0.00  0.00    -0.006 C 
ATOM      3  C   UNL     1      33.380 -23.179 -13.860  0.00  0.00    -0.002 C 
ATOM      4  C   UNL     1      33.357 -23.316 -16.647  0.00  0.00    -0.021 C 
ATOM      5  C   UNL     1      32.206 -22.932 -15.958  0.00  0.00    -0.025 C 
ATOM      6  C   UNL     1      32.219 -22.864 -14.565  0.00  0.00    -0.005 C 
ATOM      7  C   UNL     1      30.950 -22.591 -16.689  0.00  0.00    +0.031 C 
ENDROOT
BRANCH   1  11
ATOM      8  O   UNL     1      36.826 -24.165 -14.743  0.00  0.00    -0.347 OA
ATOM      9  C   UNL     1      35.595 -25.113 -12.857  0.00  0.00    +0.171 C 
ATOM     10  C   UNL     1      36.920 -25.540 -12.219  0.00  0.00    +0.169 C 
ATOM     11  C   UNL     1      35.794 -23.905 -13.785  0.00  0.00    +0.167 C 
ATOM     12  C   UNL     1      38.025 -25.666 -13.266  0.00  0.00    +0.169 C 
ATOM     13  C   UNL     1      38.095 -24.410 -14.137  0.00  0.00    +0.174 C 
BRANCH   9  14
ATOM     14  O   UNL     1      34.678 -24.750 -11.825  0.00  0.00    -0.379 OA
ATOM     15  H   UNL     1      34.636 -23.784 -11.755  0.00  0.00    +0.211 HD
ENDBRANCH   9  14
BRANCH  10  16
ATOM     16  O   UNL     1      36.757 -26.814 -11.593  0.00  0.00    -0.379 OA
ATOM     17  H   UNL     1      36.361 -27.436 -12.224  0.00  0.00    +0.211 HD
ENDBRANCH  10  16
BRANCH  12  18
ATOM     18  O   UNL     1      39.277 -25.851 -12.609  0.00  0.00    -0.379 OA
ATOM     19  H   UNL     1      39.143 -26.370 -11.799  0.00  0.00    +0.211 HD
ENDBRANCH  12  18
BRANCH  13  20
ATOM     20  C   UNL     1      39.118 -24.556 -15.259  0.00  0.00    +0.169 C 
BRANCH  20  21
ATOM     21  O   UNL     1      39.549 -25.905 -15.303  0.00  0.00    -0.379 OA
ATOM     22  H   UNL     1      39.450 -26.247 -16.206  0.00  0.00    +0.211 HD
ENDBRANCH  20  21
ENDBRANCH  13  20
ENDBRANCH   1  11
BRANCH   4  23
ATOM     23  C   UNL     1      33.367 -23.398 -18.138  0.00  0.00    +0.059 C 
BRANCH  23  25
ATOM     24  S   UNL     1      33.437 -21.243 -19.908  0.00  0.00    -0.091 S 
ATOM     25  C   UNL     1      34.190 -22.315 -18.805  0.00  0.00    +0.012 C 
ATOM     26  C   UNL     1      35.531 -22.040 -18.650  0.00  0.00    +0.003 C 
ATOM     27  C   UNL     1      34.906 -20.407 -20.182  0.00  0.00    +0.029 C 
ATOM     28  C   UNL     1      35.946 -20.934 -19.448  0.00  0.00    +0.007 C 
BRANCH  27  30
ATOM     29  F   UNL     1      34.942 -16.118 -23.740  0.00  0.00    -0.204 F 
ATOM     30  C   UNL     1      34.916 -19.295 -21.104  0.00  0.00    +0.006 C 
ATOM     31  C   UNL     1      34.530 -19.487 -22.431  0.00  0.00    +0.003 C 
ATOM     32  C   UNL     1      35.310 -18.030 -20.668  0.00  0.00    +0.003 C 
ATOM     33  C   UNL     1      34.539 -18.414 -23.321  0.00  0.00    +0.030 C 
ATOM     34  C   UNL     1      35.318 -16.958 -21.558  0.00  0.00    +0.030 C 
ATOM     35  C   UNL     1      34.933 -17.149 -22.885  0.00  0.00    +0.140 C 
ENDBRANCH  27  30
ENDBRANCH  23  25
ENDBRANCH   4  23
TORSDOF 9
ENDMDL
MODEL 3
REMARK VINA RESULT:     -11.3      2.965      5.396
REMARK  Name = 24812758
REMARK  9 active torsions:
REMARK  status: ('A' for Active; 'I' for Inactive)
REMARK    1  A    between atoms: C_1  and  C_11
REMARK    2  A    between atoms: C_4  and  C_23
REMARK    3  A    between atoms: C_9  and  O_14
REMARK    4  A    between atoms: C_10  and  O_16
REMARK    5  A    between atoms: C_12  and  O_18
REMARK    6  A    between atoms: C_13  and  C_20
REMARK    7  A    between atoms: C_20  and  O_21
REMARK    8  A    between atoms: C_23  and  C_25
REMARK    9  A    between atoms: C_27  and  C_30
REMARK                            x       y       z     vdW  Elec       q    Type
REMARK                         _______ _______ _______ _____ _____    ______ ____
ROOT
ATOM      1  C   UNL     1      33.850 -23.198 -15.737  0.00  0.00    +0.007 C 
ATOM      2  C   UNL     1      34.365 -23.044 -17.023  0.00  0.00    -0.006 C 
ATOM      3  C   UNL     1      34.543 -22.684 -14.641  0.00  0.00    -0.002 C 
ATOM      4  C   UNL     1      35.574 -22.375 -17.215  0.00  0.00    -0.021 C 
ATOM      5  C   UNL     1      36.267 -21.860 -16.119  0.00  0.00    -0.025 C 
ATOM      6  C   UNL     1      35.752 -22.015 -14.833  0.00  0.00    -0.005 C 
ATOM      7  C   UNL     1      37.563 -21.140 -16.299  0.00  0.00    +0.031 C 
ENDROOT
BRANCH   1  11
ATOM      8  O   UNL     1      31.483 -23.044 -15.932  0.00  0.00    -0.347 OA
ATOM      9  C   UNL     1      32.349 -24.369 -14.070  0.00  0.00    +0.171 C 
ATOM     10  C   UNL     1      30.952 -24.956 -13.849  0.00  0.00    +0.169 C 
ATOM     11  C   UNL     1      32.536 -23.926 -15.529  0.00  0.00    +0.167 C 
ATOM     12  C   UNL     1      29.869 -24.043 -14.423  0.00  0.00    +0.169 C 
ATOM     13  C   UNL     1      30.194 -23.656 -15.867  0.00  0.00    +0.174 C 
BRANCH   9  14
ATOM     14  O   UNL     1      33.324 -25.366 -13.767  0.00  0.00    -0.379 OA
ATOM     15  H   UNL     1      33.178 -26.143 -14.330  0.00  0.00    +0.211 HD
ENDBRANCH   9  14
BRANCH  10  16
ATOM     16  O   UNL     1      30.712 -25.098 -12.448  0.00  0.00    -0.379 OA
ATOM     17  H   UNL     1      31.517 -25.420 -12.013  0.00  0.00    +0.211 HD
ENDBRANCH  10  16
BRANCH  12  18
ATOM     18  O   UNL     1      28.616 -24.721 -14.390  0.00  0.00    -0.379 OA
ATOM     19  H   UNL     1      28.267 -24.799 -15.292  0.00  0.00    +0.211 HD
ENDBRANCH  12  18
BRANCH  13  20
ATOM     20  C   UNL     1      29.185 -22.658 -16.426  0.00  0.00    +0.169 C 
BRANCH  20  21
ATOM     21  O   UNL     1      28.227 -23.366 -17.191  0.00  0.00    -0.379 OA
ATOM     22  H   UNL     1      28.501 -23.379 -18.122  0.00  0.00    +0.211 HD
ENDBRANCH  20  21
ENDBRANCH  13  20
ENDBRANCH   1  11
BRANCH   4  23
ATOM     23  C   UNL     1      36.106 -22.221 -18.602  0.00  0.00    +0.059 C 
BRANCH  23  25
ATOM     24  S   UNL     1      36.062 -20.298 -20.622  0.00  0.00    -0.091 S 
ATOM     25  C   UNL     1      35.279 -21.301 -19.476  0.00  0.00    +0.012 C 
ATOM     26  C   UNL     1      33.912 -21.139 -19.496  0.00  0.00    +0.003 C 
ATOM     27  C   UNL     1      34.571 -19.643 -21.148  0.00  0.00    +0.029 C 
ATOM     28  C   UNL     1      33.501 -20.177 -20.465  0.00  0.00    +0.007 C 
BRANCH  27  30
ATOM     29  F   UNL     1      34.589 -15.804 -25.189  0.00  0.00    -0.204 F 
ATOM     30  C   UNL     1      34.576 -18.648 -22.195  0.00  0.00    +0.006 C 
ATOM     31  C   UNL     1      34.104 -18.972 -23.467  0.00  0.00    +0.003 C 
ATOM     32  C   UNL     1      35.052 -17.363 -21.935  0.00  0.00    +0.003 C 
ATOM     33  C   UNL     1      34.108 -18.012 -24.479  0.00  0.00    +0.030 C 
ATOM     34  C   UNL     1      35.056 -16.403 -22.946  0.00  0.00    +0.030 C 
ATOM     35  C   UNL     1      34.584 -16.727 -24.218  0.00  0.00    +0.140 C 
ENDBRANCH  27  30
ENDBRANCH  23  25
ENDBRANCH   4  23
TORSDOF 9
ENDMDL
MODEL 4
REMARK VINA RESULT:     -10.0      6.954     10.729
REMARK  Name = 24812758
REMARK  9 active torsions:
REMARK  status: ('A' for Active; 'I' for Inactive)
REMARK    1  A    between atoms: C_1  and  C_11
REMARK    2  A    between atoms: C_4  and  C_23
REMARK    3  A    between atoms: C_9  and  O_14
REMARK    4  A    between atoms: C_10  and  O_16
REMARK    5  A    between atoms: C_12  and  O_18
REMARK    6  A    between atoms: C_13  and  C_20
REMARK    7  A    between atoms: C_20  and  O_21
REMARK    8  A    between atoms: C_23  and  C_25
REMARK    9  A    between atoms: C_27  and  C_30
REMARK                            x       y       z     vdW  Elec       q    Type
REMARK                         _______ _______ _______ _____ _____    ______ ____
ROOT
ATOM      1  C   UNL     1      34.459 -18.109 -23.329  0.00  0.00    +0.007 C 
ATOM      2  C   UNL     1      34.887 -16.788 -23.205  0.00  0.00    -0.006 C 
ATOM      3  C   UNL     1      33.554 -18.458 -24.332  0.00  0.00    -0.002 C 
ATOM      4  C   UNL     1      34.410 -15.814 -24.083  0.00  0.00    -0.021 C 
ATOM      5  C   UNL     1      33.505 -16.164 -25.086  0.00  0.00    -0.025 C 
ATOM      6  C   UNL     1      33.077 -17.485 -25.210  0.00  0.00    -0.005 C 
ATOM      7  C   UNL     1      32.980 -15.140 -26.038  0.00  0.00    +0.031 C 
ENDROOT
BRANCH   1  11
ATOM      8  O   UNL     1      33.908 -19.514 -21.488  0.00  0.00    -0.347 OA
ATOM      9  C   UNL     1      36.203 -18.680 -21.587  0.00  0.00    +0.171 C 
ATOM     10  C   UNL     1      36.610 -19.698 -20.519  0.00  0.00    +0.169 C 
ATOM     11  C   UNL     1      34.977 -19.167 -22.375  0.00  0.00    +0.167 C 
ATOM     12  C   UNL     1      35.407 -20.144 -19.690  0.00  0.00    +0.169 C 
ATOM     13  C   UNL     1      34.251 -20.575 -20.596  0.00  0.00    +0.174 C 
BRANCH   9  14
ATOM     14  O   UNL     1      37.289 -18.502 -22.497  0.00  0.00    -0.379 OA
ATOM     15  H   UNL     1      36.943 -18.400 -23.397  0.00  0.00    +0.211 HD
ENDBRANCH   9  14
BRANCH  10  16
ATOM     16  O   UNL     1      37.560 -19.104 -19.634  0.00  0.00    -0.379 OA
ATOM     17  H   UNL     1      37.268 -19.225 -18.717  0.00  0.00    +0.211 HD
ENDBRANCH  10  16
BRANCH  12  18
ATOM     18  O   UNL     1      35.786 -21.240 -18.861  0.00  0.00    -0.379 OA
ATOM     19  H   UNL     1      36.675 -21.540 -19.109  0.00  0.00    +0.211 HD
ENDBRANCH  12  18
BRANCH  13  20
ATOM     20  C   UNL     1      33.001 -20.920 -19.793  0.00  0.00    +0.169 C 
BRANCH  20  21
ATOM     21  O   UNL     1      33.071 -22.283 -19.415  0.00  0.00    -0.379 OA
ATOM     22  H   UNL     1      32.278 -22.519 -18.908  0.00  0.00    +0.211 HD
ENDBRANCH  20  21
ENDBRANCH  13  20
ENDBRANCH   1  11
BRANCH   4  23
ATOM     23  C   UNL     1      34.882 -14.406 -23.931  0.00  0.00    +0.059 C 
BRANCH  23  25
ATOM     24  S   UNL     1      33.982 -11.828 -23.362  0.00  0.00    -0.091 S 
ATOM     25  C   UNL     1      33.938 -13.526 -23.139  0.00  0.00    +0.012 C 
ATOM     26  C   UNL     1      32.991 -13.901 -22.212  0.00  0.00    +0.003 C 
ATOM     27  C   UNL     1      32.732 -11.592 -22.216  0.00  0.00    +0.029 C 
ATOM     28  C   UNL     1      32.292 -12.780 -21.677  0.00  0.00    +0.007 C 
BRANCH  27  30
ATOM     29  F   UNL     1      31.006  -6.402 -21.144  0.00  0.00    -0.204 F 
ATOM     30  C   UNL     1      32.284 -10.247 -21.939  0.00  0.00    +0.006 C 
ATOM     31  C   UNL     1      31.946  -9.879 -20.636  0.00  0.00    +0.003 C 
ATOM     32  C   UNL     1      32.191  -9.315 -22.973  0.00  0.00    +0.003 C 
ATOM     33  C   UNL     1      31.514  -8.581 -20.367  0.00  0.00    +0.030 C 
ATOM     34  C   UNL     1      31.759  -8.017 -22.704  0.00  0.00    +0.030 C 
ATOM     35  C   UNL     1      31.421  -7.649 -21.401  0.00  0.00    +0.140 C 
ENDBRANCH  27  30
ENDBRANCH  23  25
ENDBRANCH   4  23
TORSDOF 9
ENDMDL
MODEL 5
REMARK VINA RESULT:      -9.8      2.685      5.130
REMARK  Name = 24812758
REMARK  9 active torsions:
REMARK  status: ('A' for Active; 'I' for Inactive)
REMARK    1  A    between atoms: C_1  and  C_11
REMARK    2  A    between atoms: C_4  and  C_23
REMARK    3  A    between atoms: C_9  and  O_14
REMARK    4  A    between atoms: C_10  and  O_16
REMARK    5  A    between atoms: C_12  and  O_18
REMARK    6  A    between atoms: C_13  and  C_20
REMARK    7  A    between atoms: C_20  and  O_21
REMARK    8  A    between atoms: C_23  and  C_25
REMARK    9  A    between atoms: C_27  and  C_30
REMARK                            x       y       z     vdW  Elec       q    Type
REMARK                         _______ _______ _______ _____ _____    ______ ____
ROOT
ATOM      1  C   UNL     1      34.701 -24.200 -14.763  0.00  0.00    +0.007 C 
ATOM      2  C   UNL     1      35.289 -23.210 -15.550  0.00  0.00    -0.006 C 
ATOM      3  C   UNL     1      35.501 -25.127 -14.094  0.00  0.00    -0.002 C 
ATOM      4  C   UNL     1      36.677 -23.146 -15.670  0.00  0.00    -0.021 C 
ATOM      5  C   UNL     1      37.477 -24.074 -15.002  0.00  0.00    -0.025 C 
ATOM      6  C   UNL     1      36.889 -25.063 -14.214  0.00  0.00    -0.005 C 
ATOM      7  C   UNL     1      38.966 -24.026 -15.114  0.00  0.00    +0.031 C 
ENDROOT
BRANCH   1  11
ATOM      8  O   UNL     1      32.632 -23.352 -15.579  0.00  0.00    -0.347 OA
ATOM      9  C   UNL     1      32.722 -23.937 -13.208  0.00  0.00    +0.171 C 
ATOM     10  C   UNL     1      31.194 -23.854 -13.139  0.00  0.00    +0.169 C 
ATOM     11  C   UNL     1      33.192 -24.268 -14.632  0.00  0.00    +0.167 C 
ATOM     12  C   UNL     1      30.634 -22.977 -14.258  0.00  0.00    +0.169 C 
ATOM     13  C   UNL     1      31.205 -23.396 -15.614  0.00  0.00    +0.174 C 
BRANCH   9  14
ATOM     14  O   UNL     1      33.171 -24.966 -12.327  0.00  0.00    -0.379 OA
ATOM     15  H   UNL     1      32.571 -25.726 -12.386  0.00  0.00    +0.211 HD
ENDBRANCH   9  14
BRANCH  10  16
ATOM     16  O   UNL     1      30.806 -23.279 -11.891  0.00  0.00    -0.379 OA
ATOM     17  H   UNL     1      31.587 -23.173 -11.326  0.00  0.00    +0.211 HD
ENDBRANCH  10  16
BRANCH  12  18
ATOM     18  O   UNL     1      29.214 -23.101 -14.287  0.00  0.00    -0.379 OA
ATOM     19  H   UNL     1      28.958 -23.705 -15.003  0.00  0.00    +0.211 HD
ENDBRANCH  12  18
BRANCH  13  20
ATOM     20  C   UNL     1      30.746 -22.466 -16.732  0.00  0.00    +0.169 C 
BRANCH  20  21
ATOM     21  O   UNL     1      29.346 -22.610 -16.892  0.00  0.00    -0.379 OA
ATOM     22  H   UNL     1      28.893 -22.255 -16.111  0.00  0.00    +0.211 HD
ENDBRANCH  20  21
ENDBRANCH  13  20
ENDBRANCH   1  11
BRANCH   4  23
ATOM     23  C   UNL     1      37.284 -22.078 -16.518  0.00  0.00    +0.059 C 
BRANCH  23  25
ATOM     24  S   UNL     1      36.975 -20.443 -18.757  0.00  0.00    -0.091 S 
ATOM     25  C   UNL     1      36.438 -21.690 -17.713  0.00  0.00    +0.012 C 
ATOM     26  C   UNL     1      35.232 -22.218 -18.117  0.00  0.00    +0.003 C 
ATOM     27  C   UNL     1      35.592 -20.607 -19.752  0.00  0.00    +0.029 C 
ATOM     28  C   UNL     1      34.741 -21.590 -19.299  0.00  0.00    +0.007 C 
BRANCH  27  30
ATOM     29  F   UNL     1      35.064 -17.289 -24.199  0.00  0.00    -0.204 F 
ATOM     30  C   UNL     1      35.456 -19.747 -20.905  0.00  0.00    +0.006 C 
ATOM     31  C   UNL     1      34.310 -19.820 -21.698  0.00  0.00    +0.003 C 
ATOM     32  C   UNL     1      36.469 -18.844 -21.226  0.00  0.00    +0.003 C 
ATOM     33  C   UNL     1      34.177 -18.990 -22.810  0.00  0.00    +0.030 C 
ATOM     34  C   UNL     1      36.337 -18.014 -22.338  0.00  0.00    +0.030 C 
ATOM     35  C   UNL     1      35.191 -18.087 -23.131  0.00  0.00    +0.140 C 
ENDBRANCH  27  30
ENDBRANCH  23  25
ENDBRANCH   4  23
TORSDOF 9
ENDMDL
MODEL 6
REMARK VINA RESULT:      -9.7      8.287     12.839
REMARK  Name = 24812758
REMARK  9 active torsions:
REMARK  status: ('A' for Active; 'I' for Inactive)
REMARK    1  A    between atoms: C_1  and  C_11
REMARK    2  A    between atoms: C_4  and  C_23
REMARK    3  A    between atoms: C_9  and  O_14
REMARK    4  A    between atoms: C_10  and  O_16
REMARK    5  A    between atoms: C_12  and  O_18
REMARK    6  A    between atoms: C_13  and  C_20
REMARK    7  A    between atoms: C_20  and  O_21
REMARK    8  A    between atoms: C_23  and  C_25
REMARK    9  A    between atoms: C_27  and  C_30
REMARK                            x       y       z     vdW  Elec       q    Type
REMARK                         _______ _______ _______ _____ _____    ______ ____
ROOT
ATOM      1  C   UNL     1      33.658 -13.355 -23.379  0.00  0.00    +0.007 C 
ATOM      2  C   UNL     1      34.590 -14.289 -22.927  0.00  0.00    -0.006 C 
ATOM      3  C   UNL     1      32.876 -13.635 -24.500  0.00  0.00    -0.002 C 
ATOM      4  C   UNL     1      34.741 -15.503 -23.595  0.00  0.00    -0.021 C 
ATOM      5  C   UNL     1      33.959 -15.784 -24.716  0.00  0.00    -0.025 C 
ATOM      6  C   UNL     1      33.027 -14.850 -25.168  0.00  0.00    -0.005 C 
ATOM      7  C   UNL     1      34.101 -17.078 -25.448  0.00  0.00    +0.031 C 
ENDROOT
BRANCH   1  11
ATOM      8  O   UNL     1      32.233 -12.063 -21.977  0.00  0.00    -0.347 OA
ATOM      9  C   UNL     1      33.572 -10.836 -23.612  0.00  0.00    +0.171 C 
ATOM     10  C   UNL     1      33.245  -9.529 -22.885  0.00  0.00    +0.169 C 
ATOM     11  C   UNL     1      33.494 -12.034 -22.653  0.00  0.00    +0.167 C 
ATOM     12  C   UNL     1      31.963  -9.655 -22.064  0.00  0.00    +0.169 C 
ATOM     13  C   UNL     1      32.007 -10.902 -21.178  0.00  0.00    +0.174 C 
BRANCH   9  14
ATOM     14  O   UNL     1      34.897 -10.757 -24.137  0.00  0.00    -0.379 OA
ATOM     15  H   UNL     1      34.905 -11.091 -25.048  0.00  0.00    +0.211 HD
ENDBRANCH   9  14
BRANCH  10  16
ATOM     16  O   UNL     1      33.053  -8.488 -23.845  0.00  0.00    -0.379 OA
ATOM     17  H   UNL     1      32.245  -8.660 -24.352  0.00  0.00    +0.211 HD
ENDBRANCH  10  16
BRANCH  12  18
ATOM     18  O   UNL     1      31.814  -8.500 -21.242  0.00  0.00    -0.379 OA
ATOM     19  H   UNL     1      32.649  -8.006 -21.226  0.00  0.00    +0.211 HD
ENDBRANCH  12  18
BRANCH  13  20
ATOM     20  C   UNL     1      30.694 -11.110 -20.429  0.00  0.00    +0.169 C 
BRANCH  20  21
ATOM     21  O   UNL     1      30.721 -10.332 -19.246  0.00  0.00    -0.379 OA
ATOM     22  H   UNL     1      30.701  -9.390 -19.477  0.00  0.00    +0.211 HD
ENDBRANCH  20  21
ENDBRANCH  13  20
ENDBRANCH   1  11
BRANCH   4  23
ATOM     23  C   UNL     1      35.744 -16.488 -23.093  0.00  0.00    +0.059 C 
BRANCH  23  25
ATOM     24  S   UNL     1      35.558 -18.327 -21.004  0.00  0.00    -0.091 S 
ATOM     25  C   UNL     1      35.133 -17.771 -22.567  0.00  0.00    +0.012 C 
ATOM     26  C   UNL     1      34.232 -18.607 -23.186  0.00  0.00    +0.003 C 
ATOM     27  C   UNL     1      34.536 -19.692 -21.154  0.00  0.00    +0.029 C 
ATOM     28  C   UNL     1      33.886 -19.722 -22.367  0.00  0.00    +0.007 C 
BRANCH  27  30
ATOM     29  F   UNL     1      34.236 -23.311 -16.926  0.00  0.00    -0.204 F 
ATOM     30  C   UNL     1      34.459 -20.630 -20.058  0.00  0.00    +0.006 C 
ATOM     31  C   UNL     1      33.215 -21.048 -19.584  0.00  0.00    +0.003 C 
ATOM     32  C   UNL     1      35.627 -21.119 -19.473  0.00  0.00    +0.003 C 
ATOM     33  C   UNL     1      33.139 -21.954 -18.526  0.00  0.00    +0.030 C 
ATOM     34  C   UNL     1      35.552 -22.024 -18.415  0.00  0.00    +0.030 C 
ATOM     35  C   UNL     1      34.308 -22.442 -17.942  0.00  0.00    +0.140 C 
ENDBRANCH  27  30
ENDBRANCH  23  25
ENDBRANCH   4  23
TORSDOF 9
ENDMDL
MODEL 7
REMARK VINA RESULT:      -9.7      2.039      3.632
REMARK  Name = 24812758
REMARK  9 active torsions:
REMARK  status: ('A' for Active; 'I' for Inactive)
REMARK    1  A    between atoms: C_1  and  C_11
REMARK    2  A    between atoms: C_4  and  C_23
REMARK    3  A    between atoms: C_9  and  O_14
REMARK    4  A    between atoms: C_10  and  O_16
REMARK    5  A    between atoms: C_12  and  O_18
REMARK    6  A    between atoms: C_13  and  C_20
REMARK    7  A    between atoms: C_20  and  O_21
REMARK    8  A    between atoms: C_23  and  C_25
REMARK    9  A    between atoms: C_27  and  C_30
REMARK                            x       y       z     vdW  Elec       q    Type
REMARK                         _______ _______ _______ _____ _____    ______ ____
ROOT
ATOM      1  C   UNL     1      35.038 -22.804 -16.223  0.00  0.00    +0.007 C 
ATOM      2  C   UNL     1      35.666 -22.583 -17.449  0.00  0.00    -0.006 C 
ATOM      3  C   UNL     1      33.648 -22.729 -16.128  0.00  0.00    -0.002 C 
ATOM      4  C   UNL     1      34.905 -22.287 -18.579  0.00  0.00    -0.021 C 
ATOM      5  C   UNL     1      33.515 -22.213 -18.484  0.00  0.00    -0.025 C 
ATOM      6  C   UNL     1      32.887 -22.433 -17.258  0.00  0.00    -0.005 C 
ATOM      7  C   UNL     1      32.678 -21.898 -19.680  0.00  0.00    +0.031 C 
ENDROOT
BRANCH   1  11
ATOM      8  O   UNL     1      37.046 -23.807 -15.431  0.00  0.00    -0.347 OA
ATOM      9  C   UNL     1      35.086 -23.979 -13.982  0.00  0.00    +0.171 C 
ATOM     10  C   UNL     1      35.988 -24.425 -12.829  0.00  0.00    +0.169 C 
ATOM     11  C   UNL     1      35.866 -23.125 -14.994  0.00  0.00    +0.167 C 
ATOM     12  C   UNL     1      37.298 -25.017 -13.346  0.00  0.00    +0.169 C 
ATOM     13  C   UNL     1      37.954 -24.082 -14.363  0.00  0.00    +0.174 C 
BRANCH   9  14
ATOM     14  O   UNL     1      34.013 -23.197 -13.457  0.00  0.00    -0.379 OA
ATOM     15  H   UNL     1      33.351 -23.783 -13.057  0.00  0.00    +0.211 HD
ENDBRANCH   9  14
BRANCH  10  16
ATOM     16  O   UNL     1      35.320 -25.430 -12.065  0.00  0.00    -0.379 OA
ATOM     17  H   UNL     1      34.513 -25.058 -11.676  0.00  0.00    +0.211 HD
ENDBRANCH  10  16
BRANCH  12  18
ATOM     18  O   UNL     1      38.189 -25.218 -12.251  0.00  0.00    -0.379 OA
ATOM     19  H   UNL     1      37.794 -25.845 -11.624  0.00  0.00    +0.211 HD
ENDBRANCH  12  18
BRANCH  13  20
ATOM     20  C   UNL     1      39.206 -24.700 -14.975  0.00  0.00    +0.169 C 
BRANCH  20  21
ATOM     21  O   UNL     1      39.052 -26.108 -14.992  0.00  0.00    -0.379 OA
ATOM     22  H   UNL     1      38.114 -26.332 -14.892  0.00  0.00    +0.211 HD
ENDBRANCH  20  21
ENDBRANCH  13  20
ENDBRANCH   1  11
BRANCH   4  23
ATOM     23  C   UNL     1      35.599 -22.055 -19.881  0.00  0.00    +0.059 C 
BRANCH  23  25
ATOM     24  S   UNL     1      34.719 -19.709 -21.105  0.00  0.00    -0.091 S 
ATOM     25  C   UNL     1      35.859 -20.594 -20.184  0.00  0.00    +0.012 C 
ATOM     26  C   UNL     1      36.934 -19.819 -19.809  0.00  0.00    +0.003 C 
ATOM     27  C   UNL     1      35.663 -18.285 -21.004  0.00  0.00    +0.029 C 
ATOM     28  C   UNL     1      36.820 -18.481 -20.284  0.00  0.00    +0.007 C 
BRANCH  27  30
ATOM     29  F   UNL     1      33.819 -13.649 -23.489  0.00  0.00    -0.204 F 
ATOM     30  C   UNL     1      35.185 -17.083 -21.648  0.00  0.00    +0.006 C 
ATOM     31  C   UNL     1      35.188 -16.989 -23.040  0.00  0.00    +0.003 C 
ATOM     32  C   UNL     1      34.721 -16.016 -20.879  0.00  0.00    +0.003 C 
ATOM     33  C   UNL     1      34.726 -15.830 -23.662  0.00  0.00    +0.030 C 
ATOM     34  C   UNL     1      34.259 -14.857 -21.500  0.00  0.00    +0.030 C 
ATOM     35  C   UNL     1      34.262 -14.763 -22.892  0.00  0.00    +0.140 C 
ENDBRANCH  27  30
ENDBRANCH  23  25
ENDBRANCH   4  23
TORSDOF 9
ENDMDL
MODEL 8
REMARK VINA RESULT:      -9.7      2.583      4.630
REMARK  Name = 24812758
REMARK  9 active torsions:
REMARK  status: ('A' for Active; 'I' for Inactive)
REMARK    1  A    between atoms: C_1  and  C_11
REMARK    2  A    between atoms: C_4  and  C_23
REMARK    3  A    between atoms: C_9  and  O_14
REMARK    4  A    between atoms: C_10  and  O_16
REMARK    5  A    between atoms: C_12  and  O_18
REMARK    6  A    between atoms: C_13  and  C_20
REMARK    7  A    between atoms: C_20  and  O_21
REMARK    8  A    between atoms: C_23  and  C_25
REMARK    9  A    between atoms: C_27  and  C_30
REMARK                            x       y       z     vdW  Elec       q    Type
REMARK                         _______ _______ _______ _____ _____    ______ ____
ROOT
ATOM      1  C   UNL     1      34.315 -22.624 -17.482  0.00  0.00    +0.007 C 
ATOM      2  C   UNL     1      35.196 -22.181 -18.468  0.00  0.00    -0.006 C 
ATOM      3  C   UNL     1      32.957 -22.315 -17.570  0.00  0.00    -0.002 C 
ATOM      4  C   UNL     1      34.721 -21.429 -19.543  0.00  0.00    -0.021 C 
ATOM      5  C   UNL     1      33.363 -21.121 -19.631  0.00  0.00    -0.025 C 
ATOM      6  C   UNL     1      32.482 -21.564 -18.645  0.00  0.00    -0.005 C 
ATOM      7  C   UNL     1      32.829 -20.319 -20.772  0.00  0.00    +0.031 C 
ENDROOT
BRANCH   1  11
ATOM      8  O   UNL     1      33.770 -23.559 -15.363  0.00  0.00    -0.347 OA
ATOM      9  C   UNL     1      36.073 -22.801 -15.671  0.00  0.00    +0.171 C 
ATOM     10  C   UNL     1      36.480 -23.553 -14.400  0.00  0.00    +0.169 C 
ATOM     11  C   UNL     1      34.832 -23.440 -16.314  0.00  0.00    +0.167 C 
ATOM     12  C   UNL     1      35.282 -23.780 -13.480  0.00  0.00    +0.169 C 
ATOM     13  C   UNL     1      34.111 -24.391 -14.253  0.00  0.00    +0.174 C 
BRANCH   9  14
ATOM     14  O   UNL     1      37.150 -22.852 -16.606  0.00  0.00    -0.379 OA
ATOM     15  H   UNL     1      37.991 -22.731 -16.137  0.00  0.00    +0.211 HD
ENDBRANCH   9  14
BRANCH  10  16
ATOM     16  O   UNL     1      37.447 -22.783 -13.683  0.00  0.00    -0.379 OA
ATOM     17  H   UNL     1      36.997 -22.224 -13.031  0.00  0.00    +0.211 HD
ENDBRANCH  10  16
BRANCH  12  18
ATOM     18  O   UNL     1      35.658 -24.660 -12.425  0.00  0.00    -0.379 OA
ATOM     19  H   UNL     1      36.198 -25.383 -12.784  0.00  0.00    +0.211 HD
ENDBRANCH  12  18
BRANCH  13  20
ATOM     20  C   UNL     1      32.867 -24.526 -13.382  0.00  0.00    +0.169 C 
BRANCH  20  21
ATOM     21  O   UNL     1      32.818 -23.426 -12.491  0.00  0.00    -0.379 OA
ATOM     22  H   UNL     1      32.088 -22.839 -12.742  0.00  0.00    +0.211 HD
ENDBRANCH  20  21
ENDBRANCH  13  20
ENDBRANCH   1  11
BRANCH   4  23
ATOM     23  C   UNL     1      35.683 -20.967 -20.587  0.00  0.00    +0.059 C 
BRANCH  23  25
ATOM     24  S   UNL     1      34.779 -19.161 -22.511  0.00  0.00    -0.091 S 
ATOM     25  C   UNL     1      35.493 -19.521 -20.997  0.00  0.00    +0.012 C 
ATOM     26  C   UNL     1      35.821 -18.381 -20.296  0.00  0.00    +0.003 C 
ATOM     27  C   UNL     1      34.910 -17.477 -22.233  0.00  0.00    +0.029 C 
ATOM     28  C   UNL     1      35.484 -17.197 -21.013  0.00  0.00    +0.007 C 
BRANCH  27  30
ATOM     29  F   UNL     1      33.081 -13.950 -26.142  0.00  0.00    -0.204 F 
ATOM     30  C   UNL     1      34.436 -16.563 -23.247  0.00  0.00    +0.006 C 
ATOM     31  C   UNL     1      34.328 -15.201 -22.962  0.00  0.00    +0.003 C 
ATOM     32  C   UNL     1      34.086 -17.041 -24.509  0.00  0.00    +0.003 C 
ATOM     33  C   UNL     1      33.870 -14.319 -23.940  0.00  0.00    +0.030 C 
ATOM     34  C   UNL     1      33.628 -16.159 -25.487  0.00  0.00    +0.030 C 
ATOM     35  C   UNL     1      33.520 -14.797 -25.202  0.00  0.00    +0.140 C 
ENDBRANCH  27  30
ENDBRANCH  23  25
ENDBRANCH   4  23
TORSDOF 9
ENDMDL
MODEL 9
REMARK VINA RESULT:      -9.6     11.240     14.993
REMARK  Name = 24812758
REMARK  9 active torsions:
REMARK  status: ('A' for Active; 'I' for Inactive)
REMARK    1  A    between atoms: C_1  and  C_11
REMARK    2  A    between atoms: C_4  and  C_23
REMARK    3  A    between atoms: C_9  and  O_14
REMARK    4  A    between atoms: C_10  and  O_16
REMARK    5  A    between atoms: C_12  and  O_18
REMARK    6  A    between atoms: C_13  and  C_20
REMARK    7  A    between atoms: C_20  and  O_21
REMARK    8  A    between atoms: C_23  and  C_25
REMARK    9  A    between atoms: C_27  and  C_30
REMARK                            x       y       z     vdW  Elec       q    Type
REMARK                         _______ _______ _______ _____ _____    ______ ____
ROOT
ATOM      1  C   UNL     1      32.882 -12.551 -21.948  0.00  0.00    +0.007 C 
ATOM      2  C   UNL     1      32.393 -11.308 -22.350  0.00  0.00    -0.006 C 
ATOM      3  C   UNL     1      32.656 -13.001 -20.647  0.00  0.00    -0.002 C 
ATOM      4  C   UNL     1      31.678 -10.515 -21.453  0.00  0.00    -0.021 C 
ATOM      5  C   UNL     1      31.452 -10.966 -20.152  0.00  0.00    -0.025 C 
ATOM      6  C   UNL     1      31.941 -12.208 -19.750  0.00  0.00    -0.005 C 
ATOM      7  C   UNL     1      30.689 -10.136 -19.172  0.00  0.00    +0.031 C 
ENDROOT
BRANCH   1  11
ATOM      8  O   UNL     1      32.890 -13.508 -24.127  0.00  0.00    -0.347 OA
ATOM      9  C   UNL     1      33.954 -14.806 -22.352  0.00  0.00    +0.171 C 
ATOM     10  C   UNL     1      34.596 -15.709 -23.409  0.00  0.00    +0.169 C 
ATOM     11  C   UNL     1      33.659 -13.412 -22.924  0.00  0.00    +0.167 C 
ATOM     12  C   UNL     1      33.815 -15.668 -24.722  0.00  0.00    +0.169 C 
ATOM     13  C   UNL     1      33.566 -14.224 -25.161  0.00  0.00    +0.174 C 
BRANCH   9  14
ATOM     14  O   UNL     1      34.854 -14.668 -21.252  0.00  0.00    -0.379 OA
ATOM     15  H   UNL     1      34.368 -14.783 -20.421  0.00  0.00    +0.211 HD
ENDBRANCH   9  14
BRANCH  10  16
ATOM     16  O   UNL     1      34.601 -17.059 -22.941  0.00  0.00    -0.379 OA
ATOM     17  H   UNL     1      35.081 -17.108 -22.100  0.00  0.00    +0.211 HD
ENDBRANCH  10  16
BRANCH  12  18
ATOM     18  O   UNL     1      34.559 -16.344 -25.733  0.00  0.00    -0.379 OA
ATOM     19  H   UNL     1      33.962 -16.604 -26.454  0.00  0.00    +0.211 HD
ENDBRANCH  12  18
BRANCH  13  20
ATOM     20  C   UNL     1      32.695 -14.154 -26.411  0.00  0.00    +0.169 C 
BRANCH  20  21
ATOM     21  O   UNL     1      32.842 -12.871 -26.993  0.00  0.00    -0.379 OA
ATOM     22  H   UNL     1      32.162 -12.276 -26.641  0.00  0.00    +0.211 HD
ENDBRANCH  20  21
ENDBRANCH  13  20
ENDBRANCH   1  11
BRANCH   4  23
ATOM     23  C   UNL     1      31.163  -9.189 -21.906  0.00  0.00    +0.059 C 
BRANCH  23  25
ATOM     24  S   UNL     1      31.967  -7.319 -23.813  0.00  0.00    -0.091 S 
ATOM     25  C   UNL     1      32.243  -8.250 -22.402  0.00  0.00    +0.012 C 
ATOM     26  C   UNL     1      33.487  -8.012 -21.861  0.00  0.00    +0.003 C 
ATOM     27  C   UNL     1      33.515  -6.595 -23.702  0.00  0.00    +0.029 C 
ATOM     28  C   UNL     1      34.224  -7.053 -22.614  0.00  0.00    +0.007 C 
BRANCH  27  30
ATOM     29  F   UNL     1      35.031  -2.874 -27.564  0.00  0.00    -0.204 F 
ATOM     30  C   UNL     1      33.908  -5.630 -24.703  0.00  0.00    +0.006 C 
ATOM     31  C   UNL     1      35.184  -5.687 -25.263  0.00  0.00    +0.003 C 
ATOM     32  C   UNL     1      33.011  -4.642 -25.110  0.00  0.00    +0.003 C 
ATOM     33  C   UNL     1      35.564  -4.756 -26.230  0.00  0.00    +0.030 C 
ATOM     34  C   UNL     1      33.390  -3.711 -26.076  0.00  0.00    +0.030 C 
ATOM     35  C   UNL     1      34.667  -3.768 -26.636  0.00  0.00    +0.140 C 
ENDBRANCH  27  30
ENDBRANCH  23  25
ENDBRANCH   4  23
TORSDOF 9
ENDMDL
