MODEL 1
REMARK VINA RESULT:     -11.5      0.000      0.000
REMARK  Name = 11507920
REMARK  4 active torsions:
REMARK  status: ('A' for Active; 'I' for Inactive)
REMARK    1  A    between atoms: C_1  and  C_8
REMARK    2  A    between atoms: C_2  and  C_17
REMARK    3  A    between atoms: C_17  and  N_18
REMARK    4  A    between atoms: N_18  and  C_21
REMARK                            x       y       z     vdW  Elec       q    Type
REMARK                         _______ _______ _______ _____ _____    ______ ____
ROOT
ATOM      1  C   UNL     1      34.587 -18.698 -22.240  0.00  0.00    -0.000 C 
ATOM      2  C   UNL     1      34.707 -16.416 -23.023  0.00  0.00    -0.003 C 
ATOM      3  C   UNL     1      34.808 -17.345 -21.987  0.00  0.00    -0.003 C 
ATOM      4  C   UNL     1      34.265 -19.124 -23.528  0.00  0.00    -0.000 C 
ATOM      5  C   UNL     1      34.384 -16.841 -24.312  0.00  0.00    -0.003 C 
ATOM      6  C   UNL     1      34.162 -18.196 -24.564  0.00  0.00    -0.000 C 
ENDROOT
BRANCH   1   8
ATOM      7  N   UNL     1      32.718 -21.811 -18.852  0.00  0.00    -0.312 N 
ATOM      8  C   UNL     1      34.691 -19.661 -21.164  0.00  0.00    +0.001 C 
ATOM      9  C   UNL     1      33.671 -21.128 -19.573  0.00  0.00    +0.048 C 
ATOM     10  C   UNL     1      34.918 -21.522 -19.084  0.00  0.00    +0.015 C 
ATOM     11  C   UNL     1      33.526 -20.200 -20.611  0.00  0.00    +0.015 C 
ATOM     12  C   UNL     1      35.949 -20.036 -20.696  0.00  0.00    +0.000 C 
ATOM     13  C   UNL     1      36.079 -20.965 -19.657  0.00  0.00    +0.001 C 
ATOM     14  C   UNL     1      34.679 -22.465 -18.046  0.00  0.00    +0.017 C 
ATOM     15  C   UNL     1      33.318 -22.621 -17.927  0.00  0.00    +0.062 C 
ATOM     16  H   UNL     1      31.745 -21.728 -18.983  0.00  0.00    +0.152 HD
ENDBRANCH   1   8
BRANCH   2  17
ATOM     17  C   UNL     1      34.943 -14.968 -22.754  0.00  0.00    +0.114 C 
BRANCH  17  18
ATOM     18  N   UNL     1      33.994 -14.124 -23.434  0.00  0.00    -0.327 N 
ATOM     19  H   UNL     1      33.819 -14.296 -24.387  0.00  0.00    +0.147 HD
BRANCH  18  21
ATOM     20  N   UNL     1      32.789 -10.708 -22.659  0.00  0.00    -0.228 NA
ATOM     21  C   UNL     1      33.312 -13.081 -22.822  0.00  0.00    +0.077 C 
ATOM     22  C   UNL     1      33.437 -11.750 -23.228  0.00  0.00    +0.139 C 
ATOM     23  C   UNL     1      32.448 -13.329 -21.748  0.00  0.00    +0.019 C 
ATOM     24  C   UNL     1      31.765 -12.283 -21.137  0.00  0.00    +0.022 C 
ATOM     25  C   UNL     1      31.968 -11.003 -21.626  0.00  0.00    +0.100 C 
ATOM     26  N   UNL     1      34.307 -11.474 -24.312  0.00  0.00    -0.342 N 
ATOM     27  H   UNL     1      34.421 -10.548 -24.627  0.00  0.00    +0.144 HD
ATOM     28  H   UNL     1      34.796 -12.206 -24.751  0.00  0.00    +0.144 HD
ENDBRANCH  18  21
ENDBRANCH  17  18
ENDBRANCH   2  17
TORSDOF 4
ENDMDL
MODEL 2
REMARK VINA RESULT:     -11.4      2.549      9.294
REMARK  Name = 11507920
REMARK  4 active torsions:
REMARK  status: ('A' for Active; 'I' for Inactive)
REMARK    1  A    between atoms: C_1  and  C_8
REMARK    2  A    between atoms: C_2  and  C_17
REMARK    3  A    between atoms: C_17  and  N_18
REMARK    4  A    between atoms: N_18  and  C_21
REMARK                            x       y       z     vdW  Elec       q    Type
REMARK                         _______ _______ _______ _____ _____    ______ ____
ROOT
ATOM      1  C   UNL     1      35.109 -20.198 -20.415  0.00  0.00    -0.000 C 
ATOM      2  C   UNL     1      34.172 -21.743 -18.812  0.00  0.00    -0.003 C 
ATOM      3  C   UNL     1      34.002 -20.837 -19.859  0.00  0.00    -0.003 C 
ATOM      4  C   UNL     1      36.387 -20.463 -19.925  0.00  0.00    -0.000 C 
ATOM      5  C   UNL     1      35.451 -22.008 -18.321  0.00  0.00    -0.003 C 
ATOM      6  C   UNL     1      36.559 -21.367 -18.877  0.00  0.00    -0.000 C 
ENDROOT
BRANCH   1   8
ATOM      7  N   UNL     1      34.967 -15.640 -22.383  0.00  0.00    -0.312 N 
ATOM      8  C   UNL     1      34.932 -19.257 -21.501  0.00  0.00    +0.001 C 
ATOM      9  C   UNL     1      34.892 -17.014 -22.330  0.00  0.00    +0.048 C 
ATOM     10  C   UNL     1      34.583 -17.458 -23.618  0.00  0.00    +0.015 C 
ATOM     11  C   UNL     1      35.071 -17.889 -21.254  0.00  0.00    +0.015 C 
ATOM     12  C   UNL     1      34.623 -19.729 -22.776  0.00  0.00    +0.000 C 
ATOM     13  C   UNL     1      34.446 -18.842 -23.844  0.00  0.00    +0.001 C 
ATOM     14  C   UNL     1      34.476 -16.303 -24.443  0.00  0.00    +0.017 C 
ATOM     15  C   UNL     1      34.717 -15.202 -23.655  0.00  0.00    +0.062 C 
ATOM     16  H   UNL     1      35.171 -15.058 -21.616  0.00  0.00    +0.152 HD
ENDBRANCH   1   8
BRANCH   2  17
ATOM     17  C   UNL     1      32.989 -22.428 -18.216  0.00  0.00    +0.114 C 
BRANCH  17  18
ATOM     18  N   UNL     1      33.298 -23.060 -16.960  0.00  0.00    -0.327 N 
ATOM     19  H   UNL     1      34.193 -23.456 -16.847  0.00  0.00    +0.147 HD
BRANCH  18  21
ATOM     20  N   UNL     1      31.984 -23.320 -13.506  0.00  0.00    -0.228 NA
ATOM     21  C   UNL     1      32.408 -23.145 -15.898  0.00  0.00    +0.077 C 
ATOM     22  C   UNL     1      32.819 -23.237 -14.566  0.00  0.00    +0.139 C 
ATOM     23  C   UNL     1      31.026 -23.137 -16.126  0.00  0.00    +0.019 C 
ATOM     24  C   UNL     1      30.136 -23.221 -15.061  0.00  0.00    +0.022 C 
ATOM     25  C   UNL     1      30.661 -23.310 -13.782  0.00  0.00    +0.100 C 
ATOM     26  N   UNL     1      34.213 -23.248 -14.310  0.00  0.00    -0.342 N 
ATOM     27  H   UNL     1      34.543 -23.312 -13.384  0.00  0.00    +0.144 HD
ATOM     28  H   UNL     1      34.852 -23.190 -15.056  0.00  0.00    +0.144 HD
ENDBRANCH  18  21
ENDBRANCH  17  18
ENDBRANCH   2  17
TORSDOF 4
ENDMDL
MODEL 3
REMARK VINA RESULT:     -11.4      1.694      3.196
REMARK  Name = 11507920
REMARK  4 active torsions:
REMARK  status: ('A' for Active; 'I' for Inactive)
REMARK    1  A    between atoms: C_1  and  C_8
REMARK    2  A    between atoms: C_2  and  C_17
REMARK    3  A    between atoms: C_17  and  N_18
REMARK    4  A    between atoms: N_18  and  C_21
REMARK                            x       y       z     vdW  Elec       q    Type
REMARK                         _______ _______ _______ _____ _____    ______ ____
ROOT
ATOM      1  C   UNL     1      35.320 -20.112 -20.509  0.00  0.00    -0.000 C 
ATOM      2  C   UNL     1      35.131 -18.836 -22.551  0.00  0.00    -0.003 C 
ATOM      3  C   UNL     1      34.554 -19.658 -21.582  0.00  0.00    -0.003 C 
ATOM      4  C   UNL     1      36.661 -19.748 -20.404  0.00  0.00    -0.000 C 
ATOM      5  C   UNL     1      36.473 -18.471 -22.447  0.00  0.00    -0.003 C 
ATOM      6  C   UNL     1      37.239 -18.928 -21.373  0.00  0.00    -0.000 C 
ENDROOT
BRANCH   1   8
ATOM      7  N   UNL     1      35.446 -23.025 -16.488  0.00  0.00    -0.312 N 
ATOM      8  C   UNL     1      34.721 -20.966 -19.504  0.00  0.00    +0.001 C 
ATOM      9  C   UNL     1      34.911 -22.348 -17.561  0.00  0.00    +0.048 C 
ATOM     10  C   UNL     1      33.540 -22.613 -17.572  0.00  0.00    +0.015 C 
ATOM     11  C   UNL     1      35.529 -21.529 -18.513  0.00  0.00    +0.015 C 
ATOM     12  C   UNL     1      33.350 -21.214 -19.540  0.00  0.00    +0.000 C 
ATOM     13  C   UNL     1      32.745 -22.035 -18.582  0.00  0.00    +0.001 C 
ATOM     14  C   UNL     1      33.273 -23.472 -16.469  0.00  0.00    +0.017 C 
ATOM     15  C   UNL     1      34.463 -23.706 -15.823  0.00  0.00    +0.062 C 
ATOM     16  H   UNL     1      36.398 -23.019 -16.236  0.00  0.00    +0.152 HD
ENDBRANCH   1   8
BRANCH   2  17
ATOM     17  C   UNL     1      34.313 -18.348 -23.699  0.00  0.00    +0.114 C 
BRANCH  17  18
ATOM     18  N   UNL     1      34.761 -17.068 -24.185  0.00  0.00    -0.327 N 
ATOM     19  H   UNL     1      35.439 -17.054 -24.898  0.00  0.00    +0.147 HD
BRANCH  18  21
ATOM     20  N   UNL     1      32.959 -13.837 -24.001  0.00  0.00    -0.228 NA
ATOM     21  C   UNL     1      34.292 -15.853 -23.704  0.00  0.00    +0.077 C 
ATOM     22  C   UNL     1      33.438 -15.025 -24.435  0.00  0.00    +0.139 C 
ATOM     23  C   UNL     1      34.666 -15.400 -22.432  0.00  0.00    +0.019 C 
ATOM     24  C   UNL     1      34.195 -14.183 -21.952  0.00  0.00    +0.022 C 
ATOM     25  C   UNL     1      33.351 -13.446 -22.768  0.00  0.00    +0.100 C 
ATOM     26  N   UNL     1      33.047 -15.462 -25.725  0.00  0.00    -0.342 N 
ATOM     27  H   UNL     1      32.445 -14.906 -26.271  0.00  0.00    +0.144 HD
ATOM     28  H   UNL     1      33.375 -16.321 -26.075  0.00  0.00    +0.144 HD
ENDBRANCH  18  21
ENDBRANCH  17  18
ENDBRANCH   2  17
TORSDOF 4
ENDMDL
MODEL 4
REMARK VINA RESULT:     -11.4      0.840      1.437
REMARK  Name = 11507920
REMARK  4 active torsions:
REMARK  status: ('A' for Active; 'I' for Inactive)
REMARK    1  A    between atoms: C_1  and  C_8
REMARK    2  A    between atoms: C_2  and  C_17
REMARK    3  A    between atoms: C_17  and  N_18
REMARK    4  A    between atoms: N_18  and  C_21
REMARK                            x       y       z     vdW  Elec       q    Type
REMARK                         _______ _______ _______ _____ _____    ______ ____
ROOT
ATOM      1  C   UNL     1      34.626 -18.813 -22.136  0.00  0.00    -0.000 C 
ATOM      2  C   UNL     1      34.621 -16.526 -22.914  0.00  0.00    -0.003 C 
ATOM      3  C   UNL     1      34.694 -17.447 -21.868  0.00  0.00    -0.003 C 
ATOM      4  C   UNL     1      34.484 -19.262 -23.448  0.00  0.00    -0.000 C 
ATOM      5  C   UNL     1      34.479 -16.974 -24.228  0.00  0.00    -0.003 C 
ATOM      6  C   UNL     1      34.409 -18.342 -24.495  0.00  0.00    -0.000 C 
ENDROOT
BRANCH   1   8
ATOM      7  N   UNL     1      32.667 -21.887 -18.763  0.00  0.00    -0.312 N 
ATOM      8  C   UNL     1      34.701 -19.768 -21.049  0.00  0.00    +0.001 C 
ATOM      9  C   UNL     1      33.638 -21.215 -19.469  0.00  0.00    +0.048 C 
ATOM     10  C   UNL     1      34.872 -21.611 -18.949  0.00  0.00    +0.015 C 
ATOM     11  C   UNL     1      33.522 -20.296 -20.517  0.00  0.00    +0.015 C 
ATOM     12  C   UNL     1      35.947 -20.145 -20.550  0.00  0.00    +0.000 C 
ATOM     13  C   UNL     1      36.048 -21.065 -19.501  0.00  0.00    +0.001 C 
ATOM     14  C   UNL     1      34.606 -22.544 -17.908  0.00  0.00    +0.017 C 
ATOM     15  C   UNL     1      33.241 -22.692 -17.818  0.00  0.00    +0.062 C 
ATOM     16  H   UNL     1      31.697 -21.801 -18.916  0.00  0.00    +0.152 HD
ENDBRANCH   1   8
BRANCH   2  17
ATOM     17  C   UNL     1      34.694 -15.064 -22.629  0.00  0.00    +0.114 C 
BRANCH  17  18
ATOM     18  N   UNL     1      33.457 -14.388 -22.926  0.00  0.00    -0.327 N 
ATOM     19  H   UNL     1      32.664 -14.936 -23.126  0.00  0.00    +0.147 HD
BRANCH  18  21
ATOM     20  N   UNL     1      32.353 -10.968 -22.028  0.00  0.00    -0.228 NA
ATOM     21  C   UNL     1      33.318 -13.006 -22.946  0.00  0.00    +0.077 C 
ATOM     22  C   UNL     1      32.513 -12.310 -22.042  0.00  0.00    +0.139 C 
ATOM     23  C   UNL     1      34.001 -12.237 -23.897  0.00  0.00    +0.019 C 
ATOM     24  C   UNL     1      33.861 -10.854 -23.915  0.00  0.00    +0.022 C 
ATOM     25  C   UNL     1      33.033 -10.272 -22.968  0.00  0.00    +0.100 C 
ATOM     26  N   UNL     1      31.811 -13.067 -21.071  0.00  0.00    -0.342 N 
ATOM     27  H   UNL     1      31.233 -12.612 -20.416  0.00  0.00    +0.144 HD
ATOM     28  H   UNL     1      31.902 -14.047 -21.049  0.00  0.00    +0.144 HD
ENDBRANCH  18  21
ENDBRANCH  17  18
ENDBRANCH   2  17
TORSDOF 4
ENDMDL
MODEL 5
REMARK VINA RESULT:     -11.3      1.628      2.054
REMARK  Name = 11507920
REMARK  4 active torsions:
REMARK  status: ('A' for Active; 'I' for Inactive)
REMARK    1  A    between atoms: C_1  and  C_8
REMARK    2  A    between atoms: C_2  and  C_17
REMARK    3  A    between atoms: C_17  and  N_18
REMARK    4  A    between atoms: N_18  and  C_21
REMARK                            x       y       z     vdW  Elec       q    Type
REMARK                         _______ _______ _______ _____ _____    ______ ____
ROOT
ATOM      1  C   UNL     1      34.723 -19.308 -21.690  0.00  0.00    -0.000 C 
ATOM      2  C   UNL     1      34.807 -17.049 -22.540  0.00  0.00    -0.003 C 
ATOM      3  C   UNL     1      34.790 -17.935 -21.462  0.00  0.00    -0.003 C 
ATOM      4  C   UNL     1      34.670 -19.799 -22.993  0.00  0.00    -0.000 C 
ATOM      5  C   UNL     1      34.754 -17.539 -23.845  0.00  0.00    -0.003 C 
ATOM      6  C   UNL     1      34.684 -18.914 -24.072  0.00  0.00    -0.000 C 
ENDROOT
BRANCH   1   8
ATOM      7  N   UNL     1      32.474 -22.169 -18.309  0.00  0.00    -0.312 N 
ATOM      8  C   UNL     1      34.705 -20.227 -20.570  0.00  0.00    +0.001 C 
ATOM      9  C   UNL     1      33.506 -21.568 -18.993  0.00  0.00    +0.048 C 
ATOM     10  C   UNL     1      34.696 -22.002 -18.405  0.00  0.00    +0.015 C 
ATOM     11  C   UNL     1      33.479 -20.681 -20.075  0.00  0.00    +0.015 C 
ATOM     12  C   UNL     1      35.908 -20.643 -20.003  0.00  0.00    +0.000 C 
ATOM     13  C   UNL     1      35.920 -21.530 -18.920  0.00  0.00    +0.001 C 
ATOM     14  C   UNL     1      34.341 -22.885 -17.347  0.00  0.00    +0.017 C 
ATOM     15  C   UNL     1      32.968 -22.966 -17.313  0.00  0.00    +0.062 C 
ATOM     16  H   UNL     1      31.518 -22.044 -18.509  0.00  0.00    +0.152 HD
ENDBRANCH   1   8
BRANCH   2  17
ATOM     17  C   UNL     1      34.879 -15.579 -22.299  0.00  0.00    +0.114 C 
BRANCH  17  18
ATOM     18  N   UNL     1      33.684 -14.896 -22.722  0.00  0.00    -0.327 N 
ATOM     19  H   UNL     1      32.831 -15.146 -22.297  0.00  0.00    +0.147 HD
BRANCH  18  21
ATOM     20  N   UNL     1      33.196 -13.197 -25.977  0.00  0.00    -0.228 NA
ATOM     21  C   UNL     1      33.664 -13.906 -23.694  0.00  0.00    +0.077 C 
ATOM     22  C   UNL     1      33.232 -14.134 -25.003  0.00  0.00    +0.139 C 
ATOM     23  C   UNL     1      34.084 -12.604 -23.393  0.00  0.00    +0.019 C 
ATOM     24  C   UNL     1      34.063 -11.613 -24.368  0.00  0.00    +0.022 C 
ATOM     25  C   UNL     1      33.614 -11.957 -25.633  0.00  0.00    +0.100 C 
ATOM     26  N   UNL     1      32.803 -15.444 -25.333  0.00  0.00    -0.342 N 
ATOM     27  H   UNL     1      32.491 -15.644 -26.245  0.00  0.00    +0.144 HD
ATOM     28  H   UNL     1      32.814 -16.153 -24.650  0.00  0.00    +0.144 HD
ENDBRANCH  18  21
ENDBRANCH  17  18
ENDBRANCH   2  17
TORSDOF 4
ENDMDL
MODEL 6
REMARK VINA RESULT:     -11.1      4.887     11.405
REMARK  Name = 11507920
REMARK  4 active torsions:
REMARK  status: ('A' for Active; 'I' for Inactive)
REMARK    1  A    between atoms: C_1  and  C_8
REMARK    2  A    between atoms: C_2  and  C_17
REMARK    3  A    between atoms: C_17  and  N_18
REMARK    4  A    between atoms: N_18  and  C_21
REMARK                            x       y       z     vdW  Elec       q    Type
REMARK                         _______ _______ _______ _____ _____    ______ ____
ROOT
ATOM      1  C   UNL     1      33.325 -22.661 -16.987  0.00  0.00    -0.000 C 
ATOM      2  C   UNL     1      33.457 -23.841 -14.883  0.00  0.00    -0.003 C 
ATOM      3  C   UNL     1      34.086 -23.192 -15.946  0.00  0.00    -0.003 C 
ATOM      4  C   UNL     1      31.936 -22.778 -16.968  0.00  0.00    -0.000 C 
ATOM      5  C   UNL     1      32.067 -23.959 -14.863  0.00  0.00    -0.003 C 
ATOM      6  C   UNL     1      31.306 -23.428 -15.906  0.00  0.00    -0.000 C 
ENDROOT
BRANCH   1   8
ATOM      7  N   UNL     1      33.384 -19.944 -21.144  0.00  0.00    -0.312 N 
ATOM      8  C   UNL     1      33.979 -21.989 -18.091  0.00  0.00    +0.001 C 
ATOM      9  C   UNL     1      33.876 -20.675 -20.086  0.00  0.00    +0.048 C 
ATOM     10  C   UNL     1      35.267 -20.697 -20.215  0.00  0.00    +0.015 C 
ATOM     11  C   UNL     1      33.205 -21.310 -19.036  0.00  0.00    +0.015 C 
ATOM     12  C   UNL     1      35.369 -22.029 -18.194  0.00  0.00    +0.000 C 
ATOM     13  C   UNL     1      36.027 -21.389 -19.250  0.00  0.00    +0.001 C 
ATOM     14  C   UNL     1      35.589 -19.955 -21.386  0.00  0.00    +0.017 C 
ATOM     15  C   UNL     1      34.411 -19.505 -21.934  0.00  0.00    +0.062 C 
ATOM     16  H   UNL     1      32.429 -19.763 -21.308  0.00  0.00    +0.152 HD
ENDBRANCH   1   8
BRANCH   2  17
ATOM     17  C   UNL     1      34.269 -24.409 -13.769  0.00  0.00    +0.114 C 
BRANCH  17  18
ATOM     18  N   UNL     1      35.098 -25.505 -14.201  0.00  0.00    -0.327 N 
ATOM     19  H   UNL     1      34.681 -26.221 -14.733  0.00  0.00    +0.147 HD
BRANCH  18  21
ATOM     20  N   UNL     1      38.621 -26.642 -14.305  0.00  0.00    -0.228 NA
ATOM     21  C   UNL     1      36.451 -25.611 -13.909  0.00  0.00    +0.077 C 
ATOM     22  C   UNL     1      37.300 -26.510 -14.559  0.00  0.00    +0.139 C 
ATOM     23  C   UNL     1      37.033 -24.798 -12.929  0.00  0.00    +0.019 C 
ATOM     24  C   UNL     1      38.389 -24.905 -12.639  0.00  0.00    +0.022 C 
ATOM     25  C   UNL     1      39.133 -25.834 -13.349  0.00  0.00    +0.100 C 
ATOM     26  N   UNL     1      36.734 -27.345 -15.554  0.00  0.00    -0.342 N 
ATOM     27  H   UNL     1      37.300 -27.991 -16.035  0.00  0.00    +0.144 HD
ATOM     28  H   UNL     1      35.775 -27.278 -15.767  0.00  0.00    +0.144 HD
ENDBRANCH  18  21
ENDBRANCH  17  18
ENDBRANCH   2  17
TORSDOF 4
ENDMDL
MODEL 7
REMARK VINA RESULT:     -11.0      1.848      8.915
REMARK  Name = 11507920
REMARK  4 active torsions:
REMARK  status: ('A' for Active; 'I' for Inactive)
REMARK    1  A    between atoms: C_1  and  C_8
REMARK    2  A    between atoms: C_2  and  C_17
REMARK    3  A    between atoms: C_17  and  N_18
REMARK    4  A    between atoms: N_18  and  C_21
REMARK                            x       y       z     vdW  Elec       q    Type
REMARK                         _______ _______ _______ _____ _____    ______ ____
ROOT
ATOM      1  C   UNL     1      35.292 -18.299 -21.959  0.00  0.00    -0.000 C 
ATOM      2  C   UNL     1      34.938 -20.137 -20.432  0.00  0.00    -0.003 C 
ATOM      3  C   UNL     1      34.431 -19.199 -21.333  0.00  0.00    -0.003 C 
ATOM      4  C   UNL     1      36.658 -18.333 -21.686  0.00  0.00    -0.000 C 
ATOM      5  C   UNL     1      36.306 -20.172 -20.159  0.00  0.00    -0.003 C 
ATOM      6  C   UNL     1      37.166 -19.270 -20.785  0.00  0.00    -0.000 C 
ENDROOT
BRANCH   1   8
ATOM      7  N   UNL     1      34.152 -13.691 -23.421  0.00  0.00    -0.312 N 
ATOM      8  C   UNL     1      34.765 -17.325 -22.892  0.00  0.00    +0.001 C 
ATOM      9  C   UNL     1      34.264 -15.062 -23.483  0.00  0.00    +0.048 C 
ATOM     10  C   UNL     1      33.740 -15.462 -24.714  0.00  0.00    +0.015 C 
ATOM     11  C   UNL     1      34.782 -15.970 -22.553  0.00  0.00    +0.015 C 
ATOM     12  C   UNL     1      34.248 -17.754 -24.114  0.00  0.00    +0.000 C 
ATOM     13  C   UNL     1      33.732 -16.834 -25.035  0.00  0.00    +0.001 C 
ATOM     14  C   UNL     1      33.312 -14.284 -25.388  0.00  0.00    +0.017 C 
ATOM     15  C   UNL     1      33.579 -13.213 -24.568  0.00  0.00    +0.062 C 
ATOM     16  H   UNL     1      34.444 -13.136 -22.662  0.00  0.00    +0.152 HD
ENDBRANCH   1   8
BRANCH   2  17
ATOM     17  C   UNL     1      34.019 -21.101 -19.761  0.00  0.00    +0.114 C 
BRANCH  17  18
ATOM     18  N   UNL     1      34.730 -22.082 -18.982  0.00  0.00    -0.327 N 
ATOM     19  H   UNL     1      35.550 -22.471 -19.362  0.00  0.00    +0.147 HD
BRANCH  18  21
ATOM     20  N   UNL     1      34.830 -22.975 -15.388  0.00  0.00    -0.228 NA
ATOM     21  C   UNL     1      34.325 -22.511 -17.725  0.00  0.00    +0.077 C 
ATOM     22  C   UNL     1      35.186 -22.565 -16.626  0.00  0.00    +0.139 C 
ATOM     23  C   UNL     1      33.002 -22.913 -17.503  0.00  0.00    +0.019 C 
ATOM     24  C   UNL     1      32.598 -23.341 -16.243  0.00  0.00    +0.022 C 
ATOM     25  C   UNL     1      33.541 -23.353 -15.228  0.00  0.00    +0.100 C 
ATOM     26  N   UNL     1      36.531 -22.164 -16.826  0.00  0.00    -0.342 N 
ATOM     27  H   UNL     1      37.168 -22.189 -16.076  0.00  0.00    +0.144 HD
ATOM     28  H   UNL     1      36.828 -21.860 -17.714  0.00  0.00    +0.144 HD
ENDBRANCH  18  21
ENDBRANCH  17  18
ENDBRANCH   2  17
TORSDOF 4
ENDMDL
MODEL 8
REMARK VINA RESULT:     -10.9      5.361      9.567
REMARK  Name = 11507920
REMARK  4 active torsions:
REMARK  status: ('A' for Active; 'I' for Inactive)
REMARK    1  A    between atoms: C_1  and  C_8
REMARK    2  A    between atoms: C_2  and  C_17
REMARK    3  A    between atoms: C_17  and  N_18
REMARK    4  A    between atoms: N_18  and  C_21
REMARK                            x       y       z     vdW  Elec       q    Type
REMARK                         _______ _______ _______ _____ _____    ______ ____
ROOT
ATOM      1  C   UNL     1      34.424 -24.111 -14.207  0.00  0.00    -0.000 C 
ATOM      2  C   UNL     1      32.849 -23.216 -15.806  0.00  0.00    -0.003 C 
ATOM      3  C   UNL     1      34.142 -23.633 -15.486  0.00  0.00    -0.003 C 
ATOM      4  C   UNL     1      33.416 -24.172 -13.246  0.00  0.00    -0.000 C 
ATOM      5  C   UNL     1      31.840 -23.277 -14.845  0.00  0.00    -0.003 C 
ATOM      6  C   UNL     1      32.123 -23.755 -13.564  0.00  0.00    -0.000 C 
ENDROOT
BRANCH   1   8
ATOM      7  N   UNL     1      39.237 -24.848 -15.187  0.00  0.00    -0.312 N 
ATOM      8  C   UNL     1      35.766 -24.542 -13.875  0.00  0.00    +0.001 C 
ATOM      9  C   UNL     1      38.063 -24.848 -14.467  0.00  0.00    +0.048 C 
ATOM     10  C   UNL     1      38.353 -25.383 -13.210  0.00  0.00    +0.015 C 
ATOM     11  C   UNL     1      36.781 -24.420 -14.828  0.00  0.00    +0.015 C 
ATOM     12  C   UNL     1      36.025 -25.072 -12.613  0.00  0.00    +0.000 C 
ATOM     13  C   UNL     1      37.313 -25.497 -12.265  0.00  0.00    +0.001 C 
ATOM     14  C   UNL     1      39.739 -25.702 -13.202  0.00  0.00    +0.017 C 
ATOM     15  C   UNL     1      40.254 -25.363 -14.431  0.00  0.00    +0.062 C 
ATOM     16  H   UNL     1      39.330 -24.525 -16.113  0.00  0.00    +0.152 HD
ENDBRANCH   1   8
BRANCH   2  17
ATOM     17  C   UNL     1      32.546 -22.704 -17.173  0.00  0.00    +0.114 C 
BRANCH  17  18
ATOM     18  N   UNL     1      33.695 -22.749 -18.041  0.00  0.00    -0.327 N 
ATOM     19  H   UNL     1      34.292 -23.529 -17.981  0.00  0.00    +0.147 HD
BRANCH  18  21
ATOM     20  N   UNL     1      35.659 -20.335 -20.050  0.00  0.00    -0.228 NA
ATOM     21  C   UNL     1      34.009 -21.754 -18.957  0.00  0.00    +0.077 C 
ATOM     22  C   UNL     1      35.313 -21.300 -19.168  0.00  0.00    +0.139 C 
ATOM     23  C   UNL     1      33.005 -21.154 -19.727  0.00  0.00    +0.019 C 
ATOM     24  C   UNL     1      33.322 -20.158 -20.645  0.00  0.00    +0.022 C 
ATOM     25  C   UNL     1      34.652 -19.788 -20.768  0.00  0.00    +0.100 C 
ATOM     26  N   UNL     1      36.346 -21.891 -18.399  0.00  0.00    -0.342 N 
ATOM     27  H   UNL     1      37.278 -21.597 -18.519  0.00  0.00    +0.144 HD
ATOM     28  H   UNL     1      36.133 -22.596 -17.746  0.00  0.00    +0.144 HD
ENDBRANCH  18  21
ENDBRANCH  17  18
ENDBRANCH   2  17
TORSDOF 4
ENDMDL
MODEL 9
REMARK VINA RESULT:     -10.9      7.940     11.185
REMARK  Name = 11507920
REMARK  4 active torsions:
REMARK  status: ('A' for Active; 'I' for Inactive)
REMARK    1  A    between atoms: C_1  and  C_8
REMARK    2  A    between atoms: C_2  and  C_17
REMARK    3  A    between atoms: C_17  and  N_18
REMARK    4  A    between atoms: N_18  and  C_21
REMARK                            x       y       z     vdW  Elec       q    Type
REMARK                         _______ _______ _______ _____ _____    ______ ____
ROOT
ATOM      1  C   UNL     1      33.984 -22.716 -16.765  0.00  0.00    -0.000 C 
ATOM      2  C   UNL     1      36.353 -22.294 -16.556  0.00  0.00    -0.003 C 
ATOM      3  C   UNL     1      35.140 -22.682 -15.986  0.00  0.00    -0.003 C 
ATOM      4  C   UNL     1      34.038 -22.362 -18.112  0.00  0.00    -0.000 C 
ATOM      5  C   UNL     1      36.408 -21.940 -17.904  0.00  0.00    -0.003 C 
ATOM      6  C   UNL     1      35.250 -21.973 -18.682  0.00  0.00    -0.000 C 
ENDROOT
BRANCH   1   8
ATOM      7  N   UNL     1      29.026 -22.916 -16.546  0.00  0.00    -0.312 N 
ATOM      8  C   UNL     1      32.724 -23.118 -16.173  0.00  0.00    +0.001 C 
ATOM      9  C   UNL     1      30.333 -23.142 -16.177  0.00  0.00    +0.048 C 
ATOM     10  C   UNL     1      30.303 -23.907 -15.009  0.00  0.00    +0.015 C 
ATOM     11  C   UNL     1      31.527 -22.733 -16.781  0.00  0.00    +0.015 C 
ATOM     12  C   UNL     1      32.726 -23.881 -15.006  0.00  0.00    +0.000 C 
ATOM     13  C   UNL     1      31.524 -24.282 -14.412  0.00  0.00    +0.001 C 
ATOM     14  C   UNL     1      28.934 -24.131 -14.692  0.00  0.00    +0.017 C 
ATOM     15  C   UNL     1      28.174 -23.509 -15.655  0.00  0.00    +0.062 C 
ATOM     16  H   UNL     1      28.745 -22.401 -17.338  0.00  0.00    +0.152 HD
ENDBRANCH   1   8
BRANCH   2  17
ATOM     17  C   UNL     1      37.590 -22.257 -15.724  0.00  0.00    +0.114 C 
BRANCH  17  18
ATOM     18  N   UNL     1      38.197 -23.557 -15.588  0.00  0.00    -0.327 N 
ATOM     19  H   UNL     1      38.700 -23.917 -16.353  0.00  0.00    +0.147 HD
BRANCH  18  21
ATOM     20  N   UNL     1      38.953 -26.143 -13.047  0.00  0.00    -0.228 NA
ATOM     21  C   UNL     1      38.111 -24.331 -14.439  0.00  0.00    +0.077 C 
ATOM     22  C   UNL     1      39.003 -25.368 -14.153  0.00  0.00    +0.139 C 
ATOM     23  C   UNL     1      37.103 -24.096 -13.495  0.00  0.00    +0.019 C 
ATOM     24  C   UNL     1      37.020 -24.873 -12.345  0.00  0.00    +0.022 C 
ATOM     25  C   UNL     1      37.961 -25.874 -12.169  0.00  0.00    +0.100 C 
ATOM     26  N   UNL     1      40.031 -25.627 -15.094  0.00  0.00    -0.342 N 
ATOM     27  H   UNL     1      40.679 -26.349 -14.928  0.00  0.00    +0.144 HD
ATOM     28  H   UNL     1      40.099 -25.084 -15.912  0.00  0.00    +0.144 HD
ENDBRANCH  18  21
ENDBRANCH  17  18
ENDBRANCH   2  17
TORSDOF 4
ENDMDL
