MODEL 1
REMARK VINA RESULT:     -12.0      0.000      0.000
REMARK  Name = 118598754
REMARK  1 active torsions:
REMARK  status: ('A' for Active; 'I' for Inactive)
REMARK    1  A    between atoms: C_15  and  N_19
REMARK                            x       y       z     vdW  Elec       q    Type
REMARK                         _______ _______ _______ _____ _____    ______ ____
ROOT
ATOM      1  O   UNL     1      31.975 -24.571 -12.701  0.00  0.00    -0.269 OA
ATOM      2  O   UNL     1      36.597 -23.248 -16.012  0.00  0.00    -0.268 OA
ATOM      3  N   UNL     1      34.757 -23.776 -14.696  0.00  0.00    -0.238 N 
ATOM      4  N   UNL     1      34.313 -24.584 -12.592  0.00  0.00    -0.288 N 
ATOM      5  C   UNL     1      35.434 -24.240 -13.459  0.00  0.00    +0.124 C 
ATOM      6  C   UNL     1      36.293 -25.491 -13.724  0.00  0.00    +0.038 C 
ATOM      7  C   UNL     1      36.263 -23.111 -12.816  0.00  0.00    +0.038 C 
ATOM      8  C   UNL     1      37.041 -23.583 -11.586  0.00  0.00    +0.003 C 
ATOM      9  C   UNL     1      37.071 -25.942 -12.487  0.00  0.00    +0.003 C 
ATOM     10  C   UNL     1      37.898 -24.805 -11.896  0.00  0.00    +0.000 C 
ATOM     11  C   UNL     1      33.382 -23.851 -14.543  0.00  0.00    +0.105 C 
ATOM     12  C   UNL     1      33.075 -24.373 -13.185  0.00  0.00    +0.260 C 
ATOM     13  C   UNL     1      35.380 -23.326 -15.854  0.00  0.00    +0.267 C 
ATOM     14  C   UNL     1      32.540 -23.490 -15.521  0.00  0.00    -0.002 C 
ATOM     15  C   UNL     1      34.450 -22.915 -16.965  0.00  0.00    +0.104 C 
ATOM     16  C   UNL     1      33.124 -23.010 -16.762  0.00  0.00    +0.016 C 
ATOM     17  C   UNL     1      31.042 -23.522 -15.485  0.00  0.00    +0.033 C 
ATOM     18  H   UNL     1      34.421 -24.932 -11.677  0.00  0.00    +0.151 HD
ENDROOT
BRANCH  15  19
ATOM     19  N   UNL     1      35.036 -22.470 -18.115  0.00  0.00    -0.298 N 
ATOM     20  N   UNL     1      33.181 -21.558 -19.266  0.00  0.00    -0.233 NA
ATOM     21  N   UNL     1      33.536 -19.866 -20.946  0.00  0.00    -0.234 NA
ATOM     22  C   UNL     1      34.516 -21.591 -19.071  0.00  0.00    +0.113 C 
ATOM     23  C   UNL     1      35.412 -20.805 -19.766  0.00  0.00    +0.121 C 
ATOM     24  C   UNL     1      34.860 -19.952 -20.700  0.00  0.00    +0.107 C 
ATOM     25  C   UNL     1      32.765 -20.685 -20.204  0.00  0.00    +0.252 C 
ATOM     26  H   UNL     1      35.942 -22.811 -18.292  0.00  0.00    +0.153 HD
ATOM     27  N   UNL     1      35.747 -19.130 -21.436  0.00  0.00    -0.346 N 
ATOM     28  H   UNL     1      35.395 -18.506 -22.112  0.00  0.00    +0.143 HD
ATOM     29  H   UNL     1      36.717 -19.179 -21.271  0.00  0.00    +0.143 HD
ENDBRANCH  15  19
TORSDOF 1
ENDMDL
MODEL 2
REMARK VINA RESULT:     -10.0      2.739      6.604
REMARK  Name = 118598754
REMARK  1 active torsions:
REMARK  status: ('A' for Active; 'I' for Inactive)
REMARK    1  A    between atoms: C_15  and  N_19
REMARK                            x       y       z     vdW  Elec       q    Type
REMARK                         _______ _______ _______ _____ _____    ______ ____
ROOT
ATOM      1  O   UNL     1      32.266 -21.664 -19.022  0.00  0.00    -0.269 OA
ATOM      2  O   UNL     1      34.085 -24.035 -14.009  0.00  0.00    -0.268 OA
ATOM      3  N   UNL     1      33.363 -23.092 -16.005  0.00  0.00    -0.238 N 
ATOM      4  N   UNL     1      31.387 -22.644 -17.088  0.00  0.00    -0.288 N 
ATOM      5  C   UNL     1      31.892 -23.227 -15.851  0.00  0.00    +0.124 C 
ATOM      6  C   UNL     1      31.470 -24.707 -15.760  0.00  0.00    +0.038 C 
ATOM      7  C   UNL     1      31.377 -22.418 -14.644  0.00  0.00    +0.038 C 
ATOM      8  C   UNL     1      29.877 -22.607 -14.408  0.00  0.00    +0.003 C 
ATOM      9  C   UNL     1      29.970 -24.876 -15.514  0.00  0.00    +0.003 C 
ATOM     10  C   UNL     1      29.505 -24.081 -14.298  0.00  0.00    +0.000 C 
ATOM     11  C   UNL     1      33.660 -22.489 -17.216  0.00  0.00    +0.105 C 
ATOM     12  C   UNL     1      32.393 -22.191 -17.932  0.00  0.00    +0.260 C 
ATOM     13  C   UNL     1      34.325 -23.500 -15.090  0.00  0.00    +0.267 C 
ATOM     14  C   UNL     1      34.924 -22.253 -17.597  0.00  0.00    -0.002 C 
ATOM     15  C   UNL     1      35.752 -23.243 -15.500  0.00  0.00    +0.104 C 
ATOM     16  C   UNL     1      35.983 -22.655 -16.687  0.00  0.00    +0.016 C 
ATOM     17  C   UNL     1      35.380 -21.612 -18.873  0.00  0.00    +0.033 C 
ATOM     18  H   UNL     1      30.428 -22.577 -17.304  0.00  0.00    +0.151 HD
ENDROOT
BRANCH  15  19
ATOM     19  N   UNL     1      36.718 -23.634 -14.619  0.00  0.00    -0.298 N 
ATOM     20  N   UNL     1      36.634 -25.988 -14.845  0.00  0.00    -0.233 NA
ATOM     21  N   UNL     1      38.565 -27.310 -14.268  0.00  0.00    -0.234 NA
ATOM     22  C   UNL     1      37.334 -24.885 -14.505  0.00  0.00    +0.113 C 
ATOM     23  C   UNL     1      38.634 -24.914 -14.043  0.00  0.00    +0.121 C 
ATOM     24  C   UNL     1      39.205 -26.167 -13.944  0.00  0.00    +0.107 C 
ATOM     25  C   UNL     1      37.302 -27.150 -14.705  0.00  0.00    +0.252 C 
ATOM     26  H   UNL     1      37.020 -22.947 -13.983  0.00  0.00    +0.153 HD
ATOM     27  N   UNL     1      40.538 -26.239 -13.472  0.00  0.00    -0.346 N 
ATOM     28  H   UNL     1      40.984 -27.112 -13.386  0.00  0.00    +0.143 HD
ATOM     29  H   UNL     1      41.021 -25.415 -13.230  0.00  0.00    +0.143 HD
ENDBRANCH  15  19
TORSDOF 1
ENDMDL
MODEL 3
REMARK VINA RESULT:      -9.4     10.736     14.939
REMARK  Name = 118598754
REMARK  1 active torsions:
REMARK  status: ('A' for Active; 'I' for Inactive)
REMARK    1  A    between atoms: C_15  and  N_19
REMARK                            x       y       z     vdW  Elec       q    Type
REMARK                         _______ _______ _______ _____ _____    ______ ____
ROOT
ATOM      1  O   UNL     1      31.603  -8.564 -19.645  0.00  0.00    -0.269 OA
ATOM      2  O   UNL     1      33.849 -10.622 -24.623  0.00  0.00    -0.268 OA
ATOM      3  N   UNL     1      32.956  -9.805 -22.640  0.00  0.00    -0.238 N 
ATOM      4  N   UNL     1      32.604  -7.782 -21.609  0.00  0.00    -0.288 N 
ATOM      5  C   UNL     1      33.154  -8.346 -22.836  0.00  0.00    +0.124 C 
ATOM      6  C   UNL     1      34.650  -7.992 -22.949  0.00  0.00    +0.038 C 
ATOM      7  C   UNL     1      32.358  -7.830 -24.051  0.00  0.00    +0.038 C 
ATOM      8  C   UNL     1      32.610  -6.346 -24.330  0.00  0.00    +0.003 C 
ATOM      9  C   UNL     1      34.882  -6.508 -23.238  0.00  0.00    +0.003 C 
ATOM     10  C   UNL     1      34.099  -6.043 -24.461  0.00  0.00    +0.000 C 
ATOM     11  C   UNL     1      32.351 -10.042 -21.418  0.00  0.00    +0.105 C 
ATOM     12  C   UNL     1      32.114  -8.743 -20.734  0.00  0.00    +0.260 C 
ATOM     13  C   UNL     1      33.314 -10.809 -23.532  0.00  0.00    +0.267 C 
ATOM     14  C   UNL     1      32.063 -11.283 -20.999  0.00  0.00    -0.002 C 
ATOM     15  C   UNL     1      32.998 -12.211 -23.080  0.00  0.00    +0.104 C 
ATOM     16  C   UNL     1      32.410 -12.383 -21.883  0.00  0.00    +0.016 C 
ATOM     17  C   UNL     1      31.413 -11.676 -19.707  0.00  0.00    +0.033 C 
ATOM     18  H   UNL     1      32.580  -6.816 -21.419  0.00  0.00    +0.151 HD
ENDROOT
BRANCH  15  19
ATOM     19  N   UNL     1      33.340 -13.217 -23.936  0.00  0.00    -0.298 N 
ATOM     20  N   UNL     1      34.596 -14.635 -22.519  0.00  0.00    -0.233 NA
ATOM     21  N   UNL     1      34.813 -16.973 -23.062  0.00  0.00    -0.234 NA
ATOM     22  C   UNL     1      33.844 -14.485 -23.630  0.00  0.00    +0.113 C 
ATOM     23  C   UNL     1      33.538 -15.517 -24.494  0.00  0.00    +0.121 C 
ATOM     24  C   UNL     1      34.055 -16.752 -24.156  0.00  0.00    +0.107 C 
ATOM     25  C   UNL     1      35.041 -15.888 -22.299  0.00  0.00    +0.252 C 
ATOM     26  H   UNL     1      33.213 -13.025 -24.894  0.00  0.00    +0.153 HD
ATOM     27  N   UNL     1      33.766 -17.836 -25.020  0.00  0.00    -0.346 N 
ATOM     28  H   UNL     1      34.114 -18.735 -24.817  0.00  0.00    +0.143 HD
ATOM     29  H   UNL     1      33.215 -17.694 -25.824  0.00  0.00    +0.143 HD
ENDBRANCH  15  19
TORSDOF 1
ENDMDL
