MODEL 1
REMARK VINA RESULT:     -12.2      0.000      0.000
REMARK  Name = 447655
REMARK  6 active torsions:
REMARK  status: ('A' for Active; 'I' for Inactive)
REMARK    1  A    between atoms: N_4  and  C_14
REMARK    2  A    between atoms: C_6  and  O_26
REMARK    3  A    between atoms: C_15  and  S_20
REMARK    4  A    between atoms: S_20  and  N_23
REMARK    5  A    between atoms: O_26  and  C_27
REMARK    6  A    between atoms: C_27  and  C_28
REMARK                            x       y       z     vdW  Elec       q    Type
REMARK                         _______ _______ _______ _____ _____    ______ ____
ROOT
ATOM      1  N   UNL     1      32.313 -23.425 -15.496  0.00  0.00    -0.293 NA
ATOM      2  N   UNL     1      29.026 -22.493 -16.858  0.00  0.00    -0.266 NA
ATOM      3  N   UNL     1      30.442 -23.911 -14.008  0.00  0.00    -0.316 NA
ATOM      4  N   UNL     1      32.645 -24.401 -13.393  0.00  0.00    -0.238 N 
ATOM      5  N   UNL     1      28.274 -23.291 -14.918  0.00  0.00    -0.296 N 
ATOM      6  C   UNL     1      31.486 -22.922 -16.440  0.00  0.00    +0.288 C 
ATOM      7  C   UNL     1      30.133 -22.908 -16.175  0.00  0.00    +0.215 C 
ATOM      8  C   UNL     1      29.640 -23.400 -14.973  0.00  0.00    +0.196 C 
ATOM      9  C   UNL     1      31.746 -23.883 -14.354  0.00  0.00    +0.207 C 
ATOM     10  C   UNL     1      27.936 -22.743 -16.065  0.00  0.00    +0.164 C 
ATOM     11  H   UNL     1      29.013 -22.090 -17.756  0.00  0.00    +0.126 HD
ATOM     12  H   UNL     1      32.206 -24.727 -12.575  0.00  0.00    +0.166 HD
ATOM     13  H   UNL     1      27.678 -23.563 -14.183  0.00  0.00    +0.150 HD
ENDROOT
BRANCH   4  14
ATOM     14  C   UNL     1      34.044 -24.544 -13.380  0.00  0.00    +0.060 C 
ATOM     15  C   UNL     1      36.169 -24.275 -12.256  0.00  0.00    +0.123 C 
ATOM     16  C   UNL     1      34.782 -24.133 -12.268  0.00  0.00    +0.035 C 
ATOM     17  C   UNL     1      34.702 -25.100 -14.481  0.00  0.00    +0.015 C 
ATOM     18  C   UNL     1      36.823 -24.830 -13.356  0.00  0.00    +0.020 C 
ATOM     19  C   UNL     1      36.089 -25.243 -14.468  0.00  0.00    +0.003 C 
BRANCH  15  20
ATOM     20  S   UNL     1      37.088 -23.760 -10.864  0.00  0.00    +0.057 S 
ATOM     21  O   UNL     1      38.299 -24.566 -10.789  0.00  0.00    -0.153 OA
ATOM     22  O   UNL     1      37.187 -22.307 -10.887  0.00  0.00    -0.153 OA
BRANCH  20  23
ATOM     23  N   UNL     1      36.041 -24.218  -9.593  0.00  0.00    -0.203 NA
ATOM     24  H   UNL     1      35.828 -25.213  -9.672  0.00  0.00    +0.144 HD
ATOM     25  H   UNL     1      35.177 -23.680  -9.655  0.00  0.00    +0.144 HD
ENDBRANCH  20  23
ENDBRANCH  15  20
ENDBRANCH   4  14
BRANCH   6  26
ATOM     26  O   UNL     1      32.028 -22.449 -17.610  0.00  0.00    -0.453 OA
BRANCH  26  27
ATOM     27  C   UNL     1      33.379 -22.779 -17.873  0.00  0.00    +0.208 C 
BRANCH  27  28
ATOM     28  C   UNL     1      33.808 -22.073 -19.158  0.00  0.00    +0.044 C 
ATOM     29  C   UNL     1      32.838 -20.934 -19.502  0.00  0.00    +0.004 C 
ATOM     30  C   UNL     1      35.245 -21.547 -19.033  0.00  0.00    +0.004 C 
ATOM     31  C   UNL     1      33.276 -20.180 -20.754  0.00  0.00    +0.000 C 
ATOM     32  C   UNL     1      35.678 -20.791 -20.287  0.00  0.00    +0.000 C 
ATOM     33  C   UNL     1      34.707 -19.666 -20.630  0.00  0.00    +0.000 C 
ENDBRANCH  27  28
ENDBRANCH  26  27
ENDBRANCH   6  26
TORSDOF 6
ENDMDL
MODEL 2
REMARK VINA RESULT:     -12.2      2.132      2.637
REMARK  Name = 447655
REMARK  6 active torsions:
REMARK  status: ('A' for Active; 'I' for Inactive)
REMARK    1  A    between atoms: N_4  and  C_14
REMARK    2  A    between atoms: C_6  and  O_26
REMARK    3  A    between atoms: C_15  and  S_20
REMARK    4  A    between atoms: S_20  and  N_23
REMARK    5  A    between atoms: O_26  and  C_27
REMARK    6  A    between atoms: C_27  and  C_28
REMARK                            x       y       z     vdW  Elec       q    Type
REMARK                         _______ _______ _______ _____ _____    ______ ____
ROOT
ATOM      1  N   UNL     1      33.314 -23.926 -14.366  0.00  0.00    -0.293 NA
ATOM      2  N   UNL     1      29.905 -24.030 -15.741  0.00  0.00    -0.266 NA
ATOM      3  N   UNL     1      31.708 -25.109 -12.962  0.00  0.00    -0.316 NA
ATOM      4  N   UNL     1      33.948 -24.891 -12.328  0.00  0.00    -0.238 N 
ATOM      5  N   UNL     1      29.458 -25.172 -13.881  0.00  0.00    -0.296 N 
ATOM      6  C   UNL     1      32.369 -23.655 -15.293  0.00  0.00    +0.288 C 
ATOM      7  C   UNL     1      31.086 -24.107 -15.061  0.00  0.00    +0.215 C 
ATOM      8  C   UNL     1      30.783 -24.820 -13.909  0.00  0.00    +0.196 C 
ATOM      9  C   UNL     1      32.930 -24.628 -13.273  0.00  0.00    +0.207 C 
ATOM     10  C   UNL     1      28.958 -24.682 -14.995  0.00  0.00    +0.164 C 
ATOM     11  H   UNL     1      29.760 -23.588 -16.609  0.00  0.00    +0.126 HD
ATOM     12  H   UNL     1      33.641 -25.402 -11.545  0.00  0.00    +0.166 HD
ATOM     13  H   UNL     1      28.984 -25.678 -13.181  0.00  0.00    +0.150 HD
ENDROOT
BRANCH   4  14
ATOM     14  C   UNL     1      35.317 -24.565 -12.290  0.00  0.00    +0.060 C 
ATOM     15  C   UNL     1      37.581 -24.928 -13.060  0.00  0.00    +0.123 C 
ATOM     16  C   UNL     1      36.224 -25.252 -13.098  0.00  0.00    +0.035 C 
ATOM     17  C   UNL     1      35.772 -23.550 -11.444  0.00  0.00    +0.015 C 
ATOM     18  C   UNL     1      38.032 -23.915 -12.214  0.00  0.00    +0.020 C 
ATOM     19  C   UNL     1      37.127 -23.226 -11.406  0.00  0.00    +0.003 C 
BRANCH  15  20
ATOM     20  S   UNL     1      38.714 -25.789 -14.072  0.00  0.00    +0.057 S 
ATOM     21  O   UNL     1      39.813 -26.253 -13.238  0.00  0.00    -0.153 OA
ATOM     22  O   UNL     1      37.973 -26.740 -14.889  0.00  0.00    -0.153 OA
BRANCH  20  23
ATOM     23  N   UNL     1      39.278 -24.527 -15.077  0.00  0.00    -0.203 NA
ATOM     24  H   UNL     1      38.918 -24.660 -16.022  0.00  0.00    +0.144 HD
ATOM     25  H   UNL     1      40.297 -24.539 -15.096  0.00  0.00    +0.144 HD
ENDBRANCH  20  23
ENDBRANCH  15  20
ENDBRANCH   4  14
BRANCH   6  26
ATOM     26  O   UNL     1      32.725 -22.945 -16.413  0.00  0.00    -0.453 OA
BRANCH  26  27
ATOM     27  C   UNL     1      34.058 -23.084 -16.865  0.00  0.00    +0.208 C 
BRANCH  27  28
ATOM     28  C   UNL     1      34.145 -22.541 -18.291  0.00  0.00    +0.044 C 
ATOM     29  C   UNL     1      32.955 -21.620 -18.594  0.00  0.00    +0.004 C 
ATOM     30  C   UNL     1      35.474 -21.805 -18.510  0.00  0.00    +0.004 C 
ATOM     31  C   UNL     1      33.047 -21.023 -19.995  0.00  0.00    +0.000 C 
ATOM     32  C   UNL     1      35.561 -21.206 -19.912  0.00  0.00    +0.000 C 
ATOM     33  C   UNL     1      34.372 -20.300 -20.213  0.00  0.00    +0.000 C 
ENDBRANCH  27  28
ENDBRANCH  26  27
ENDBRANCH   6  26
TORSDOF 6
ENDMDL
MODEL 3
REMARK VINA RESULT:     -12.1      2.353      2.784
REMARK  Name = 447655
REMARK  6 active torsions:
REMARK  status: ('A' for Active; 'I' for Inactive)
REMARK    1  A    between atoms: N_4  and  C_14
REMARK    2  A    between atoms: C_6  and  O_26
REMARK    3  A    between atoms: C_15  and  S_20
REMARK    4  A    between atoms: S_20  and  N_23
REMARK    5  A    between atoms: O_26  and  C_27
REMARK    6  A    between atoms: C_27  and  C_28
REMARK                            x       y       z     vdW  Elec       q    Type
REMARK                         _______ _______ _______ _____ _____    ______ ____
ROOT
ATOM      1  N   UNL     1      33.273 -22.993 -16.150  0.00  0.00    -0.293 NA
ATOM      2  N   UNL     1      29.641 -22.609 -16.579  0.00  0.00    -0.266 NA
ATOM      3  N   UNL     1      31.979 -23.422 -14.127  0.00  0.00    -0.316 NA
ATOM      4  N   UNL     1      34.311 -23.594 -14.138  0.00  0.00    -0.238 N 
ATOM      5  N   UNL     1      29.579 -23.166 -14.422  0.00  0.00    -0.296 N 
ATOM      6  C   UNL     1      32.154 -22.725 -16.860  0.00  0.00    +0.288 C 
ATOM      7  C   UNL     1      30.940 -22.803 -16.209  0.00  0.00    +0.215 C 
ATOM      8  C   UNL     1      30.877 -23.147 -14.866  0.00  0.00    +0.196 C 
ATOM      9  C   UNL     1      33.117 -23.321 -14.845  0.00  0.00    +0.207 C 
ATOM     10  C   UNL     1      28.861 -22.837 -15.475  0.00  0.00    +0.164 C 
ATOM     11  H   UNL     1      29.321 -22.352 -17.474  0.00  0.00    +0.126 HD
ATOM     12  H   UNL     1      34.168 -23.830 -13.194  0.00  0.00    +0.166 HD
ATOM     13  H   UNL     1      29.255 -23.376 -13.516  0.00  0.00    +0.150 HD
ENDROOT
BRANCH   4  14
ATOM     14  C   UNL     1      35.664 -23.595 -14.523  0.00  0.00    +0.060 C 
ATOM     15  C   UNL     1      37.816 -24.697 -14.619  0.00  0.00    +0.123 C 
ATOM     16  C   UNL     1      36.475 -24.696 -14.236  0.00  0.00    +0.035 C 
ATOM     17  C   UNL     1      36.202 -22.495 -15.198  0.00  0.00    +0.015 C 
ATOM     18  C   UNL     1      38.350 -23.597 -15.291  0.00  0.00    +0.020 C 
ATOM     19  C   UNL     1      37.543 -22.497 -15.580  0.00  0.00    +0.003 C 
BRANCH  15  20
ATOM     20  S   UNL     1      38.827 -26.073 -14.259  0.00  0.00    +0.057 S 
ATOM     21  O   UNL     1      39.377 -25.902 -12.922  0.00  0.00    -0.153 OA
ATOM     22  O   UNL     1      38.090 -27.286 -14.588  0.00  0.00    -0.153 OA
BRANCH  20  23
ATOM     23  N   UNL     1      40.080 -25.867 -15.402  0.00  0.00    -0.203 NA
ATOM     24  H   UNL     1      40.895 -26.408 -15.114  0.00  0.00    +0.144 HD
ATOM     25  H   UNL     1      40.330 -24.879 -15.457  0.00  0.00    +0.144 HD
ENDBRANCH  20  23
ENDBRANCH  15  20
ENDBRANCH   4  14
BRANCH   6  26
ATOM     26  O   UNL     1      32.277 -22.389 -18.186  0.00  0.00    -0.453 OA
BRANCH  26  27
ATOM     27  C   UNL     1      33.503 -22.704 -18.819  0.00  0.00    +0.208 C 
BRANCH  27  28
ATOM     28  C   UNL     1      34.211 -21.399 -19.177  0.00  0.00    +0.044 C 
ATOM     29  C   UNL     1      35.686 -21.657 -19.514  0.00  0.00    +0.004 C 
ATOM     30  C   UNL     1      33.500 -20.698 -20.342  0.00  0.00    +0.004 C 
ATOM     31  C   UNL     1      36.403 -20.374 -19.927  0.00  0.00    +0.000 C 
ATOM     32  C   UNL     1      34.221 -19.417 -20.754  0.00  0.00    +0.000 C 
ATOM     33  C   UNL     1      35.688 -19.676 -21.079  0.00  0.00    +0.000 C 
ENDBRANCH  27  28
ENDBRANCH  26  27
ENDBRANCH   6  26
TORSDOF 6
ENDMDL
MODEL 4
REMARK VINA RESULT:     -11.6      2.423      5.143
REMARK  Name = 447655
REMARK  6 active torsions:
REMARK  status: ('A' for Active; 'I' for Inactive)
REMARK    1  A    between atoms: N_4  and  C_14
REMARK    2  A    between atoms: C_6  and  O_26
REMARK    3  A    between atoms: C_15  and  S_20
REMARK    4  A    between atoms: S_20  and  N_23
REMARK    5  A    between atoms: O_26  and  C_27
REMARK    6  A    between atoms: C_27  and  C_28
REMARK                            x       y       z     vdW  Elec       q    Type
REMARK                         _______ _______ _______ _____ _____    ______ ____
ROOT
ATOM      1  N   UNL     1      35.139 -23.385 -16.052  0.00  0.00    -0.293 NA
ATOM      2  N   UNL     1      33.073 -21.969 -18.746  0.00  0.00    -0.266 NA
ATOM      3  N   UNL     1      36.379 -22.018 -17.647  0.00  0.00    -0.316 NA
ATOM      4  N   UNL     1      37.445 -23.041 -15.834  0.00  0.00    -0.238 N 
ATOM      5  N   UNL     1      35.003 -21.086 -19.422  0.00  0.00    -0.296 N 
ATOM      6  C   UNL     1      33.978 -23.178 -16.713  0.00  0.00    +0.288 C 
ATOM      7  C   UNL     1      34.008 -22.390 -17.845  0.00  0.00    +0.215 C 
ATOM      8  C   UNL     1      35.199 -21.829 -18.286  0.00  0.00    +0.196 C 
ATOM      9  C   UNL     1      36.252 -22.799 -16.554  0.00  0.00    +0.207 C 
ATOM     10  C   UNL     1      33.716 -21.191 -19.672  0.00  0.00    +0.164 C 
ATOM     11  H   UNL     1      32.112 -22.185 -18.732  0.00  0.00    +0.126 HD
ATOM     12  H   UNL     1      38.237 -22.602 -16.219  0.00  0.00    +0.166 HD
ATOM     13  H   UNL     1      35.677 -20.586 -19.938  0.00  0.00    +0.150 HD
ENDROOT
BRANCH   4  14
ATOM     14  C   UNL     1      37.719 -23.784 -14.671  0.00  0.00    +0.060 C 
ATOM     15  C   UNL     1      37.201 -24.362 -12.380  0.00  0.00    +0.123 C 
ATOM     16  C   UNL     1      36.928 -23.624 -13.532  0.00  0.00    +0.035 C 
ATOM     17  C   UNL     1      38.785 -24.689 -14.654  0.00  0.00    +0.015 C 
ATOM     18  C   UNL     1      38.265 -25.264 -12.366  0.00  0.00    +0.020 C 
ATOM     19  C   UNL     1      39.057 -25.427 -13.503  0.00  0.00    +0.003 C 
BRANCH  15  20
ATOM     20  S   UNL     1      36.211 -24.159 -10.957  0.00  0.00    +0.057 S 
ATOM     21  O   UNL     1      35.925 -25.476 -10.405  0.00  0.00    -0.153 OA
ATOM     22  O   UNL     1      36.816 -23.137 -10.115  0.00  0.00    -0.153 OA
BRANCH  20  23
ATOM     23  N   UNL     1      34.779 -23.526 -11.643  0.00  0.00    -0.203 NA
ATOM     24  H   UNL     1      33.995 -23.701 -11.014  0.00  0.00    +0.144 HD
ATOM     25  H   UNL     1      34.604 -23.980 -12.540  0.00  0.00    +0.144 HD
ENDBRANCH  20  23
ENDBRANCH  15  20
ENDBRANCH   4  14
BRANCH   6  26
ATOM     26  O   UNL     1      32.829 -23.758 -16.231  0.00  0.00    -0.453 OA
BRANCH  26  27
ATOM     27  C   UNL     1      32.432 -23.405 -14.920  0.00  0.00    +0.208 C 
BRANCH  27  28
ATOM     28  C   UNL     1      30.905 -23.426 -14.855  0.00  0.00    +0.044 C 
ATOM     29  C   UNL     1      30.300 -22.766 -16.102  0.00  0.00    +0.004 C 
ATOM     30  C   UNL     1      30.390 -24.862 -14.694  0.00  0.00    +0.004 C 
ATOM     31  C   UNL     1      28.775 -22.822 -16.085  0.00  0.00    +0.000 C 
ATOM     32  C   UNL     1      28.864 -24.915 -14.680  0.00  0.00    +0.000 C 
ATOM     33  C   UNL     1      28.266 -24.250 -15.916  0.00  0.00    +0.000 C 
ENDBRANCH  27  28
ENDBRANCH  26  27
ENDBRANCH   6  26
TORSDOF 6
ENDMDL
MODEL 5
REMARK VINA RESULT:     -11.1      3.279      5.838
REMARK  Name = 447655
REMARK  6 active torsions:
REMARK  status: ('A' for Active; 'I' for Inactive)
REMARK    1  A    between atoms: N_4  and  C_14
REMARK    2  A    between atoms: C_6  and  O_26
REMARK    3  A    between atoms: C_15  and  S_20
REMARK    4  A    between atoms: S_20  and  N_23
REMARK    5  A    between atoms: O_26  and  C_27
REMARK    6  A    between atoms: C_27  and  C_28
REMARK                            x       y       z     vdW  Elec       q    Type
REMARK                         _______ _______ _______ _____ _____    ______ ____
ROOT
ATOM      1  N   UNL     1      34.863 -22.525 -17.357  0.00  0.00    -0.293 NA
ATOM      2  N   UNL     1      33.191 -21.000 -20.256  0.00  0.00    -0.266 NA
ATOM      3  N   UNL     1      36.270 -20.988 -18.625  0.00  0.00    -0.316 NA
ATOM      4  N   UNL     1      37.080 -22.098 -16.732  0.00  0.00    -0.238 N 
ATOM      5  N   UNL     1      35.155 -19.985 -20.539  0.00  0.00    -0.296 N 
ATOM      6  C   UNL     1      33.816 -22.319 -18.187  0.00  0.00    +0.288 C 
ATOM      7  C   UNL     1      33.988 -21.447 -19.242  0.00  0.00    +0.215 C 
ATOM      8  C   UNL     1      35.203 -20.803 -19.439  0.00  0.00    +0.196 C 
ATOM      9  C   UNL     1      36.010 -21.855 -17.624  0.00  0.00    +0.207 C 
ATOM     10  C   UNL     1      33.934 -20.127 -21.008  0.00  0.00    +0.164 C 
ATOM     11  H   UNL     1      32.255 -21.258 -20.418  0.00  0.00    +0.126 HD
ATOM     12  H   UNL     1      37.899 -21.598 -16.950  0.00  0.00    +0.166 HD
ATOM     13  H   UNL     1      35.875 -19.419 -20.900  0.00  0.00    +0.150 HD
ENDROOT
BRANCH   4  14
ATOM     14  C   UNL     1      37.201 -22.915 -15.593  0.00  0.00    +0.060 C 
ATOM     15  C   UNL     1      38.458 -24.513 -14.283  0.00  0.00    +0.123 C 
ATOM     16  C   UNL     1      38.339 -23.704 -15.414  0.00  0.00    +0.035 C 
ATOM     17  C   UNL     1      36.183 -22.937 -14.636  0.00  0.00    +0.015 C 
ATOM     18  C   UNL     1      37.440 -24.534 -13.329  0.00  0.00    +0.020 C 
ATOM     19  C   UNL     1      36.303 -23.745 -13.506  0.00  0.00    +0.003 C 
BRANCH  15  20
ATOM     20  S   UNL     1      39.882 -25.499 -14.061  0.00  0.00    +0.057 S 
ATOM     21  O   UNL     1      40.958 -24.649 -13.573  0.00  0.00    -0.153 OA
ATOM     22  O   UNL     1      39.506 -26.691 -13.313  0.00  0.00    -0.153 OA
BRANCH  20  23
ATOM     23  N   UNL     1      40.222 -25.949 -15.674  0.00  0.00    -0.203 NA
ATOM     24  H   UNL     1      39.644 -26.750 -15.932  0.00  0.00    +0.144 HD
ATOM     25  H   UNL     1      41.207 -26.201 -15.755  0.00  0.00    +0.144 HD
ENDBRANCH  20  23
ENDBRANCH  15  20
ENDBRANCH   4  14
BRANCH   6  26
ATOM     26  O   UNL     1      32.639 -22.983 -17.944  0.00  0.00    -0.453 OA
BRANCH  26  27
ATOM     27  C   UNL     1      31.884 -22.566 -16.822  0.00  0.00    +0.208 C 
BRANCH  27  28
ATOM     28  C   UNL     1      31.783 -23.736 -15.845  0.00  0.00    +0.044 C 
ATOM     29  C   UNL     1      32.667 -23.493 -14.615  0.00  0.00    +0.004 C 
ATOM     30  C   UNL     1      30.324 -23.971 -15.431  0.00  0.00    +0.004 C 
ATOM     31  C   UNL     1      32.542 -24.626 -13.599  0.00  0.00    +0.000 C 
ATOM     32  C   UNL     1      30.203 -25.102 -14.413  0.00  0.00    +0.000 C 
ATOM     33  C   UNL     1      31.090 -24.862 -13.196  0.00  0.00    +0.000 C 
ENDBRANCH  27  28
ENDBRANCH  26  27
ENDBRANCH   6  26
TORSDOF 6
ENDMDL
MODEL 6
REMARK VINA RESULT:     -10.9      3.747      7.573
REMARK  Name = 447655
REMARK  6 active torsions:
REMARK  status: ('A' for Active; 'I' for Inactive)
REMARK    1  A    between atoms: N_4  and  C_14
REMARK    2  A    between atoms: C_6  and  O_26
REMARK    3  A    between atoms: C_15  and  S_20
REMARK    4  A    between atoms: S_20  and  N_23
REMARK    5  A    between atoms: O_26  and  C_27
REMARK    6  A    between atoms: C_27  and  C_28
REMARK                            x       y       z     vdW  Elec       q    Type
REMARK                         _______ _______ _______ _____ _____    ______ ____
ROOT
ATOM      1  N   UNL     1      33.579 -22.799 -16.474  0.00  0.00    -0.293 NA
ATOM      2  N   UNL     1      31.493 -24.393 -13.897  0.00  0.00    -0.266 NA
ATOM      3  N   UNL     1      31.211 -22.929 -17.046  0.00  0.00    -0.316 NA
ATOM      4  N   UNL     1      32.765 -21.963 -18.504  0.00  0.00    -0.238 N 
ATOM      5  N   UNL     1      29.842 -23.983 -15.337  0.00  0.00    -0.296 N 
ATOM      6  C   UNL     1      33.368 -23.405 -15.284  0.00  0.00    +0.288 C 
ATOM      7  C   UNL     1      32.078 -23.779 -14.967  0.00  0.00    +0.215 C 
ATOM      8  C   UNL     1      31.033 -23.534 -15.848  0.00  0.00    +0.196 C 
ATOM      9  C   UNL     1      32.501 -22.600 -17.270  0.00  0.00    +0.207 C 
ATOM     10  C   UNL     1      30.153 -24.494 -14.164  0.00  0.00    +0.164 C 
ATOM     11  H   UNL     1      31.950 -24.705 -13.083  0.00  0.00    +0.126 HD
ATOM     12  H   UNL     1      31.964 -21.831 -19.062  0.00  0.00    +0.166 HD
ATOM     13  H   UNL     1      28.951 -23.936 -15.754  0.00  0.00    +0.150 HD
ENDROOT
BRANCH   4  14
ATOM     14  C   UNL     1      33.948 -21.479 -19.091  0.00  0.00    +0.060 C 
ATOM     15  C   UNL     1      35.071 -19.953 -20.595  0.00  0.00    +0.123 C 
ATOM     16  C   UNL     1      33.897 -20.433 -20.015  0.00  0.00    +0.035 C 
ATOM     17  C   UNL     1      35.181 -22.042 -18.748  0.00  0.00    +0.015 C 
ATOM     18  C   UNL     1      36.300 -20.518 -20.252  0.00  0.00    +0.020 C 
ATOM     19  C   UNL     1      36.354 -21.563 -19.328  0.00  0.00    +0.003 C 
BRANCH  15  20
ATOM     20  S   UNL     1      35.005 -18.646 -21.749  0.00  0.00    +0.057 S 
ATOM     21  O   UNL     1      34.002 -18.971 -22.754  0.00  0.00    -0.153 OA
ATOM     22  O   UNL     1      34.916 -17.389 -21.019  0.00  0.00    -0.153 OA
BRANCH  20  23
ATOM     23  N   UNL     1      36.555 -18.759 -22.460  0.00  0.00    -0.203 NA
ATOM     24  H   UNL     1      36.612 -19.613 -23.014  0.00  0.00    +0.144 HD
ATOM     25  H   UNL     1      37.263 -18.780 -21.727  0.00  0.00    +0.144 HD
ENDBRANCH  20  23
ENDBRANCH  15  20
ENDBRANCH   4  14
BRANCH   6  26
ATOM     26  O   UNL     1      34.439 -23.622 -14.453  0.00  0.00    -0.453 OA
BRANCH  26  27
ATOM     27  C   UNL     1      35.720 -23.286 -14.953  0.00  0.00    +0.208 C 
BRANCH  27  28
ATOM     28  C   UNL     1      36.749 -24.213 -14.309  0.00  0.00    +0.044 C 
ATOM     29  C   UNL     1      37.030 -23.790 -12.861  0.00  0.00    +0.004 C 
ATOM     30  C   UNL     1      36.277 -25.672 -14.369  0.00  0.00    +0.004 C 
ATOM     31  C   UNL     1      38.017 -24.734 -12.179  0.00  0.00    +0.000 C 
ATOM     32  C   UNL     1      37.265 -26.613 -13.684  0.00  0.00    +0.000 C 
ATOM     33  C   UNL     1      37.548 -26.184 -12.248  0.00  0.00    +0.000 C 
ENDBRANCH  27  28
ENDBRANCH  26  27
ENDBRANCH   6  26
TORSDOF 6
ENDMDL
MODEL 7
REMARK VINA RESULT:     -10.8      2.389      5.285
REMARK  Name = 447655
REMARK  6 active torsions:
REMARK  status: ('A' for Active; 'I' for Inactive)
REMARK    1  A    between atoms: N_4  and  C_14
REMARK    2  A    between atoms: C_6  and  O_26
REMARK    3  A    between atoms: C_15  and  S_20
REMARK    4  A    between atoms: S_20  and  N_23
REMARK    5  A    between atoms: O_26  and  C_27
REMARK    6  A    between atoms: C_27  and  C_28
REMARK                            x       y       z     vdW  Elec       q    Type
REMARK                         _______ _______ _______ _____ _____    ______ ____
ROOT
ATOM      1  N   UNL     1      34.511 -22.836 -17.050  0.00  0.00    -0.293 NA
ATOM      2  N   UNL     1      33.280 -21.055 -20.023  0.00  0.00    -0.266 NA
ATOM      3  N   UNL     1      36.215 -21.529 -18.205  0.00  0.00    -0.316 NA
ATOM      4  N   UNL     1      36.722 -22.762 -16.283  0.00  0.00    -0.238 N 
ATOM      5  N   UNL     1      35.391 -20.354 -20.168  0.00  0.00    -0.296 N 
ATOM      6  C   UNL     1      33.563 -22.466 -17.939  0.00  0.00    +0.288 C 
ATOM      7  C   UNL     1      33.933 -21.625 -18.968  0.00  0.00    +0.215 C 
ATOM      8  C   UNL     1      35.242 -21.176 -19.080  0.00  0.00    +0.196 C 
ATOM      9  C   UNL     1      35.761 -22.351 -17.235  0.00  0.00    +0.207 C 
ATOM     10  C   UNL     1      34.195 -20.302 -20.713  0.00  0.00    +0.164 C 
ATOM     11  H   UNL     1      32.328 -21.163 -20.246  0.00  0.00    +0.126 HD
ATOM     12  H   UNL     1      37.621 -22.393 -16.442  0.00  0.00    +0.166 HD
ATOM     13  H   UNL     1      36.212 -19.904 -20.475  0.00  0.00    +0.150 HD
ENDROOT
BRANCH   4  14
ATOM     14  C   UNL     1      36.644 -23.594 -15.152  0.00  0.00    +0.060 C 
ATOM     15  C   UNL     1      37.002 -23.958 -12.787  0.00  0.00    +0.123 C 
ATOM     16  C   UNL     1      37.081 -23.132 -13.909  0.00  0.00    +0.035 C 
ATOM     17  C   UNL     1      36.126 -24.887 -15.268  0.00  0.00    +0.015 C 
ATOM     18  C   UNL     1      36.485 -25.248 -12.906  0.00  0.00    +0.020 C 
ATOM     19  C   UNL     1      36.048 -25.712 -14.147  0.00  0.00    +0.003 C 
BRANCH  15  20
ATOM     20  S   UNL     1      37.548 -23.377 -11.234  0.00  0.00    +0.057 S 
ATOM     21  O   UNL     1      38.978 -23.627 -11.128  0.00  0.00    -0.153 OA
ATOM     22  O   UNL     1      37.033 -22.029 -11.038  0.00  0.00    -0.153 OA
BRANCH  20  23
ATOM     23  N   UNL     1      36.722 -24.438 -10.180  0.00  0.00    -0.203 NA
ATOM     24  H   UNL     1      35.720 -24.249 -10.225  0.00  0.00    +0.144 HD
ATOM     25  H   UNL     1      37.053 -24.294  -9.226  0.00  0.00    +0.144 HD
ENDBRANCH  20  23
ENDBRANCH  15  20
ENDBRANCH   4  14
BRANCH   6  26
ATOM     26  O   UNL     1      32.284 -22.941 -17.780  0.00  0.00    -0.453 OA
BRANCH  26  27
ATOM     27  C   UNL     1      31.610 -22.586 -16.588  0.00  0.00    +0.208 C 
BRANCH  27  28
ATOM     28  C   UNL     1      31.575 -23.807 -15.670  0.00  0.00    +0.044 C 
ATOM     29  C   UNL     1      32.423 -23.565 -14.413  0.00  0.00    +0.004 C 
ATOM     30  C   UNL     1      30.131 -24.161 -15.293  0.00  0.00    +0.004 C 
ATOM     31  C   UNL     1      32.362 -24.751 -13.455  0.00  0.00    +0.000 C 
ATOM     32  C   UNL     1      30.074 -25.347 -14.333  0.00  0.00    +0.000 C 
ATOM     33  C   UNL     1      30.924 -25.106 -13.090  0.00  0.00    +0.000 C 
ENDBRANCH  27  28
ENDBRANCH  26  27
ENDBRANCH   6  26
TORSDOF 6
ENDMDL
MODEL 8
REMARK VINA RESULT:      -9.8      7.316     10.592
REMARK  Name = 447655
REMARK  6 active torsions:
REMARK  status: ('A' for Active; 'I' for Inactive)
REMARK    1  A    between atoms: N_4  and  C_14
REMARK    2  A    between atoms: C_6  and  O_26
REMARK    3  A    between atoms: C_15  and  S_20
REMARK    4  A    between atoms: S_20  and  N_23
REMARK    5  A    between atoms: O_26  and  C_27
REMARK    6  A    between atoms: C_27  and  C_28
REMARK                            x       y       z     vdW  Elec       q    Type
REMARK                         _______ _______ _______ _____ _____    ______ ____
ROOT
ATOM      1  N   UNL     1      34.574 -16.423 -22.631  0.00  0.00    -0.293 NA
ATOM      2  N   UNL     1      33.176 -13.835 -24.839  0.00  0.00    -0.266 NA
ATOM      3  N   UNL     1      33.807 -17.261 -24.790  0.00  0.00    -0.316 NA
ATOM      4  N   UNL     1      34.740 -18.691 -23.191  0.00  0.00    -0.238 N 
ATOM      5  N   UNL     1      32.886 -15.543 -26.241  0.00  0.00    -0.296 N 
ATOM      6  C   UNL     1      34.216 -15.159 -22.947  0.00  0.00    +0.288 C 
ATOM      7  C   UNL     1      33.650 -14.936 -24.185  0.00  0.00    +0.215 C 
ATOM      8  C   UNL     1      33.459 -15.984 -25.076  0.00  0.00    +0.196 C 
ATOM      9  C   UNL     1      34.351 -17.383 -23.560  0.00  0.00    +0.207 C 
ATOM     10  C   UNL     1      32.729 -14.248 -26.067  0.00  0.00    +0.164 C 
ATOM     11  H   UNL     1      33.160 -12.914 -24.493  0.00  0.00    +0.126 HD
ATOM     12  H   UNL     1      34.567 -19.368 -23.885  0.00  0.00    +0.166 HD
ATOM     13  H   UNL     1      32.644 -16.076 -27.033  0.00  0.00    +0.150 HD
ENDROOT
BRANCH   4  14
ATOM     14  C   UNL     1      35.328 -19.214 -22.025  0.00  0.00    +0.060 C 
ATOM     15  C   UNL     1      35.233 -20.686 -20.107  0.00  0.00    +0.123 C 
ATOM     16  C   UNL     1      34.649 -20.168 -21.263  0.00  0.00    +0.035 C 
ATOM     17  C   UNL     1      36.596 -18.783 -21.625  0.00  0.00    +0.015 C 
ATOM     18  C   UNL     1      36.499 -20.254 -19.711  0.00  0.00    +0.020 C 
ATOM     19  C   UNL     1      37.180 -19.302 -20.470  0.00  0.00    +0.003 C 
BRANCH  15  20
ATOM     20  S   UNL     1      34.382 -21.878 -19.157  0.00  0.00    +0.057 S 
ATOM     21  O   UNL     1      33.053 -21.365 -18.860  0.00  0.00    -0.153 OA
ATOM     22  O   UNL     1      34.529 -23.175 -19.803  0.00  0.00    -0.153 OA
BRANCH  20  23
ATOM     23  N   UNL     1      35.309 -21.873 -17.721  0.00  0.00    -0.203 NA
ATOM     24  H   UNL     1      35.650 -22.816 -17.534  0.00  0.00    +0.144 HD
ATOM     25  H   UNL     1      34.728 -21.561 -16.943  0.00  0.00    +0.144 HD
ENDBRANCH  20  23
ENDBRANCH  15  20
ENDBRANCH   4  14
BRANCH   6  26
ATOM     26  O   UNL     1      34.428 -14.161 -22.027  0.00  0.00    -0.453 OA
BRANCH  26  27
ATOM     27  C   UNL     1      33.451 -13.999 -21.017  0.00  0.00    +0.208 C 
BRANCH  27  28
ATOM     28  C   UNL     1      32.504 -12.876 -21.435  0.00  0.00    +0.044 C 
ATOM     29  C   UNL     1      31.779 -12.294 -20.214  0.00  0.00    +0.004 C 
ATOM     30  C   UNL     1      33.265 -11.779 -22.192  0.00  0.00    +0.004 C 
ATOM     31  C   UNL     1      30.865 -11.134 -20.600  0.00  0.00    +0.000 C 
ATOM     32  C   UNL     1      32.349 -10.619 -22.575  0.00  0.00    +0.000 C 
ATOM     33  C   UNL     1      31.624 -10.050 -21.360  0.00  0.00    +0.000 C 
ENDBRANCH  27  28
ENDBRANCH  26  27
ENDBRANCH   6  26
TORSDOF 6
ENDMDL
MODEL 9
REMARK VINA RESULT:      -9.5      2.615      5.683
REMARK  Name = 447655
REMARK  6 active torsions:
REMARK  status: ('A' for Active; 'I' for Inactive)
REMARK    1  A    between atoms: N_4  and  C_14
REMARK    2  A    between atoms: C_6  and  O_26
REMARK    3  A    between atoms: C_15  and  S_20
REMARK    4  A    between atoms: S_20  and  N_23
REMARK    5  A    between atoms: O_26  and  C_27
REMARK    6  A    between atoms: C_27  and  C_28
REMARK                            x       y       z     vdW  Elec       q    Type
REMARK                         _______ _______ _______ _____ _____    ______ ____
ROOT
ATOM      1  N   UNL     1      32.810 -23.713 -15.550  0.00  0.00    -0.293 NA
ATOM      2  N   UNL     1      30.150 -25.133 -13.445  0.00  0.00    -0.266 NA
ATOM      3  N   UNL     1      30.571 -23.499 -16.494  0.00  0.00    -0.316 NA
ATOM      4  N   UNL     1      32.449 -22.682 -17.622  0.00  0.00    -0.238 N 
ATOM      5  N   UNL     1      28.820 -24.441 -15.094  0.00  0.00    -0.296 N 
ATOM      6  C   UNL     1      32.334 -24.340 -14.452  0.00  0.00    +0.288 C 
ATOM      7  C   UNL     1      30.974 -24.553 -14.366  0.00  0.00    +0.215 C 
ATOM      8  C   UNL     1      30.125 -24.131 -15.381  0.00  0.00    +0.196 C 
ATOM      9  C   UNL     1      31.910 -23.335 -16.490  0.00  0.00    +0.207 C 
ATOM     10  C   UNL     1      28.869 -25.042 -13.924  0.00  0.00    +0.164 C 
ATOM     11  H   UNL     1      30.425 -25.541 -12.593  0.00  0.00    +0.126 HD
ATOM     12  H   UNL     1      31.773 -22.419 -18.288  0.00  0.00    +0.166 HD
ATOM     13  H   UNL     1      28.022 -24.256 -15.641  0.00  0.00    +0.150 HD
ENDROOT
BRANCH   4  14
ATOM     14  C   UNL     1      33.764 -22.333 -17.982  0.00  0.00    +0.060 C 
ATOM     15  C   UNL     1      36.060 -21.889 -17.364  0.00  0.00    +0.123 C 
ATOM     16  C   UNL     1      34.756 -22.235 -17.006  0.00  0.00    +0.035 C 
ATOM     17  C   UNL     1      34.081 -22.086 -19.321  0.00  0.00    +0.015 C 
ATOM     18  C   UNL     1      36.373 -21.643 -18.701  0.00  0.00    +0.020 C 
ATOM     19  C   UNL     1      35.384 -21.741 -19.679  0.00  0.00    +0.003 C 
BRANCH  15  20
ATOM     20  S   UNL     1      37.299 -21.767 -16.140  0.00  0.00    +0.057 S 
ATOM     21  O   UNL     1      36.655 -21.744 -14.835  0.00  0.00    -0.153 OA
ATOM     22  O   UNL     1      38.327 -22.760 -16.423  0.00  0.00    -0.153 OA
BRANCH  20  23
ATOM     23  N   UNL     1      37.932 -20.214 -16.471  0.00  0.00    -0.203 NA
ATOM     24  H   UNL     1      38.451 -19.880 -15.659  0.00  0.00    +0.144 HD
ATOM     25  H   UNL     1      37.166 -19.572 -16.673  0.00  0.00    +0.144 HD
ENDBRANCH  20  23
ENDBRANCH  15  20
ENDBRANCH   4  14
BRANCH   6  26
ATOM     26  O   UNL     1      33.220 -24.736 -13.480  0.00  0.00    -0.453 OA
BRANCH  26  27
ATOM     27  C   UNL     1      34.353 -23.915 -13.269  0.00  0.00    +0.208 C 
BRANCH  27  28
ATOM     28  C   UNL     1      35.587 -24.810 -13.173  0.00  0.00    +0.044 C 
ATOM     29  C   UNL     1      36.102 -25.176 -14.572  0.00  0.00    +0.004 C 
ATOM     30  C   UNL     1      36.687 -24.129 -12.348  0.00  0.00    +0.004 C 
ATOM     31  C   UNL     1      37.368 -26.027 -14.503  0.00  0.00    +0.000 C 
ATOM     32  C   UNL     1      37.952 -24.982 -12.282  0.00  0.00    +0.000 C 
ATOM     33  C   UNL     1      38.455 -25.351 -13.674  0.00  0.00    +0.000 C 
ENDBRANCH  27  28
ENDBRANCH  26  27
ENDBRANCH   6  26
TORSDOF 6
ENDMDL
