MODEL 1
REMARK VINA RESULT:     -12.3      0.000      0.000
REMARK  Name = 6914657
REMARK  8 active torsions:
REMARK  status: ('A' for Active; 'I' for Inactive)
REMARK    1  A    between atoms: C_1  and  C_4
REMARK    2  A    between atoms: C_1  and  C_16
REMARK    3  A    between atoms: C_9  and  C_10
REMARK    4  A    between atoms: C_16  and  C_17
REMARK    5  A    between atoms: C_17  and  C_18
REMARK    6  A    between atoms: C_18  and  N_20
REMARK    7  A    between atoms: C_21  and  C_23
REMARK    8  A    between atoms: C_24  and  C_26
REMARK                            x       y       z     vdW  Elec       q    Type
REMARK                         _______ _______ _______ _____ _____    ______ ____
ROOT
ATOM      1  C   UNL     1      32.072 -13.115 -20.620  0.00  0.00    +0.000 C 
ENDROOT
BRANCH   1   4
ATOM      2  O   UNL     1      33.046  -7.055 -19.577  0.00  0.00    -0.270 OA
ATOM      3  N   UNL     1      31.978  -8.821 -20.675  0.00  0.00    -0.276 N 
ATOM      4  C   UNL     1      31.540 -11.684 -20.647  0.00  0.00    +0.003 C 
ATOM      5  C   UNL     1      32.012 -10.948 -21.911  0.00  0.00    +0.022 C 
ATOM      6  C   UNL     1      31.975 -10.916 -19.388  0.00  0.00    +0.022 C 
ATOM      7  C   UNL     1      31.548  -9.494 -21.907  0.00  0.00    +0.094 C 
ATOM      8  C   UNL     1      31.520  -9.459 -19.441  0.00  0.00    +0.094 C 
ATOM      9  C   UNL     1      32.721  -7.641 -20.608  0.00  0.00    +0.249 C 
BRANCH   9  10
ATOM     10  C   UNL     1      33.175  -7.036 -21.866  0.00  0.00    +0.054 C 
ATOM     11  C   UNL     1      34.410  -7.394 -22.407  0.00  0.00    +0.005 C 
ATOM     12  C   UNL     1      32.372  -6.103 -22.522  0.00  0.00    +0.005 C 
ATOM     13  C   UNL     1      34.842  -6.820 -23.602  0.00  0.00    +0.000 C 
ATOM     14  C   UNL     1      32.803  -5.529 -23.718  0.00  0.00    +0.000 C 
ATOM     15  C   UNL     1      34.039  -5.887 -24.257  0.00  0.00    +0.000 C 
ENDBRANCH   9  10
ENDBRANCH   1   4
BRANCH   1  16
ATOM     16  C   UNL     1      32.890 -13.424 -21.871  0.00  0.00    +0.002 C 
BRANCH  16  17
ATOM     17  C   UNL     1      34.188 -14.148 -21.515  0.00  0.00    +0.021 C 
BRANCH  17  18
ATOM     18  C   UNL     1      34.603 -15.117 -22.616  0.00  0.00    +0.090 C 
BRANCH  18  20
ATOM     19  O   UNL     1      34.867 -17.554 -24.160  0.00  0.00    -0.270 OA
ATOM     20  N   UNL     1      34.753 -16.455 -22.113  0.00  0.00    -0.301 N 
ATOM     21  C   UNL     1      34.874 -17.570 -22.933  0.00  0.00    +0.246 C 
ATOM     22  H   UNL     1      34.772 -16.588 -21.138  0.00  0.00    +0.150 HD
BRANCH  21  23
ATOM     23  C   UNL     1      35.017 -18.830 -22.149  0.00  0.00    +0.058 C 
ATOM     24  C   UNL     1      34.180 -19.085 -21.133  0.00  0.00    +0.006 C 
BRANCH  24  26
ATOM     25  N   UNL     1      33.025 -22.004 -19.073  0.00  0.00    -0.242 NA
ATOM     26  C   UNL     1      34.223 -20.298 -20.299  0.00  0.00    +0.019 C 
ATOM     27  C   UNL     1      35.433 -20.883 -19.944  0.00  0.00    +0.003 C 
ATOM     28  C   UNL     1      33.057 -20.892 -19.842  0.00  0.00    +0.099 C 
ATOM     29  C   UNL     1      35.442 -22.027 -19.155  0.00  0.00    +0.021 C 
ATOM     30  C   UNL     1      34.222 -22.544 -18.749  0.00  0.00    +0.099 C 
ENDBRANCH  24  26
ENDBRANCH  21  23
ENDBRANCH  18  20
ENDBRANCH  17  18
ENDBRANCH  16  17
ENDBRANCH   1  16
TORSDOF 8
ENDMDL
MODEL 2
REMARK VINA RESULT:     -11.3      1.084      1.431
REMARK  Name = 6914657
REMARK  8 active torsions:
REMARK  status: ('A' for Active; 'I' for Inactive)
REMARK    1  A    between atoms: C_1  and  C_4
REMARK    2  A    between atoms: C_1  and  C_16
REMARK    3  A    between atoms: C_9  and  C_10
REMARK    4  A    between atoms: C_16  and  C_17
REMARK    5  A    between atoms: C_17  and  C_18
REMARK    6  A    between atoms: C_18  and  N_20
REMARK    7  A    between atoms: C_21  and  C_23
REMARK    8  A    between atoms: C_24  and  C_26
REMARK                            x       y       z     vdW  Elec       q    Type
REMARK                         _______ _______ _______ _____ _____    ______ ____
ROOT
ATOM      1  C   UNL     1      33.173 -13.752 -21.425  0.00  0.00    +0.000 C 
ENDROOT
BRANCH   1   4
ATOM      2  O   UNL     1      31.886  -7.754 -20.358  0.00  0.00    -0.270 OA
ATOM      3  N   UNL     1      31.932  -9.651 -21.725  0.00  0.00    -0.276 N 
ATOM      4  C   UNL     1      32.333 -12.519 -21.752  0.00  0.00    +0.003 C 
ATOM      5  C   UNL     1      33.083 -11.586 -22.717  0.00  0.00    +0.022 C 
ATOM      6  C   UNL     1      31.949 -11.764 -20.468  0.00  0.00    +0.022 C 
ATOM      7  C   UNL     1      32.282 -10.315 -22.987  0.00  0.00    +0.094 C 
ATOM      8  C   UNL     1      31.180 -10.483 -20.787  0.00  0.00    +0.094 C 
ATOM      9  C   UNL     1      32.216  -8.323 -21.398  0.00  0.00    +0.249 C 
BRANCH   9  10
ATOM     10  C   UNL     1      32.983  -7.521 -22.359  0.00  0.00    +0.054 C 
ATOM     11  C   UNL     1      34.363  -7.699 -22.471  0.00  0.00    +0.005 C 
ATOM     12  C   UNL     1      32.334  -6.582 -23.159  0.00  0.00    +0.005 C 
ATOM     13  C   UNL     1      35.092  -6.938 -23.383  0.00  0.00    +0.000 C 
ATOM     14  C   UNL     1      33.064  -5.821 -24.073  0.00  0.00    +0.000 C 
ATOM     15  C   UNL     1      34.443  -5.998 -24.184  0.00  0.00    +0.000 C 
ENDBRANCH   9  10
ENDBRANCH   1   4
BRANCH   1  16
ATOM     16  C   UNL     1      34.298 -13.939 -22.440  0.00  0.00    +0.002 C 
BRANCH  16  17
ATOM     17  C   UNL     1      33.959 -15.044 -23.440  0.00  0.00    +0.021 C 
BRANCH  17  18
ATOM     18  C   UNL     1      35.190 -15.871 -23.790  0.00  0.00    +0.090 C 
BRANCH  18  20
ATOM     19  O   UNL     1      33.966 -18.406 -24.480  0.00  0.00    -0.270 OA
ATOM     20  N   UNL     1      35.236 -17.095 -23.038  0.00  0.00    -0.301 N 
ATOM     21  C   UNL     1      34.616 -18.268 -23.449  0.00  0.00    +0.246 C 
ATOM     22  H   UNL     1      35.733 -17.102 -22.188  0.00  0.00    +0.150 HD
BRANCH  21  23
ATOM     23  C   UNL     1      34.826 -19.382 -22.480  0.00  0.00    +0.058 C 
ATOM     24  C   UNL     1      34.194 -19.370 -21.298  0.00  0.00    +0.006 C 
BRANCH  24  26
ATOM     25  N   UNL     1      35.749 -21.843 -18.938  0.00  0.00    -0.242 NA
ATOM     26  C   UNL     1      34.320 -20.419 -20.271  0.00  0.00    +0.019 C 
ATOM     27  C   UNL     1      33.195 -20.974 -19.671  0.00  0.00    +0.003 C 
ATOM     28  C   UNL     1      35.563 -20.883 -19.873  0.00  0.00    +0.099 C 
ATOM     29  C   UNL     1      33.345 -21.963 -18.705  0.00  0.00    +0.021 C 
ATOM     30  C   UNL     1      34.631 -22.359 -18.377  0.00  0.00    +0.099 C 
ENDBRANCH  24  26
ENDBRANCH  21  23
ENDBRANCH  18  20
ENDBRANCH  17  18
ENDBRANCH  16  17
ENDBRANCH   1  16
TORSDOF 8
ENDMDL
MODEL 3
REMARK VINA RESULT:     -11.0      4.666      8.226
REMARK  Name = 6914657
REMARK  8 active torsions:
REMARK  status: ('A' for Active; 'I' for Inactive)
REMARK    1  A    between atoms: C_1  and  C_4
REMARK    2  A    between atoms: C_1  and  C_16
REMARK    3  A    between atoms: C_9  and  C_10
REMARK    4  A    between atoms: C_16  and  C_17
REMARK    5  A    between atoms: C_17  and  C_18
REMARK    6  A    between atoms: C_18  and  N_20
REMARK    7  A    between atoms: C_21  and  C_23
REMARK    8  A    between atoms: C_24  and  C_26
REMARK                            x       y       z     vdW  Elec       q    Type
REMARK                         _______ _______ _______ _____ _____    ______ ____
ROOT
ATOM      1  C   UNL     1      35.194 -19.374 -20.790  0.00  0.00    +0.000 C 
ENDROOT
BRANCH   1   4
ATOM      2  O   UNL     1      32.368 -16.804 -25.706  0.00  0.00    -0.270 OA
ATOM      3  N   UNL     1      34.241 -17.181 -24.358  0.00  0.00    -0.276 N 
ATOM      4  C   UNL     1      35.295 -18.802 -22.202  0.00  0.00    +0.003 C 
ATOM      5  C   UNL     1      35.358 -17.267 -22.168  0.00  0.00    +0.022 C 
ATOM      6  C   UNL     1      34.113 -19.270 -23.067  0.00  0.00    +0.022 C 
ATOM      7  C   UNL     1      35.382 -16.685 -23.579  0.00  0.00    +0.094 C 
ATOM      8  C   UNL     1      34.157 -18.638 -24.457  0.00  0.00    +0.094 C 
ATOM      9  C   UNL     1      33.300 -16.389 -25.019  0.00  0.00    +0.249 C 
BRANCH   9  10
ATOM     10  C   UNL     1      33.407 -14.931 -24.887  0.00  0.00    +0.054 C 
ATOM     11  C   UNL     1      33.413 -14.125 -26.027  0.00  0.00    +0.005 C 
ATOM     12  C   UNL     1      33.502 -14.349 -23.623  0.00  0.00    +0.005 C 
ATOM     13  C   UNL     1      33.515 -12.740 -25.901  0.00  0.00    +0.000 C 
ATOM     14  C   UNL     1      33.603 -12.964 -23.498  0.00  0.00    +0.000 C 
ATOM     15  C   UNL     1      33.610 -12.159 -24.637  0.00  0.00    +0.000 C 
ENDBRANCH   9  10
ENDBRANCH   1   4
BRANCH   1  16
ATOM     16  C   UNL     1      33.879 -20.123 -20.590  0.00  0.00    +0.002 C 
BRANCH  16  17
ATOM     17  C   UNL     1      34.024 -21.216 -19.532  0.00  0.00    +0.021 C 
BRANCH  17  18
ATOM     18  C   UNL     1      35.488 -21.466 -19.189  0.00  0.00    +0.090 C 
BRANCH  18  20
ATOM     19  O   UNL     1      37.215 -20.825 -16.953  0.00  0.00    -0.270 OA
ATOM     20  N   UNL     1      35.626 -22.194 -17.957  0.00  0.00    -0.301 N 
ATOM     21  C   UNL     1      36.484 -21.810 -16.935  0.00  0.00    +0.246 C 
ATOM     22  H   UNL     1      35.083 -23.006 -17.832  0.00  0.00    +0.150 HD
BRANCH  21  23
ATOM     23  C   UNL     1      36.426 -22.743 -15.774  0.00  0.00    +0.058 C 
ATOM     24  C   UNL     1      37.552 -23.295 -15.302  0.00  0.00    +0.006 C 
BRANCH  24  26
ATOM     25  N   UNL     1      37.961 -26.469 -13.337  0.00  0.00    -0.242 NA
ATOM     26  C   UNL     1      37.615 -24.221 -14.157  0.00  0.00    +0.019 C 
ATOM     27  C   UNL     1      37.401 -23.772 -12.859  0.00  0.00    +0.003 C 
ATOM     28  C   UNL     1      37.890 -25.567 -14.342  0.00  0.00    +0.099 C 
ATOM     29  C   UNL     1      37.466 -24.670 -11.799  0.00  0.00    +0.021 C 
ATOM     30  C   UNL     1      37.747 -25.996 -12.089  0.00  0.00    +0.099 C 
ENDBRANCH  24  26
ENDBRANCH  21  23
ENDBRANCH  18  20
ENDBRANCH  17  18
ENDBRANCH  16  17
ENDBRANCH   1  16
TORSDOF 8
ENDMDL
MODEL 4
REMARK VINA RESULT:     -11.0      4.579      7.815
REMARK  Name = 6914657
REMARK  8 active torsions:
REMARK  status: ('A' for Active; 'I' for Inactive)
REMARK    1  A    between atoms: C_1  and  C_4
REMARK    2  A    between atoms: C_1  and  C_16
REMARK    3  A    between atoms: C_9  and  C_10
REMARK    4  A    between atoms: C_16  and  C_17
REMARK    5  A    between atoms: C_17  and  C_18
REMARK    6  A    between atoms: C_18  and  N_20
REMARK    7  A    between atoms: C_21  and  C_23
REMARK    8  A    between atoms: C_24  and  C_26
REMARK                            x       y       z     vdW  Elec       q    Type
REMARK                         _______ _______ _______ _____ _____    ______ ____
ROOT
ATOM      1  C   UNL     1      35.089 -19.345 -20.934  0.00  0.00    +0.000 C 
ENDROOT
BRANCH   1   4
ATOM      2  O   UNL     1      32.396 -16.590 -25.825  0.00  0.00    -0.270 OA
ATOM      3  N   UNL     1      34.234 -17.027 -24.447  0.00  0.00    -0.276 N 
ATOM      4  C   UNL     1      35.227 -18.727 -22.323  0.00  0.00    +0.003 C 
ATOM      5  C   UNL     1      35.299 -17.194 -22.236  0.00  0.00    +0.022 C 
ATOM      6  C   UNL     1      34.062 -19.156 -23.231  0.00  0.00    +0.022 C 
ATOM      7  C   UNL     1      35.360 -16.566 -23.626  0.00  0.00    +0.094 C 
ATOM      8  C   UNL     1      34.143 -18.479 -24.597  0.00  0.00    +0.094 C 
ATOM      9  C   UNL     1      33.314 -16.205 -25.103  0.00  0.00    +0.249 C 
BRANCH   9  10
ATOM     10  C   UNL     1      33.428 -14.753 -24.919  0.00  0.00    +0.054 C 
ATOM     11  C   UNL     1      33.511 -14.217 -23.633  0.00  0.00    +0.005 C 
ATOM     12  C   UNL     1      33.452 -13.909 -26.029  0.00  0.00    +0.005 C 
ATOM     13  C   UNL     1      33.619 -12.838 -23.458  0.00  0.00    +0.000 C 
ATOM     14  C   UNL     1      33.561 -12.529 -25.854  0.00  0.00    +0.000 C 
ATOM     15  C   UNL     1      33.644 -11.994 -24.568  0.00  0.00    +0.000 C 
ENDBRANCH   9  10
ENDBRANCH   1   4
BRANCH   1  16
ATOM     16  C   UNL     1      36.456 -19.630 -20.317  0.00  0.00    +0.002 C 
BRANCH  16  17
ATOM     17  C   UNL     1      36.415 -20.884 -19.444  0.00  0.00    +0.021 C 
BRANCH  17  18
ATOM     18  C   UNL     1      35.252 -21.791 -19.830  0.00  0.00    +0.090 C 
BRANCH  18  20
ATOM     19  O   UNL     1      32.546 -21.575 -18.816  0.00  0.00    -0.270 OA
ATOM     20  N   UNL     1      34.696 -22.454 -18.682  0.00  0.00    -0.301 N 
ATOM     21  C   UNL     1      33.380 -22.289 -18.269  0.00  0.00    +0.246 C 
ATOM     22  H   UNL     1      35.277 -23.055 -18.163  0.00  0.00    +0.150 HD
BRANCH  21  23
ATOM     23  C   UNL     1      33.069 -23.094 -17.053  0.00  0.00    +0.058 C 
ATOM     24  C   UNL     1      31.893 -22.938 -16.429  0.00  0.00    +0.006 C 
BRANCH  24  26
ATOM     25  N   UNL     1      32.016 -24.508 -13.020  0.00  0.00    -0.242 NA
ATOM     26  C   UNL     1      31.477 -23.684 -15.228  0.00  0.00    +0.019 C 
ATOM     27  C   UNL     1      30.214 -24.257 -15.141  0.00  0.00    +0.003 C 
ATOM     28  C   UNL     1      32.334 -23.836 -14.149  0.00  0.00    +0.099 C 
ATOM     29  C   UNL     1      29.850 -24.956 -13.996  0.00  0.00    +0.021 C 
ATOM     30  C   UNL     1      30.779 -25.052 -12.973  0.00  0.00    +0.099 C 
ENDBRANCH  24  26
ENDBRANCH  21  23
ENDBRANCH  18  20
ENDBRANCH  17  18
ENDBRANCH  16  17
ENDBRANCH   1  16
TORSDOF 8
ENDMDL
MODEL 5
REMARK VINA RESULT:     -10.9      8.031     11.546
REMARK  Name = 6914657
REMARK  8 active torsions:
REMARK  status: ('A' for Active; 'I' for Inactive)
REMARK    1  A    between atoms: C_1  and  C_4
REMARK    2  A    between atoms: C_1  and  C_16
REMARK    3  A    between atoms: C_9  and  C_10
REMARK    4  A    between atoms: C_16  and  C_17
REMARK    5  A    between atoms: C_17  and  C_18
REMARK    6  A    between atoms: C_18  and  N_20
REMARK    7  A    between atoms: C_21  and  C_23
REMARK    8  A    between atoms: C_24  and  C_26
REMARK                            x       y       z     vdW  Elec       q    Type
REMARK                         _______ _______ _______ _____ _____    ______ ____
ROOT
ATOM      1  C   UNL     1      36.361 -22.333 -15.629  0.00  0.00    +0.000 C 
ENDROOT
BRANCH   1   4
ATOM      2  O   UNL     1      32.464 -20.652 -20.185  0.00  0.00    -0.270 OA
ATOM      3  N   UNL     1      34.454 -21.603 -19.408  0.00  0.00    -0.276 N 
ATOM      4  C   UNL     1      35.841 -22.550 -17.049  0.00  0.00    +0.003 C 
ATOM      5  C   UNL     1      36.489 -21.555 -18.026  0.00  0.00    +0.022 C 
ATOM      6  C   UNL     1      34.310 -22.423 -17.095  0.00  0.00    +0.022 C 
ATOM      7  C   UNL     1      35.917 -21.715 -19.433  0.00  0.00    +0.094 C 
ATOM      8  C   UNL     1      33.784 -22.555 -18.523  0.00  0.00    +0.094 C 
ATOM      9  C   UNL     1      33.692 -20.718 -20.174  0.00  0.00    +0.249 C 
BRANCH   9  10
ATOM     10  C   UNL     1      34.398 -19.767 -21.041  0.00  0.00    +0.054 C 
ATOM     11  C   UNL     1      33.973 -19.573 -22.356  0.00  0.00    +0.005 C 
ATOM     12  C   UNL     1      35.494 -19.057 -20.552  0.00  0.00    +0.005 C 
ATOM     13  C   UNL     1      34.644 -18.671 -23.180  0.00  0.00    +0.000 C 
ATOM     14  C   UNL     1      36.165 -18.153 -21.376  0.00  0.00    +0.000 C 
ATOM     15  C   UNL     1      35.740 -17.961 -22.691  0.00  0.00    +0.000 C 
ENDBRANCH   9  10
ENDBRANCH   1   4
BRANCH   1  16
ATOM     16  C   UNL     1      37.215 -23.511 -15.167  0.00  0.00    +0.002 C 
BRANCH  16  17
ATOM     17  C   UNL     1      37.024 -23.776 -13.674  0.00  0.00    +0.021 C 
BRANCH  17  18
ATOM     18  C   UNL     1      36.337 -25.114 -13.432  0.00  0.00    +0.090 C 
BRANCH  18  20
ATOM     19  O   UNL     1      34.208 -23.978 -11.828  0.00  0.00    -0.270 OA
ATOM     20  N   UNL     1      34.937 -25.056 -13.756  0.00  0.00    -0.301 N 
ATOM     21  C   UNL     1      33.983 -24.489 -12.921  0.00  0.00    +0.246 C 
ATOM     22  H   UNL     1      34.641 -25.438 -14.613  0.00  0.00    +0.150 HD
BRANCH  21  23
ATOM     23  C   UNL     1      32.613 -24.563 -13.503  0.00  0.00    +0.058 C 
ATOM     24  C   UNL     1      32.229 -23.673 -14.429  0.00  0.00    +0.006 C 
BRANCH  24  26
ATOM     25  N   UNL     1      29.397 -22.630 -16.663  0.00  0.00    -0.242 NA
ATOM     26  C   UNL     1      30.907 -23.657 -15.077  0.00  0.00    +0.019 C 
ATOM     27  C   UNL     1      29.936 -24.598 -14.752  0.00  0.00    +0.003 C 
ATOM     28  C   UNL     1      30.590 -22.702 -16.031  0.00  0.00    +0.099 C 
ATOM     29  C   UNL     1      28.697 -24.557 -15.380  0.00  0.00    +0.021 C 
ATOM     30  C   UNL     1      28.479 -23.562 -16.320  0.00  0.00    +0.099 C 
ENDBRANCH  24  26
ENDBRANCH  21  23
ENDBRANCH  18  20
ENDBRANCH  17  18
ENDBRANCH  16  17
ENDBRANCH   1  16
TORSDOF 8
ENDMDL
MODEL 6
REMARK VINA RESULT:     -10.6      4.618      8.242
REMARK  Name = 6914657
REMARK  8 active torsions:
REMARK  status: ('A' for Active; 'I' for Inactive)
REMARK    1  A    between atoms: C_1  and  C_4
REMARK    2  A    between atoms: C_1  and  C_16
REMARK    3  A    between atoms: C_9  and  C_10
REMARK    4  A    between atoms: C_16  and  C_17
REMARK    5  A    between atoms: C_17  and  C_18
REMARK    6  A    between atoms: C_18  and  N_20
REMARK    7  A    between atoms: C_21  and  C_23
REMARK    8  A    between atoms: C_24  and  C_26
REMARK                            x       y       z     vdW  Elec       q    Type
REMARK                         _______ _______ _______ _____ _____    ______ ____
ROOT
ATOM      1  C   UNL     1      34.992 -19.538 -20.757  0.00  0.00    +0.000 C 
ENDROOT
BRANCH   1   4
ATOM      2  O   UNL     1      32.448 -16.767 -25.718  0.00  0.00    -0.270 OA
ATOM      3  N   UNL     1      34.245 -17.212 -24.290  0.00  0.00    -0.276 N 
ATOM      4  C   UNL     1      35.171 -18.919 -22.141  0.00  0.00    +0.003 C 
ATOM      5  C   UNL     1      35.246 -17.386 -22.049  0.00  0.00    +0.022 C 
ATOM      6  C   UNL     1      34.031 -19.342 -23.081  0.00  0.00    +0.022 C 
ATOM      7  C   UNL     1      35.348 -16.756 -23.436  0.00  0.00    +0.094 C 
ATOM      8  C   UNL     1      34.153 -18.663 -24.444  0.00  0.00    +0.094 C 
ATOM      9  C   UNL     1      33.346 -16.386 -24.970  0.00  0.00    +0.249 C 
BRANCH   9  10
ATOM     10  C   UNL     1      33.460 -14.935 -24.781  0.00  0.00    +0.054 C 
ATOM     11  C   UNL     1      33.574 -14.406 -23.495  0.00  0.00    +0.005 C 
ATOM     12  C   UNL     1      33.454 -14.085 -25.886  0.00  0.00    +0.005 C 
ATOM     13  C   UNL     1      33.681 -13.027 -23.315  0.00  0.00    +0.000 C 
ATOM     14  C   UNL     1      33.562 -12.705 -25.706  0.00  0.00    +0.000 C 
ATOM     15  C   UNL     1      33.675 -12.177 -24.420  0.00  0.00    +0.000 C 
ENDBRANCH   9  10
ENDBRANCH   1   4
BRANCH   1  16
ATOM     16  C   UNL     1      33.637 -20.231 -20.633  0.00  0.00    +0.002 C 
BRANCH  16  17
ATOM     17  C   UNL     1      33.617 -21.191 -19.444  0.00  0.00    +0.021 C 
BRANCH  17  18
ATOM     18  C   UNL     1      34.984 -21.828 -19.222  0.00  0.00    +0.090 C 
BRANCH  18  20
ATOM     19  O   UNL     1      33.814 -23.695 -17.341  0.00  0.00    -0.270 OA
ATOM     20  N   UNL     1      35.285 -21.960 -17.823  0.00  0.00    -0.301 N 
ATOM     21  C   UNL     1      34.671 -22.889 -16.993  0.00  0.00    +0.246 C 
ATOM     22  H   UNL     1      35.962 -21.361 -17.433  0.00  0.00    +0.150 HD
BRANCH  21  23
ATOM     23  C   UNL     1      35.173 -22.808 -15.592  0.00  0.00    +0.058 C 
ATOM     24  C   UNL     1      34.938 -23.813 -14.737  0.00  0.00    +0.006 C 
BRANCH  24  26
ATOM     25  N   UNL     1      34.974 -24.490 -11.043  0.00  0.00    -0.242 NA
ATOM     26  C   UNL     1      35.392 -23.844 -13.336  0.00  0.00    +0.019 C 
ATOM     27  C   UNL     1      36.612 -23.290 -12.965  0.00  0.00    +0.003 C 
ATOM     28  C   UNL     1      34.617 -24.428 -12.346  0.00  0.00    +0.099 C 
ATOM     29  C   UNL     1      37.014 -23.334 -11.635  0.00  0.00    +0.021 C 
ATOM     30  C   UNL     1      36.166 -23.939 -10.721  0.00  0.00    +0.099 C 
ENDBRANCH  24  26
ENDBRANCH  21  23
ENDBRANCH  18  20
ENDBRANCH  17  18
ENDBRANCH  16  17
ENDBRANCH   1  16
TORSDOF 8
ENDMDL
MODEL 7
REMARK VINA RESULT:     -10.3      2.542     11.396
REMARK  Name = 6914657
REMARK  8 active torsions:
REMARK  status: ('A' for Active; 'I' for Inactive)
REMARK    1  A    between atoms: C_1  and  C_4
REMARK    2  A    between atoms: C_1  and  C_16
REMARK    3  A    between atoms: C_9  and  C_10
REMARK    4  A    between atoms: C_16  and  C_17
REMARK    5  A    between atoms: C_17  and  C_18
REMARK    6  A    between atoms: C_18  and  N_20
REMARK    7  A    between atoms: C_21  and  C_23
REMARK    8  A    between atoms: C_24  and  C_26
REMARK                            x       y       z     vdW  Elec       q    Type
REMARK                         _______ _______ _______ _____ _____    ______ ____
ROOT
ATOM      1  C   UNL     1      33.195 -16.553 -25.129  0.00  0.00    +0.000 C 
ENDROOT
BRANCH   1   4
ATOM      2  O   UNL     1      36.497 -18.396 -20.183  0.00  0.00    -0.270 OA
ATOM      3  N   UNL     1      35.513 -18.768 -22.271  0.00  0.00    -0.276 N 
ATOM      4  C   UNL     1      34.256 -17.479 -24.540  0.00  0.00    +0.003 C 
ATOM      5  C   UNL     1      33.605 -18.672 -23.821  0.00  0.00    +0.022 C 
ATOM      6  C   UNL     1      35.176 -16.712 -23.576  0.00  0.00    +0.022 C 
ATOM      7  C   UNL     1      34.658 -19.560 -23.163  0.00  0.00    +0.094 C 
ATOM      8  C   UNL     1      36.190 -17.644 -22.916  0.00  0.00    +0.094 C 
ATOM      9  C   UNL     1      35.748 -19.034 -20.920  0.00  0.00    +0.249 C 
BRANCH   9  10
ATOM     10  C   UNL     1      35.041 -20.163 -20.303  0.00  0.00    +0.054 C 
ATOM     11  C   UNL     1      35.763 -21.213 -19.735  0.00  0.00    +0.005 C 
ATOM     12  C   UNL     1      33.646 -20.187 -20.284  0.00  0.00    +0.005 C 
ATOM     13  C   UNL     1      35.092 -22.285 -19.149  0.00  0.00    +0.000 C 
ATOM     14  C   UNL     1      32.975 -21.260 -19.698  0.00  0.00    +0.000 C 
ATOM     15  C   UNL     1      33.698 -22.309 -19.131  0.00  0.00    +0.000 C 
ENDBRANCH   9  10
ENDBRANCH   1   4
BRANCH   1  16
ATOM     16  C   UNL     1      33.775 -15.178 -25.445  0.00  0.00    +0.002 C 
BRANCH  16  17
ATOM     17  C   UNL     1      32.946 -14.069 -24.798  0.00  0.00    +0.021 C 
BRANCH  17  18
ATOM     18  C   UNL     1      33.197 -13.992 -23.297  0.00  0.00    +0.090 C 
BRANCH  18  20
ATOM     19  O   UNL     1      31.909 -13.578 -20.735  0.00  0.00    -0.270 OA
ATOM     20  N   UNL     1      32.732 -12.748 -22.745  0.00  0.00    -0.301 N 
ATOM     21  C   UNL     1      32.123 -12.645 -21.502  0.00  0.00    +0.246 C 
ATOM     22  H   UNL     1      32.853 -11.929 -23.277  0.00  0.00    +0.150 HD
BRANCH  21  23
ATOM     23  C   UNL     1      31.743 -11.239 -21.179  0.00  0.00    +0.058 C 
ATOM     24  C   UNL     1      32.148 -10.237 -21.972  0.00  0.00    +0.006 C 
BRANCH  24  26
ATOM     25  N   UNL     1      30.806  -6.783 -22.575  0.00  0.00    -0.242 NA
ATOM     26  C   UNL     1      31.826  -8.816 -21.755  0.00  0.00    +0.019 C 
ATOM     27  C   UNL     1      32.205  -8.164 -20.588  0.00  0.00    +0.003 C 
ATOM     28  C   UNL     1      31.133  -8.088 -22.710  0.00  0.00    +0.099 C 
ATOM     29  C   UNL     1      31.887  -6.822 -20.413  0.00  0.00    +0.021 C 
ATOM     30  C   UNL     1      31.193  -6.182 -21.427  0.00  0.00    +0.099 C 
ENDBRANCH  24  26
ENDBRANCH  21  23
ENDBRANCH  18  20
ENDBRANCH  17  18
ENDBRANCH  16  17
ENDBRANCH   1  16
TORSDOF 8
ENDMDL
MODEL 8
REMARK VINA RESULT:     -10.1      2.059      2.956
REMARK  Name = 6914657
REMARK  8 active torsions:
REMARK  status: ('A' for Active; 'I' for Inactive)
REMARK    1  A    between atoms: C_1  and  C_4
REMARK    2  A    between atoms: C_1  and  C_16
REMARK    3  A    between atoms: C_9  and  C_10
REMARK    4  A    between atoms: C_16  and  C_17
REMARK    5  A    between atoms: C_17  and  C_18
REMARK    6  A    between atoms: C_18  and  N_20
REMARK    7  A    between atoms: C_21  and  C_23
REMARK    8  A    between atoms: C_24  and  C_26
REMARK                            x       y       z     vdW  Elec       q    Type
REMARK                         _______ _______ _______ _____ _____    ______ ____
ROOT
ATOM      1  C   UNL     1      33.546 -12.257 -24.497  0.00  0.00    +0.000 C 
ENDROOT
BRANCH   1   4
ATOM      2  O   UNL     1      34.699  -6.144 -24.232  0.00  0.00    -0.270 OA
ATOM      3  N   UNL     1      34.188  -8.200 -23.242  0.00  0.00    -0.276 N 
ATOM      4  C   UNL     1      34.046 -11.057 -23.696  0.00  0.00    +0.003 C 
ATOM      5  C   UNL     1      32.869 -10.272 -23.095  0.00  0.00    +0.022 C 
ATOM      6  C   UNL     1      34.910 -10.136 -24.575  0.00  0.00    +0.022 C 
ATOM      7  C   UNL     1      33.357  -9.027 -22.358  0.00  0.00    +0.094 C 
ATOM      8  C   UNL     1      35.347  -8.889 -23.809  0.00  0.00    +0.094 C 
ATOM      9  C   UNL     1      33.980  -6.848 -23.525  0.00  0.00    +0.249 C 
BRANCH   9  10
ATOM     10  C   UNL     1      32.799  -6.193 -22.949  0.00  0.00    +0.054 C 
ATOM     11  C   UNL     1      32.488  -6.377 -21.601  0.00  0.00    +0.005 C 
ATOM     12  C   UNL     1      31.988  -5.388 -23.748  0.00  0.00    +0.005 C 
ATOM     13  C   UNL     1      31.367  -5.755 -21.054  0.00  0.00    +0.000 C 
ATOM     14  C   UNL     1      30.867  -4.765 -23.200  0.00  0.00    +0.000 C 
ATOM     15  C   UNL     1      30.556  -4.949 -21.852  0.00  0.00    +0.000 C 
ENDBRANCH   9  10
ENDBRANCH   1   4
BRANCH   1  16
ATOM     16  C   UNL     1      33.113 -13.394 -23.575  0.00  0.00    +0.002 C 
BRANCH  16  17
ATOM     17  C   UNL     1      33.455 -14.755 -24.182  0.00  0.00    +0.021 C 
BRANCH  17  18
ATOM     18  C   UNL     1      34.803 -15.261 -23.682  0.00  0.00    +0.090 C 
BRANCH  18  20
ATOM     19  O   UNL     1      34.229 -17.772 -25.011  0.00  0.00    -0.270 OA
ATOM     20  N   UNL     1      34.689 -16.561 -23.079  0.00  0.00    -0.301 N 
ATOM     21  C   UNL     1      34.410 -17.716 -23.798  0.00  0.00    +0.246 C 
ATOM     22  H   UNL     1      34.816 -16.636 -22.105  0.00  0.00    +0.150 HD
BRANCH  21  23
ATOM     23  C   UNL     1      34.350 -18.921 -22.923  0.00  0.00    +0.058 C 
ATOM     24  C   UNL     1      34.670 -18.823 -21.625  0.00  0.00    +0.006 C 
BRANCH  24  26
ATOM     25  N   UNL     1      35.852 -21.523 -19.298  0.00  0.00    -0.242 NA
ATOM     26  C   UNL     1      34.638 -19.943 -20.669  0.00  0.00    +0.019 C 
ATOM     27  C   UNL     1      33.432 -20.479 -20.230  0.00  0.00    +0.003 C 
ATOM     28  C   UNL     1      35.810 -20.495 -20.176  0.00  0.00    +0.099 C 
ATOM     29  C   UNL     1      33.434 -21.535 -19.328  0.00  0.00    +0.021 C 
ATOM     30  C   UNL     1      34.659 -22.017 -18.896  0.00  0.00    +0.099 C 
ENDBRANCH  24  26
ENDBRANCH  21  23
ENDBRANCH  18  20
ENDBRANCH  17  18
ENDBRANCH  16  17
ENDBRANCH   1  16
TORSDOF 8
ENDMDL
MODEL 9
REMARK VINA RESULT:     -10.1      1.868      2.995
REMARK  Name = 6914657
REMARK  8 active torsions:
REMARK  status: ('A' for Active; 'I' for Inactive)
REMARK    1  A    between atoms: C_1  and  C_4
REMARK    2  A    between atoms: C_1  and  C_16
REMARK    3  A    between atoms: C_9  and  C_10
REMARK    4  A    between atoms: C_16  and  C_17
REMARK    5  A    between atoms: C_17  and  C_18
REMARK    6  A    between atoms: C_18  and  N_20
REMARK    7  A    between atoms: C_21  and  C_23
REMARK    8  A    between atoms: C_24  and  C_26
REMARK                            x       y       z     vdW  Elec       q    Type
REMARK                         _______ _______ _______ _____ _____    ______ ____
ROOT
ATOM      1  C   UNL     1      34.395 -14.443 -23.041  0.00  0.00    +0.000 C 
ENDROOT
BRANCH   1   4
ATOM      2  O   UNL     1      31.741 -10.784 -18.759  0.00  0.00    -0.270 OA
ATOM      3  N   UNL     1      31.893 -11.673 -20.917  0.00  0.00    -0.276 N 
ATOM      4  C   UNL     1      33.149 -13.724 -22.530  0.00  0.00    +0.003 C 
ATOM      5  C   UNL     1      33.162 -12.244 -22.946  0.00  0.00    +0.022 C 
ATOM      6  C   UNL     1      33.034 -13.849 -21.002  0.00  0.00    +0.022 C 
ATOM      7  C   UNL     1      31.957 -11.501 -22.373  0.00  0.00    +0.094 C 
ATOM      8  C   UNL     1      31.837 -13.064 -20.469  0.00  0.00    +0.094 C 
ATOM      9  C   UNL     1      31.837 -10.641 -19.976  0.00  0.00    +0.249 C 
BRANCH   9  10
ATOM     10  C   UNL     1      31.909  -9.257 -20.461  0.00  0.00    +0.054 C 
ATOM     11  C   UNL     1      31.362  -8.923 -21.700  0.00  0.00    +0.005 C 
ATOM     12  C   UNL     1      32.525  -8.276 -19.684  0.00  0.00    +0.005 C 
ATOM     13  C   UNL     1      31.430  -7.608 -22.161  0.00  0.00    +0.000 C 
ATOM     14  C   UNL     1      32.593  -6.961 -20.145  0.00  0.00    +0.000 C 
ATOM     15  C   UNL     1      32.046  -6.628 -21.384  0.00  0.00    +0.000 C 
ENDBRANCH   9  10
ENDBRANCH   1   4
BRANCH   1  16
ATOM     16  C   UNL     1      34.044 -15.445 -24.137  0.00  0.00    +0.002 C 
BRANCH  16  17
ATOM     17  C   UNL     1      34.679 -16.808 -23.861  0.00  0.00    +0.021 C 
BRANCH  17  18
ATOM     18  C   UNL     1      35.528 -16.778 -22.596  0.00  0.00    +0.090 C 
BRANCH  18  20
ATOM     19  O   UNL     1      35.233 -19.643 -22.914  0.00  0.00    -0.270 OA
ATOM     20  N   UNL     1      35.055 -17.720 -21.618  0.00  0.00    -0.301 N 
ATOM     21  C   UNL     1      34.946 -19.083 -21.861  0.00  0.00    +0.246 C 
ATOM     22  H   UNL     1      34.795 -17.380 -20.732  0.00  0.00    +0.150 HD
BRANCH  21  23
ATOM     23  C   UNL     1      34.429 -19.824 -20.675  0.00  0.00    +0.058 C 
ATOM     24  C   UNL     1      35.150 -20.821 -20.143  0.00  0.00    +0.006 C 
BRANCH  24  26
ATOM     25  N   UNL     1      35.361 -22.719 -16.909  0.00  0.00    -0.242 NA
ATOM     26  C   UNL     1      34.743 -21.614 -18.970  0.00  0.00    +0.019 C 
ATOM     27  C   UNL     1      33.420 -22.005 -18.791  0.00  0.00    +0.003 C 
ATOM     28  C   UNL     1      35.666 -21.993 -18.008  0.00  0.00    +0.099 C 
ATOM     29  C   UNL     1      33.067 -22.753 -17.674  0.00  0.00    +0.021 C 
ATOM     30  C   UNL     1      34.065 -23.081 -16.771  0.00  0.00    +0.099 C 
ENDBRANCH  24  26
ENDBRANCH  21  23
ENDBRANCH  18  20
ENDBRANCH  17  18
ENDBRANCH  16  17
ENDBRANCH   1  16
TORSDOF 8
ENDMDL
