MODEL 1
REMARK VINA RESULT:     -11.7      0.000      0.000
REMARK  Name = 10401956
REMARK  3 active torsions:
REMARK  status: ('A' for Active; 'I' for Inactive)
REMARK    1  A    between atoms: N_1  and  C_13
REMARK    2  A    between atoms: C_8  and  N_20
REMARK    3  A    between atoms: C_21  and  C_23
REMARK                            x       y       z     vdW  Elec       q    Type
REMARK                         _______ _______ _______ _____ _____    ______ ____
ROOT
ATOM      1  N   UNL     1      32.735 -22.356 -18.040  0.00  0.00    -0.301 N 
ATOM      2  N   UNL     1      33.555 -24.316 -14.489  0.00  0.00    -0.248 NA
ATOM      3  N   UNL     1      34.258 -23.461 -16.629  0.00  0.00    -0.233 NA
ATOM      4  C   UNL     1      31.969 -23.196 -15.898  0.00  0.00    +0.117 C 
ATOM      5  C   UNL     1      32.307 -23.869 -14.712  0.00  0.00    +0.067 C 
ATOM      6  C   UNL     1      32.998 -23.025 -16.820  0.00  0.00    +0.115 C 
ATOM      7  C   UNL     1      30.662 -22.732 -16.119  0.00  0.00    +0.001 C 
ATOM      8  C   UNL     1      29.678 -22.936 -15.156  0.00  0.00    +0.047 C 
ATOM      9  C   UNL     1      31.303 -24.059 -13.765  0.00  0.00    +0.016 C 
ATOM     10  C   UNL     1      30.000 -23.600 -13.977  0.00  0.00    +0.016 C 
ATOM     11  C   UNL     1      34.463 -24.088 -15.460  0.00  0.00    +0.251 C 
ATOM     12  H   UNL     1      31.795 -22.353 -18.335  0.00  0.00    +0.153 HD
ENDROOT
BRANCH   1  13
ATOM     13  C   UNL     1      33.630 -21.705 -18.870  0.00  0.00    +0.049 C 
ATOM     14  C   UNL     1      35.014 -21.946 -18.775  0.00  0.00    +0.015 C 
ATOM     15  C   UNL     1      33.182 -20.781 -19.835  0.00  0.00    +0.015 C 
ATOM     16  C   UNL     1      35.916 -21.289 -19.611  0.00  0.00    +0.001 C 
ATOM     17  C   UNL     1      34.085 -20.124 -20.671  0.00  0.00    +0.001 C 
ATOM     18  C   UNL     1      35.452 -20.378 -20.559  0.00  0.00    +0.000 C 
ENDBRANCH   1  13
BRANCH   8  20
ATOM     19  O   UNL     1      27.781 -23.459 -17.424  0.00  0.00    -0.270 OA
ATOM     20  N   UNL     1      28.379 -22.477 -15.370  0.00  0.00    -0.281 N 
ATOM     21  C   UNL     1      27.532 -22.755 -16.454  0.00  0.00    +0.250 C 
ATOM     22  H   UNL     1      28.010 -21.885 -14.675  0.00  0.00    +0.155 HD
BRANCH  21  23
ATOM     23  C   UNL     1      26.215 -22.069 -16.312  0.00  0.00    +0.058 C 
ATOM     24  C   UNL     1      25.784 -21.223 -17.253  0.00  0.00    +0.005 C 
ENDBRANCH  21  23
ENDBRANCH   8  20
TORSDOF 3
ENDMDL
MODEL 2
REMARK VINA RESULT:     -10.5      1.225      1.515
REMARK  Name = 10401956
REMARK  3 active torsions:
REMARK  status: ('A' for Active; 'I' for Inactive)
REMARK    1  A    between atoms: N_1  and  C_13
REMARK    2  A    between atoms: C_8  and  N_20
REMARK    3  A    between atoms: C_21  and  C_23
REMARK                            x       y       z     vdW  Elec       q    Type
REMARK                         _______ _______ _______ _____ _____    ______ ____
ROOT
ATOM      1  N   UNL     1      33.696 -22.497 -17.920  0.00  0.00    -0.301 N 
ATOM      2  N   UNL     1      35.342 -23.755 -14.338  0.00  0.00    -0.248 NA
ATOM      3  N   UNL     1      35.586 -22.930 -16.588  0.00  0.00    -0.233 NA
ATOM      4  C   UNL     1      33.388 -23.326 -15.662  0.00  0.00    +0.117 C 
ATOM      5  C   UNL     1      34.003 -23.744 -14.471  0.00  0.00    +0.067 C 
ATOM      6  C   UNL     1      34.243 -22.930 -16.688  0.00  0.00    +0.115 C 
ATOM      7  C   UNL     1      31.989 -23.318 -15.790  0.00  0.00    +0.001 C 
ATOM      8  C   UNL     1      31.191 -23.726 -14.726  0.00  0.00    +0.047 C 
ATOM      9  C   UNL     1      33.180 -24.147 -13.422  0.00  0.00    +0.016 C 
ATOM     10  C   UNL     1      31.787 -24.141 -13.540  0.00  0.00    +0.016 C 
ATOM     11  C   UNL     1      36.060 -23.348 -15.404  0.00  0.00    +0.251 C 
ATOM     12  H   UNL     1      32.787 -22.816 -18.124  0.00  0.00    +0.153 HD
ENDROOT
BRANCH   1  13
ATOM     13  C   UNL     1      34.277 -21.681 -18.875  0.00  0.00    +0.049 C 
ATOM     14  C   UNL     1      35.677 -21.610 -19.013  0.00  0.00    +0.015 C 
ATOM     15  C   UNL     1      33.485 -20.896 -19.736  0.00  0.00    +0.015 C 
ATOM     16  C   UNL     1      36.262 -20.786 -19.974  0.00  0.00    +0.001 C 
ATOM     17  C   UNL     1      34.071 -20.072 -20.697  0.00  0.00    +0.001 C 
ATOM     18  C   UNL     1      35.460 -20.018 -20.816  0.00  0.00    +0.000 C 
ENDBRANCH   1  13
BRANCH   8  20
ATOM     19  O   UNL     1      29.417 -22.307 -16.690  0.00  0.00    -0.270 OA
ATOM     20  N   UNL     1      29.801 -23.720 -14.846  0.00  0.00    -0.281 N 
ATOM     21  C   UNL     1      29.019 -23.035 -15.788  0.00  0.00    +0.250 C 
ATOM     22  H   UNL     1      29.308 -24.262 -14.189  0.00  0.00    +0.155 HD
BRANCH  21  23
ATOM     23  C   UNL     1      27.563 -23.287 -15.581  0.00  0.00    +0.058 C 
ATOM     24  C   UNL     1      26.696 -22.270 -15.548  0.00  0.00    +0.005 C 
ENDBRANCH  21  23
ENDBRANCH   8  20
TORSDOF 3
ENDMDL
MODEL 3
REMARK VINA RESULT:     -10.3      2.947      3.950
REMARK  Name = 10401956
REMARK  3 active torsions:
REMARK  status: ('A' for Active; 'I' for Inactive)
REMARK    1  A    between atoms: N_1  and  C_13
REMARK    2  A    between atoms: C_8  and  N_20
REMARK    3  A    between atoms: C_21  and  C_23
REMARK                            x       y       z     vdW  Elec       q    Type
REMARK                         _______ _______ _______ _____ _____    ______ ____
ROOT
ATOM      1  N   UNL     1      34.587 -22.405 -17.957  0.00  0.00    -0.301 N 
ATOM      2  N   UNL     1      37.402 -22.523 -14.926  0.00  0.00    -0.248 NA
ATOM      3  N   UNL     1      36.743 -21.905 -17.159  0.00  0.00    -0.233 NA
ATOM      4  C   UNL     1      35.194 -23.051 -15.699  0.00  0.00    +0.117 C 
ATOM      5  C   UNL     1      36.190 -23.062 -14.709  0.00  0.00    +0.067 C 
ATOM      6  C   UNL     1      35.539 -22.454 -16.909  0.00  0.00    +0.115 C 
ATOM      7  C   UNL     1      33.930 -23.617 -15.461  0.00  0.00    +0.001 C 
ATOM      8  C   UNL     1      33.650 -24.200 -14.229  0.00  0.00    +0.047 C 
ATOM      9  C   UNL     1      35.882 -23.651 -13.485  0.00  0.00    +0.016 C 
ATOM     10  C   UNL     1      34.626 -24.216 -13.240  0.00  0.00    +0.016 C 
ATOM     11  C   UNL     1      37.613 -21.974 -16.139  0.00  0.00    +0.251 C 
ATOM     12  H   UNL     1      33.871 -23.081 -17.920  0.00  0.00    +0.153 HD
ENDROOT
BRANCH   1  13
ATOM     13  C   UNL     1      34.534 -21.527 -19.025  0.00  0.00    +0.049 C 
ATOM     14  C   UNL     1      33.300 -21.080 -19.536  0.00  0.00    +0.015 C 
ATOM     15  C   UNL     1      35.714 -21.056 -19.633  0.00  0.00    +0.015 C 
ATOM     16  C   UNL     1      33.248 -20.196 -20.613  0.00  0.00    +0.001 C 
ATOM     17  C   UNL     1      35.660 -20.172 -20.712  0.00  0.00    +0.001 C 
ATOM     18  C   UNL     1      34.427 -19.742 -21.201  0.00  0.00    +0.000 C 
ENDBRANCH   1  13
BRANCH   8  20
ATOM     19  O   UNL     1      31.385 -23.237 -12.508  0.00  0.00    -0.270 OA
ATOM     20  N   UNL     1      32.397 -24.763 -13.987  0.00  0.00    -0.281 N 
ATOM     21  C   UNL     1      31.371 -24.267 -13.169  0.00  0.00    +0.250 C 
ATOM     22  H   UNL     1      32.210 -25.613 -14.447  0.00  0.00    +0.155 HD
BRANCH  21  23
ATOM     23  C   UNL     1      30.181 -25.167 -13.174  0.00  0.00    +0.058 C 
ATOM     24  C   UNL     1      29.648 -25.583 -14.328  0.00  0.00    +0.005 C 
ENDBRANCH  21  23
ENDBRANCH   8  20
TORSDOF 3
ENDMDL
MODEL 4
REMARK VINA RESULT:     -10.3      3.336      7.568
REMARK  Name = 10401956
REMARK  3 active torsions:
REMARK  status: ('A' for Active; 'I' for Inactive)
REMARK    1  A    between atoms: N_1  and  C_13
REMARK    2  A    between atoms: C_8  and  N_20
REMARK    3  A    between atoms: C_21  and  C_23
REMARK                            x       y       z     vdW  Elec       q    Type
REMARK                         _______ _______ _______ _____ _____    ______ ____
ROOT
ATOM      1  N   UNL     1      32.476 -23.777 -15.868  0.00  0.00    -0.301 N 
ATOM      2  N   UNL     1      34.723 -21.767 -18.703  0.00  0.00    -0.248 NA
ATOM      3  N   UNL     1      32.630 -22.694 -17.950  0.00  0.00    -0.233 NA
ATOM      4  C   UNL     1      34.610 -22.864 -16.573  0.00  0.00    +0.117 C 
ATOM      5  C   UNL     1      35.321 -22.178 -17.571  0.00  0.00    +0.067 C 
ATOM      6  C   UNL     1      33.260 -23.091 -16.828  0.00  0.00    +0.115 C 
ATOM      7  C   UNL     1      35.245 -23.288 -15.393  0.00  0.00    +0.001 C 
ATOM      8  C   UNL     1      36.598 -23.030 -15.200  0.00  0.00    +0.047 C 
ATOM      9  C   UNL     1      36.675 -21.932 -17.351  0.00  0.00    +0.016 C 
ATOM     10  C   UNL     1      37.314 -22.351 -16.180  0.00  0.00    +0.016 C 
ATOM     11  C   UNL     1      33.410 -22.048 -18.831  0.00  0.00    +0.251 C 
ATOM     12  H   UNL     1      32.971 -24.358 -15.244  0.00  0.00    +0.153 HD
ENDROOT
BRANCH   1  13
ATOM     13  C   UNL     1      31.105 -23.735 -15.694  0.00  0.00    +0.049 C 
ATOM     14  C   UNL     1      30.345 -22.651 -16.176  0.00  0.00    +0.015 C 
ATOM     15  C   UNL     1      30.427 -24.776 -15.029  0.00  0.00    +0.015 C 
ATOM     16  C   UNL     1      28.963 -22.608 -16.000  0.00  0.00    +0.001 C 
ATOM     17  C   UNL     1      29.043 -24.732 -14.853  0.00  0.00    +0.001 C 
ATOM     18  C   UNL     1      28.312 -23.648 -15.339  0.00  0.00    +0.000 C 
ENDBRANCH   1  13
BRANCH   8  20
ATOM     19  O   UNL     1      37.877 -25.659 -14.516  0.00  0.00    -0.270 OA
ATOM     20  N   UNL     1      37.234 -23.448 -14.031  0.00  0.00    -0.281 N 
ATOM     21  C   UNL     1      37.817 -24.695 -13.763  0.00  0.00    +0.250 C 
ATOM     22  H   UNL     1      37.278 -22.786 -13.303  0.00  0.00    +0.155 HD
BRANCH  21  23
ATOM     23  C   UNL     1      38.396 -24.747 -12.389  0.00  0.00    +0.058 C 
ATOM     24  C   UNL     1      37.963 -23.914 -11.437  0.00  0.00    +0.005 C 
ENDBRANCH  21  23
ENDBRANCH   8  20
TORSDOF 3
ENDMDL
MODEL 5
REMARK VINA RESULT:     -10.0      6.943     10.276
REMARK  Name = 10401956
REMARK  3 active torsions:
REMARK  status: ('A' for Active; 'I' for Inactive)
REMARK    1  A    between atoms: N_1  and  C_13
REMARK    2  A    between atoms: C_8  and  N_20
REMARK    3  A    between atoms: C_21  and  C_23
REMARK                            x       y       z     vdW  Elec       q    Type
REMARK                         _______ _______ _______ _____ _____    ______ ____
ROOT
ATOM      1  N   UNL     1      35.115 -17.077 -21.618  0.00  0.00    -0.301 N 
ATOM      2  N   UNL     1      34.147 -16.201 -25.545  0.00  0.00    -0.248 NA
ATOM      3  N   UNL     1      35.104 -17.671 -23.894  0.00  0.00    -0.233 NA
ATOM      4  C   UNL     1      34.138 -15.556 -23.234  0.00  0.00    +0.117 C 
ATOM      5  C   UNL     1      33.834 -15.313 -24.584  0.00  0.00    +0.067 C 
ATOM      6  C   UNL     1      34.776 -16.761 -22.957  0.00  0.00    +0.115 C 
ATOM      7  C   UNL     1      33.806 -14.621 -22.239  0.00  0.00    +0.001 C 
ATOM      8  C   UNL     1      33.168 -13.434 -22.584  0.00  0.00    +0.047 C 
ATOM      9  C   UNL     1      33.195 -14.117 -24.901  0.00  0.00    +0.016 C 
ATOM     10  C   UNL     1      32.861 -13.182 -23.916  0.00  0.00    +0.016 C 
ATOM     11  C   UNL     1      34.764 -17.331 -25.147  0.00  0.00    +0.251 C 
ATOM     12  H   UNL     1      35.206 -16.311 -21.005  0.00  0.00    +0.153 HD
ENDROOT
BRANCH   1  13
ATOM     13  C   UNL     1      35.333 -18.324 -21.061  0.00  0.00    +0.049 C 
ATOM     14  C   UNL     1      34.269 -19.223 -20.857  0.00  0.00    +0.015 C 
ATOM     15  C   UNL     1      36.628 -18.731 -20.682  0.00  0.00    +0.015 C 
ATOM     16  C   UNL     1      34.489 -20.480 -20.295  0.00  0.00    +0.001 C 
ATOM     17  C   UNL     1      36.847 -19.989 -20.119  0.00  0.00    +0.001 C 
ATOM     18  C   UNL     1      35.777 -20.863 -19.926  0.00  0.00    +0.000 C 
ENDBRANCH   1  13
BRANCH   8  20
ATOM     19  O   UNL     1      31.682 -13.784 -19.998  0.00  0.00    -0.270 OA
ATOM     20  N   UNL     1      32.836 -12.503 -21.600  0.00  0.00    -0.281 N 
ATOM     21  C   UNL     1      32.136 -12.722 -20.404  0.00  0.00    +0.250 C 
ATOM     22  H   UNL     1      33.128 -11.577 -21.765  0.00  0.00    +0.155 HD
BRANCH  21  23
ATOM     23  C   UNL     1      31.983 -11.463 -19.618  0.00  0.00    +0.058 C 
ATOM     24  C   UNL     1      31.142 -10.506 -20.025  0.00  0.00    +0.005 C 
ENDBRANCH  21  23
ENDBRANCH   8  20
TORSDOF 3
ENDMDL
MODEL 6
REMARK VINA RESULT:      -9.7      2.756      6.945
REMARK  Name = 10401956
REMARK  3 active torsions:
REMARK  status: ('A' for Active; 'I' for Inactive)
REMARK    1  A    between atoms: N_1  and  C_13
REMARK    2  A    between atoms: C_8  and  N_20
REMARK    3  A    between atoms: C_21  and  C_23
REMARK                            x       y       z     vdW  Elec       q    Type
REMARK                         _______ _______ _______ _____ _____    ______ ____
ROOT
ATOM      1  N   UNL     1      32.805 -23.211 -14.944  0.00  0.00    -0.301 N 
ATOM      2  N   UNL     1      36.373 -24.345 -13.179  0.00  0.00    -0.248 NA
ATOM      3  N   UNL     1      33.964 -24.307 -13.215  0.00  0.00    -0.233 NA
ATOM      4  C   UNL     1      35.231 -23.215 -14.961  0.00  0.00    +0.117 C 
ATOM      5  C   UNL     1      36.409 -23.628 -14.316  0.00  0.00    +0.067 C 
ATOM      6  C   UNL     1      34.036 -23.591 -14.353  0.00  0.00    +0.115 C 
ATOM      7  C   UNL     1      35.280 -22.467 -16.149  0.00  0.00    +0.001 C 
ATOM      8  C   UNL     1      36.508 -22.124 -16.705  0.00  0.00    +0.047 C 
ATOM      9  C   UNL     1      37.624 -23.271 -14.895  0.00  0.00    +0.016 C 
ATOM     10  C   UNL     1      37.682 -22.526 -16.077  0.00  0.00    +0.016 C 
ATOM     11  C   UNL     1      35.153 -24.645 -12.691  0.00  0.00    +0.251 C 
ATOM     12  H   UNL     1      32.838 -22.427 -15.539  0.00  0.00    +0.153 HD
ENDROOT
BRANCH   1  13
ATOM     13  C   UNL     1      31.564 -23.803 -14.792  0.00  0.00    +0.049 C 
ATOM     14  C   UNL     1      30.473 -23.417 -15.595  0.00  0.00    +0.015 C 
ATOM     15  C   UNL     1      31.355 -24.809 -13.828  0.00  0.00    +0.015 C 
ATOM     16  C   UNL     1      29.222 -24.012 -15.440  0.00  0.00    +0.001 C 
ATOM     17  C   UNL     1      30.102 -25.404 -13.674  0.00  0.00    +0.001 C 
ATOM     18  C   UNL     1      29.036 -25.006 -14.481  0.00  0.00    +0.000 C 
ENDBRANCH   1  13
BRANCH   8  20
ATOM     19  O   UNL     1      35.128 -22.552 -19.337  0.00  0.00    -0.270 OA
ATOM     20  N   UNL     1      36.563 -21.381 -17.884  0.00  0.00    -0.281 N 
ATOM     21  C   UNL     1      35.894 -21.628 -19.092  0.00  0.00    +0.250 C 
ATOM     22  H   UNL     1      37.144 -20.586 -17.867  0.00  0.00    +0.155 HD
BRANCH  21  23
ATOM     23  C   UNL     1      36.219 -20.597 -20.121  0.00  0.00    +0.058 C 
ATOM     24  C   UNL     1      35.246 -19.898 -20.713  0.00  0.00    +0.005 C 
ENDBRANCH  21  23
ENDBRANCH   8  20
TORSDOF 3
ENDMDL
MODEL 7
REMARK VINA RESULT:      -9.6     11.095     14.150
REMARK  Name = 10401956
REMARK  3 active torsions:
REMARK  status: ('A' for Active; 'I' for Inactive)
REMARK    1  A    between atoms: N_1  and  C_13
REMARK    2  A    between atoms: C_8  and  N_20
REMARK    3  A    between atoms: C_21  and  C_23
REMARK                            x       y       z     vdW  Elec       q    Type
REMARK                         _______ _______ _______ _____ _____    ______ ____
ROOT
ATOM      1  N   UNL     1      33.018 -12.545 -23.439  0.00  0.00    -0.301 N 
ATOM      2  N   UNL     1      31.494 -11.254 -19.814  0.00  0.00    -0.248 NA
ATOM      3  N   UNL     1      32.096 -13.029 -21.329  0.00  0.00    -0.233 NA
ATOM      4  C   UNL     1      32.431 -10.718 -21.956  0.00  0.00    +0.117 C 
ATOM      5  C   UNL     1      31.905 -10.340 -20.710  0.00  0.00    +0.067 C 
ATOM      6  C   UNL     1      32.499 -12.086 -22.203  0.00  0.00    +0.115 C 
ATOM      7  C   UNL     1      32.858  -9.753 -22.884  0.00  0.00    +0.001 C 
ATOM      8  C   UNL     1      32.763  -8.400 -22.575  0.00  0.00    +0.047 C 
ATOM      9  C   UNL     1      31.822  -8.978 -20.426  0.00  0.00    +0.016 C 
ATOM     10  C   UNL     1      32.245  -8.012 -21.344  0.00  0.00    +0.016 C 
ATOM     11  C   UNL     1      31.612 -12.549 -20.173  0.00  0.00    +0.251 C 
ATOM     12  H   UNL     1      32.980 -11.904 -24.186  0.00  0.00    +0.153 HD
ENDROOT
BRANCH   1  13
ATOM     13  C   UNL     1      33.571 -13.779 -23.729  0.00  0.00    +0.049 C 
ATOM     14  C   UNL     1      34.433 -14.420 -22.818  0.00  0.00    +0.015 C 
ATOM     15  C   UNL     1      33.290 -14.430 -24.947  0.00  0.00    +0.015 C 
ATOM     16  C   UNL     1      34.992 -15.663 -23.112  0.00  0.00    +0.001 C 
ATOM     17  C   UNL     1      33.850 -15.675 -25.240  0.00  0.00    +0.001 C 
ATOM     18  C   UNL     1      34.701 -16.291 -24.322  0.00  0.00    +0.000 C 
ENDBRANCH   1  13
BRANCH   8  20
ATOM     19  O   UNL     1      35.433  -7.063 -22.900  0.00  0.00    -0.270 OA
ATOM     20  N   UNL     1      33.186  -7.438 -23.492  0.00  0.00    -0.281 N 
ATOM     21  C   UNL     1      34.452  -6.844 -23.600  0.00  0.00    +0.250 C 
ATOM     22  H   UNL     1      32.512  -7.138 -24.145  0.00  0.00    +0.155 HD
BRANCH  21  23
ATOM     23  C   UNL     1      34.502  -5.856 -24.716  0.00  0.00    +0.058 C 
ATOM     24  C   UNL     1      33.417  -5.149 -25.047  0.00  0.00    +0.005 C 
ENDBRANCH  21  23
ENDBRANCH   8  20
TORSDOF 3
ENDMDL
MODEL 8
REMARK VINA RESULT:      -9.5      2.853      6.125
REMARK  Name = 10401956
REMARK  3 active torsions:
REMARK  status: ('A' for Active; 'I' for Inactive)
REMARK    1  A    between atoms: N_1  and  C_13
REMARK    2  A    between atoms: C_8  and  N_20
REMARK    3  A    between atoms: C_21  and  C_23
REMARK                            x       y       z     vdW  Elec       q    Type
REMARK                         _______ _______ _______ _____ _____    ______ ____
ROOT
ATOM      1  N   UNL     1      34.669 -24.374 -14.149  0.00  0.00    -0.301 N 
ATOM      2  N   UNL     1      30.582 -24.565 -13.524  0.00  0.00    -0.248 NA
ATOM      3  N   UNL     1      32.839 -25.054 -12.836  0.00  0.00    -0.233 NA
ATOM      4  C   UNL     1      32.420 -23.854 -14.893  0.00  0.00    +0.117 C 
ATOM      5  C   UNL     1      31.044 -23.950 -14.628  0.00  0.00    +0.067 C 
ATOM      6  C   UNL     1      33.268 -24.430 -13.950  0.00  0.00    +0.115 C 
ATOM      7  C   UNL     1      32.891 -23.209 -16.049  0.00  0.00    +0.001 C 
ATOM      8  C   UNL     1      31.990 -22.653 -16.951  0.00  0.00    +0.047 C 
ATOM      9  C   UNL     1      30.164 -23.385 -15.548  0.00  0.00    +0.016 C 
ATOM     10  C   UNL     1      30.625 -22.741 -16.701  0.00  0.00    +0.016 C 
ATOM     11  C   UNL     1      31.506 -25.083 -12.689  0.00  0.00    +0.251 C 
ATOM     12  H   UNL     1      34.967 -24.251 -15.080  0.00  0.00    +0.153 HD
ENDROOT
BRANCH   1  13
ATOM     13  C   UNL     1      35.672 -24.468 -13.201  0.00  0.00    +0.049 C 
ATOM     14  C   UNL     1      35.863 -23.454 -12.243  0.00  0.00    +0.015 C 
ATOM     15  C   UNL     1      36.534 -25.583 -13.168  0.00  0.00    +0.015 C 
ATOM     16  C   UNL     1      36.875 -23.549 -11.289  0.00  0.00    +0.001 C 
ATOM     17  C   UNL     1      37.546 -25.677 -12.212  0.00  0.00    +0.001 C 
ATOM     18  C   UNL     1      37.717 -24.660 -11.273  0.00  0.00    +0.000 C 
ENDBRANCH   1  13
BRANCH   8  20
ATOM     19  O   UNL     1      34.701 -22.687 -18.241  0.00  0.00    -0.270 OA
ATOM     20  N   UNL     1      32.451 -22.011 -18.100  0.00  0.00    -0.281 N 
ATOM     21  C   UNL     1      33.736 -22.062 -18.661  0.00  0.00    +0.250 C 
ATOM     22  H   UNL     1      31.794 -21.453 -18.576  0.00  0.00    +0.155 HD
BRANCH  21  23
ATOM     23  C   UNL     1      33.829 -21.231 -19.897  0.00  0.00    +0.058 C 
ATOM     24  C   UNL     1      32.799 -20.471 -20.284  0.00  0.00    +0.005 C 
ENDBRANCH  21  23
ENDBRANCH   8  20
TORSDOF 3
ENDMDL
MODEL 9
REMARK VINA RESULT:      -9.3      3.531      7.323
REMARK  Name = 10401956
REMARK  3 active torsions:
REMARK  status: ('A' for Active; 'I' for Inactive)
REMARK    1  A    between atoms: N_1  and  C_13
REMARK    2  A    between atoms: C_8  and  N_20
REMARK    3  A    between atoms: C_21  and  C_23
REMARK                            x       y       z     vdW  Elec       q    Type
REMARK                         _______ _______ _______ _____ _____    ______ ____
ROOT
ATOM      1  N   UNL     1      36.367 -23.654 -15.155  0.00  0.00    -0.301 N 
ATOM      2  N   UNL     1      32.359 -23.552 -16.180  0.00  0.00    -0.248 NA
ATOM      3  N   UNL     1      34.136 -24.251 -14.710  0.00  0.00    -0.233 NA
ATOM      4  C   UNL     1      34.621 -22.922 -16.670  0.00  0.00    +0.117 C 
ATOM      5  C   UNL     1      33.248 -22.922 -16.968  0.00  0.00    +0.067 C 
ATOM      6  C   UNL     1      34.999 -23.609 -15.520  0.00  0.00    +0.115 C 
ATOM      7  C   UNL     1      35.541 -22.259 -17.501  0.00  0.00    +0.001 C 
ATOM      8  C   UNL     1      35.097 -21.590 -18.637  0.00  0.00    +0.047 C 
ATOM      9  C   UNL     1      32.831 -22.243 -18.111  0.00  0.00    +0.016 C 
ATOM     10  C   UNL     1      33.740 -21.582 -18.942  0.00  0.00    +0.016 C 
ATOM     11  C   UNL     1      32.852 -24.182 -15.094  0.00  0.00    +0.251 C 
ATOM     12  H   UNL     1      37.013 -23.510 -15.886  0.00  0.00    +0.153 HD
ENDROOT
BRANCH   1  13
ATOM     13  C   UNL     1      36.912 -23.875 -13.903  0.00  0.00    +0.049 C 
ATOM     14  C   UNL     1      36.720 -22.953 -12.856  0.00  0.00    +0.015 C 
ATOM     15  C   UNL     1      37.677 -25.028 -13.640  0.00  0.00    +0.015 C 
ATOM     16  C   UNL     1      37.270 -23.175 -11.594  0.00  0.00    +0.001 C 
ATOM     17  C   UNL     1      38.228 -25.250 -12.376  0.00  0.00    +0.001 C 
ATOM     18  C   UNL     1      38.024 -24.323 -11.354  0.00  0.00    +0.000 C 
ENDBRANCH   1  13
BRANCH   8  20
ATOM     19  O   UNL     1      34.669 -19.375 -20.619  0.00  0.00    -0.270 OA
ATOM     20  N   UNL     1      36.006 -20.931 -19.464  0.00  0.00    -0.281 N 
ATOM     21  C   UNL     1      35.750 -19.897 -20.377  0.00  0.00    +0.250 C 
ATOM     22  H   UNL     1      36.942 -21.228 -19.400  0.00  0.00    +0.155 HD
BRANCH  21  23
ATOM     23  C   UNL     1      36.995 -19.459 -21.074  0.00  0.00    +0.058 C 
ATOM     24  C   UNL     1      36.948 -18.513 -22.018  0.00  0.00    +0.005 C 
ENDBRANCH  21  23
ENDBRANCH   8  20
TORSDOF 3
ENDMDL
