MODEL 1
REMARK VINA RESULT:     -11.3      0.000      0.000
REMARK  Name = 16122642
REMARK  7 active torsions:
REMARK  status: ('A' for Active; 'I' for Inactive)
REMARK    1  A    between atoms: C_2  and  C_10
REMARK    2  A    between atoms: C_3  and  O_18
REMARK    3  A    between atoms: O_18  and  C_19
REMARK    4  A    between atoms: C_19  and  C_20
REMARK    5  A    between atoms: C_20  and  N_21
REMARK    6  A    between atoms: C_20  and  C_25
REMARK    7  A    between atoms: C_25  and  C_27
REMARK                            x       y       z     vdW  Elec       q    Type
REMARK                         _______ _______ _______ _____ _____    ______ ____
ROOT
ATOM      1  N   UNL     1      33.173 -18.056 -25.130  0.00  0.00    -0.239 NA
ATOM      2  C   UNL     1      34.558 -18.043 -23.156  0.00  0.00    +0.022 C 
ATOM      3  C   UNL     1      34.199 -16.004 -24.368  0.00  0.00    +0.158 C 
ATOM      4  C   UNL     1      34.782 -16.683 -23.303  0.00  0.00    +0.040 C 
ATOM      5  C   UNL     1      33.756 -18.681 -24.082  0.00  0.00    +0.099 C 
ATOM      6  C   UNL     1      33.410 -16.730 -25.246  0.00  0.00    +0.136 C 
ENDROOT
BRANCH   2  10
ATOM      7  N   UNL     1      35.606 -21.527 -18.640  0.00  0.00    -0.280 N 
ATOM      8  N   UNL     1      36.752 -20.884 -18.939  0.00  0.00    -0.173 NA
ATOM      9  C   UNL     1      35.046 -20.290 -20.317  0.00  0.00    +0.032 A 
ATOM     10  C   UNL     1      35.152 -18.779 -22.054  0.00  0.00    +0.002 C 
ATOM     11  C   UNL     1      36.438 -20.101 -19.986  0.00  0.00    +0.102 A 
ATOM     12  C   UNL     1      34.332 -19.669 -21.334  0.00  0.00    +0.003 C 
ATOM     13  C   UNL     1      34.547 -21.208 -19.438  0.00  0.00    +0.053 A 
ATOM     14  C   UNL     1      36.535 -18.555 -21.766  0.00  0.00    +0.002 C 
ATOM     15  C   UNL     1      37.233 -19.204 -20.724  0.00  0.00    +0.021 C 
ATOM     16  C   UNL     1      33.219 -21.817 -19.253  0.00  0.00    +0.051 C 
ATOM     17  H   UNL     1      35.539 -22.175 -17.903  0.00  0.00    +0.189 HD
ENDBRANCH   2  10
BRANCH   3  18
ATOM     18  O   UNL     1      34.397 -14.674 -24.541  0.00  0.00    -0.476 OA
BRANCH  18  19
ATOM     19  C   UNL     1      33.251 -13.824 -24.455  0.00  0.00    +0.184 C 
BRANCH  19  20
ATOM     20  C   UNL     1      33.513 -12.677 -23.472  0.00  0.00    -0.017 C 
BRANCH  20  21
ATOM     21  N   UNL     1      34.428 -13.159 -22.433  0.00  0.00    +0.384 N 
ATOM     22  H   UNL     1      35.373 -13.215 -22.812  0.00  0.00    -0.089 HD
ATOM     23  H   UNL     1      34.131 -14.084 -22.122  0.00  0.00    -0.089 HD
ATOM     24  H   UNL     1      34.416 -12.514 -21.643  0.00  0.00    -0.089 HD
ENDBRANCH  20  21
BRANCH  20  25
ATOM     25  C   UNL     1      34.149 -11.439 -24.139  0.00  0.00    +0.008 C 
BRANCH  25  27
ATOM     26 BR   UNL     1      32.487  -6.041 -21.653  0.00  0.00    -0.049 Br
ATOM     27  C   UNL     1      33.742 -10.118 -23.532  0.00  0.00    -0.024 C 
ATOM     28  C   UNL     1      34.590  -9.027 -23.647  0.00  0.00    -0.004 C 
ATOM     29  C   UNL     1      32.530 -10.021 -22.870  0.00  0.00    -0.004 C 
ATOM     30  C   UNL     1      34.214  -7.807 -23.085  0.00  0.00    +0.006 C 
ATOM     31  C   UNL     1      32.154  -8.801 -22.308  0.00  0.00    +0.006 C 
ATOM     32  C   UNL     1      32.996  -7.694 -22.416  0.00  0.00    +0.035 C 
ENDBRANCH  25  27
ENDBRANCH  20  25
ENDBRANCH  19  20
ENDBRANCH  18  19
ENDBRANCH   3  18
TORSDOF 7
ENDMDL
MODEL 2
REMARK VINA RESULT:     -11.2      4.710      8.296
REMARK  Name = 16122642
REMARK  7 active torsions:
REMARK  status: ('A' for Active; 'I' for Inactive)
REMARK    1  A    between atoms: C_2  and  C_10
REMARK    2  A    between atoms: C_3  and  O_18
REMARK    3  A    between atoms: O_18  and  C_19
REMARK    4  A    between atoms: C_19  and  C_20
REMARK    5  A    between atoms: C_20  and  N_21
REMARK    6  A    between atoms: C_20  and  C_25
REMARK    7  A    between atoms: C_25  and  C_27
REMARK                            x       y       z     vdW  Elec       q    Type
REMARK                         _______ _______ _______ _____ _____    ______ ____
ROOT
ATOM      1  N   UNL     1      36.857 -22.097 -16.778  0.00  0.00    -0.239 NA
ATOM      2  C   UNL     1      34.554 -22.782 -16.584  0.00  0.00    +0.022 C 
ATOM      3  C   UNL     1      35.353 -21.877 -18.658  0.00  0.00    +0.158 C 
ATOM      4  C   UNL     1      34.316 -22.408 -17.898  0.00  0.00    +0.040 C 
ATOM      5  C   UNL     1      35.825 -22.610 -16.071  0.00  0.00    +0.099 C 
ATOM      6  C   UNL     1      36.594 -21.743 -18.055  0.00  0.00    +0.136 C 
ENDROOT
BRANCH   2  10
ATOM      7  N   UNL     1      29.469 -24.372 -14.292  0.00  0.00    -0.280 N 
ATOM      8  N   UNL     1      30.447 -24.878 -13.517  0.00  0.00    -0.173 NA
ATOM      9  C   UNL     1      31.268 -23.695 -15.274  0.00  0.00    +0.032 A 
ATOM     10  C   UNL     1      33.492 -23.340 -15.767  0.00  0.00    +0.002 C 
ATOM     11  C   UNL     1      31.589 -24.474 -14.102  0.00  0.00    +0.102 A 
ATOM     12  C   UNL     1      32.159 -23.096 -16.155  0.00  0.00    +0.003 C 
ATOM     13  C   UNL     1      29.906 -23.650 -15.365  0.00  0.00    +0.053 A 
ATOM     14  C   UNL     1      33.861 -24.105 -14.616  0.00  0.00    +0.002 C 
ATOM     15  C   UNL     1      32.929 -24.702 -13.739  0.00  0.00    +0.021 C 
ATOM     16  C   UNL     1      28.973 -23.026 -16.318  0.00  0.00    +0.051 C 
ATOM     17  H   UNL     1      28.514 -24.511 -14.100  0.00  0.00    +0.189 HD
ENDBRANCH   2  10
BRANCH   3  18
ATOM     18  O   UNL     1      35.156 -21.502 -19.945  0.00  0.00    -0.476 OA
BRANCH  18  19
ATOM     19  C   UNL     1      34.322 -20.365 -20.176  0.00  0.00    +0.184 C 
BRANCH  19  20
ATOM     20  C   UNL     1      35.095 -19.286 -20.945  0.00  0.00    -0.017 C 
BRANCH  20  21
ATOM     21  N   UNL     1      36.493 -19.321 -20.508  0.00  0.00    +0.384 N 
ATOM     22  H   UNL     1      36.565 -19.851 -19.640  0.00  0.00    -0.089 HD
ATOM     23  H   UNL     1      36.824 -18.368 -20.352  0.00  0.00    -0.089 HD
ATOM     24  H   UNL     1      37.064 -19.766 -21.227  0.00  0.00    -0.089 HD
ENDBRANCH  20  21
BRANCH  20  25
ATOM     25  C   UNL     1      35.061 -19.490 -22.475  0.00  0.00    +0.008 C 
BRANCH  25  27
ATOM     26 BR   UNL     1      33.339 -14.516 -25.696  0.00  0.00    -0.049 Br
ATOM     27  C   UNL     1      34.641 -18.273 -23.263  0.00  0.00    -0.024 C 
ATOM     28  C   UNL     1      35.072 -17.019 -22.859  0.00  0.00    -0.004 C 
ATOM     29  C   UNL     1      33.831 -18.432 -24.375  0.00  0.00    -0.004 C 
ATOM     30  C   UNL     1      34.682 -15.895 -23.587  0.00  0.00    +0.006 C 
ATOM     31  C   UNL     1      33.442 -17.308 -25.103  0.00  0.00    +0.006 C 
ATOM     32  C   UNL     1      33.868 -16.040 -24.710  0.00  0.00    +0.035 C 
ENDBRANCH  25  27
ENDBRANCH  20  25
ENDBRANCH  19  20
ENDBRANCH  18  19
ENDBRANCH   3  18
TORSDOF 7
ENDMDL
MODEL 3
REMARK VINA RESULT:     -11.2      5.756      9.563
REMARK  Name = 16122642
REMARK  7 active torsions:
REMARK  status: ('A' for Active; 'I' for Inactive)
REMARK    1  A    between atoms: C_2  and  C_10
REMARK    2  A    between atoms: C_3  and  O_18
REMARK    3  A    between atoms: O_18  and  C_19
REMARK    4  A    between atoms: C_19  and  C_20
REMARK    5  A    between atoms: C_20  and  N_21
REMARK    6  A    between atoms: C_20  and  C_25
REMARK    7  A    between atoms: C_25  and  C_27
REMARK                            x       y       z     vdW  Elec       q    Type
REMARK                         _______ _______ _______ _____ _____    ______ ____
ROOT
ATOM      1  N   UNL     1      31.461 -23.511 -15.071  0.00  0.00    -0.239 NA
ATOM      2  C   UNL     1      33.872 -23.475 -15.066  0.00  0.00    +0.022 C 
ATOM      3  C   UNL     1      32.680 -22.869 -17.058  0.00  0.00    +0.158 C 
ATOM      4  C   UNL     1      33.884 -23.061 -16.389  0.00  0.00    +0.040 C 
ATOM      5  C   UNL     1      32.652 -23.684 -14.453  0.00  0.00    +0.099 C 
ATOM      6  C   UNL     1      31.506 -23.106 -16.359  0.00  0.00    +0.136 C 
ENDROOT
BRANCH   2  10
ATOM      7  N   UNL     1      37.947 -24.377 -11.039  0.00  0.00    -0.280 N 
ATOM      8  N   UNL     1      38.563 -24.269 -12.232  0.00  0.00    -0.173 NA
ATOM      9  C   UNL     1      36.309 -24.048 -12.405  0.00  0.00    +0.032 A 
ATOM     10  C   UNL     1      35.113 -23.682 -14.341  0.00  0.00    +0.002 C 
ATOM     11  C   UNL     1      37.567 -24.063 -13.112  0.00  0.00    +0.102 A 
ATOM     12  C   UNL     1      35.043 -23.865 -12.946  0.00  0.00    +0.003 C 
ATOM     13  C   UNL     1      36.589 -24.252 -11.084  0.00  0.00    +0.053 A 
ATOM     14  C   UNL     1      36.333 -23.688 -15.087  0.00  0.00    +0.002 C 
ATOM     15  C   UNL     1      37.606 -23.878 -14.506  0.00  0.00    +0.021 C 
ATOM     16  C   UNL     1      35.756 -24.344  -9.873  0.00  0.00    +0.051 C 
ATOM     17  H   UNL     1      38.438 -24.533 -10.201  0.00  0.00    +0.189 HD
ENDBRANCH   2  10
BRANCH   3  18
ATOM     18  O   UNL     1      32.655 -22.465 -18.351  0.00  0.00    -0.476 OA
BRANCH  18  19
ATOM     19  C   UNL     1      33.913 -22.268 -19.001  0.00  0.00    +0.184 C 
BRANCH  19  20
ATOM     20  C   UNL     1      33.773 -21.242 -20.132  0.00  0.00    -0.017 C 
BRANCH  20  21
ATOM     21  N   UNL     1      32.591 -20.418 -19.863  0.00  0.00    +0.384 N 
ATOM     22  H   UNL     1      32.886 -19.493 -19.553  0.00  0.00    -0.089 HD
ATOM     23  H   UNL     1      32.029 -20.858 -19.134  0.00  0.00    -0.089 HD
ATOM     24  H   UNL     1      32.036 -20.331 -20.715  0.00  0.00    -0.089 HD
ENDBRANCH  20  21
BRANCH  20  25
ATOM     25  C   UNL     1      34.995 -20.308 -20.259  0.00  0.00    +0.008 C 
BRANCH  25  27
ATOM     26 BR   UNL     1      34.603 -16.150 -24.801  0.00  0.00    -0.049 Br
ATOM     27  C   UNL     1      34.898 -19.292 -21.370  0.00  0.00    -0.024 C 
ATOM     28  C   UNL     1      34.522 -19.705 -22.639  0.00  0.00    -0.004 C 
ATOM     29  C   UNL     1      35.188 -17.964 -21.101  0.00  0.00    -0.004 C 
ATOM     30  C   UNL     1      34.434 -18.765 -23.665  0.00  0.00    +0.006 C 
ATOM     31  C   UNL     1      35.100 -17.024 -22.128  0.00  0.00    +0.006 C 
ATOM     32  C   UNL     1      34.722 -17.424 -23.409  0.00  0.00    +0.035 C 
ENDBRANCH  25  27
ENDBRANCH  20  25
ENDBRANCH  19  20
ENDBRANCH  18  19
ENDBRANCH   3  18
TORSDOF 7
ENDMDL
MODEL 4
REMARK VINA RESULT:     -11.2      4.010      9.825
REMARK  Name = 16122642
REMARK  7 active torsions:
REMARK  status: ('A' for Active; 'I' for Inactive)
REMARK    1  A    between atoms: C_2  and  C_10
REMARK    2  A    between atoms: C_3  and  O_18
REMARK    3  A    between atoms: O_18  and  C_19
REMARK    4  A    between atoms: C_19  and  C_20
REMARK    5  A    between atoms: C_20  and  N_21
REMARK    6  A    between atoms: C_20  and  C_25
REMARK    7  A    between atoms: C_25  and  C_27
REMARK                            x       y       z     vdW  Elec       q    Type
REMARK                         _______ _______ _______ _____ _____    ______ ____
ROOT
ATOM      1  N   UNL     1      33.451 -14.430 -25.778  0.00  0.00    -0.239 NA
ATOM      2  C   UNL     1      33.256 -13.807 -23.456  0.00  0.00    +0.022 C 
ATOM      3  C   UNL     1      34.419 -15.820 -24.053  0.00  0.00    +0.158 C 
ATOM      4  C   UNL     1      33.964 -14.938 -23.078  0.00  0.00    +0.040 C 
ATOM      5  C   UNL     1      33.026 -13.595 -24.802  0.00  0.00    +0.099 C 
ATOM      6  C   UNL     1      34.138 -15.522 -25.377  0.00  0.00    +0.136 C 
ENDROOT
BRANCH   2  10
ATOM      7  N   UNL     1      31.545  -9.100 -20.531  0.00  0.00    -0.280 N 
ATOM      8  N   UNL     1      31.412 -10.164 -19.716  0.00  0.00    -0.173 NA
ATOM      9  C   UNL     1      32.216 -10.744 -21.760  0.00  0.00    +0.032 A 
ATOM     10  C   UNL     1      32.770 -12.868 -22.462  0.00  0.00    +0.002 C 
ATOM     11  C   UNL     1      31.822 -11.212 -20.452  0.00  0.00    +0.102 A 
ATOM     12  C   UNL     1      32.698 -11.506 -22.816  0.00  0.00    +0.003 C 
ATOM     13  C   UNL     1      32.026  -9.391 -21.775  0.00  0.00    +0.053 A 
ATOM     14  C   UNL     1      32.393 -13.382 -21.181  0.00  0.00    +0.002 C 
ATOM     15  C   UNL     1      31.905 -12.578 -20.127  0.00  0.00    +0.021 C 
ATOM     16  C   UNL     1      32.234  -8.349 -22.795  0.00  0.00    +0.051 C 
ATOM     17  H   UNL     1      31.316  -8.186 -20.252  0.00  0.00    +0.189 HD
ENDBRANCH   2  10
BRANCH   3  18
ATOM     18  O   UNL     1      35.114 -16.934 -23.718  0.00  0.00    -0.476 OA
BRANCH  18  19
ATOM     19  C   UNL     1      35.162 -17.285 -22.333  0.00  0.00    +0.184 C 
BRANCH  19  20
ATOM     20  C   UNL     1      34.757 -18.752 -22.143  0.00  0.00    -0.017 C 
BRANCH  20  21
ATOM     21  N   UNL     1      34.688 -19.387 -23.463  0.00  0.00    +0.384 N 
ATOM     22  H   UNL     1      34.518 -20.385 -23.351  0.00  0.00    -0.089 HD
ATOM     23  H   UNL     1      35.570 -19.245 -23.955  0.00  0.00    -0.089 HD
ATOM     24  H   UNL     1      33.927 -18.970 -24.000  0.00  0.00    -0.089 HD
ENDBRANCH  20  21
BRANCH  20  25
ATOM     25  C   UNL     1      35.755 -19.549 -21.275  0.00  0.00    +0.008 C 
BRANCH  25  27
ATOM     26 BR   UNL     1      33.142 -23.278 -17.110  0.00  0.00    -0.049 Br
ATOM     27  C   UNL     1      35.115 -20.462 -20.257  0.00  0.00    -0.024 C 
ATOM     28  C   UNL     1      33.733 -20.527 -20.176  0.00  0.00    -0.004 C 
ATOM     29  C   UNL     1      35.922 -21.216 -19.422  0.00  0.00    -0.004 C 
ATOM     30  C   UNL     1      33.143 -21.370 -19.235  0.00  0.00    +0.006 C 
ATOM     31  C   UNL     1      35.332 -22.059 -18.480  0.00  0.00    +0.006 C 
ATOM     32  C   UNL     1      33.942 -22.136 -18.387  0.00  0.00    +0.035 C 
ENDBRANCH  25  27
ENDBRANCH  20  25
ENDBRANCH  19  20
ENDBRANCH  18  19
ENDBRANCH   3  18
TORSDOF 7
ENDMDL
MODEL 5
REMARK VINA RESULT:     -11.0      3.972     10.265
REMARK  Name = 16122642
REMARK  7 active torsions:
REMARK  status: ('A' for Active; 'I' for Inactive)
REMARK    1  A    between atoms: C_2  and  C_10
REMARK    2  A    between atoms: C_3  and  O_18
REMARK    3  A    between atoms: O_18  and  C_19
REMARK    4  A    between atoms: C_19  and  C_20
REMARK    5  A    between atoms: C_20  and  N_21
REMARK    6  A    between atoms: C_20  and  C_25
REMARK    7  A    between atoms: C_25  and  C_27
REMARK                            x       y       z     vdW  Elec       q    Type
REMARK                         _______ _______ _______ _____ _____    ______ ____
ROOT
ATOM      1  N   UNL     1      33.105 -14.188 -25.558  0.00  0.00    -0.239 NA
ATOM      2  C   UNL     1      33.852 -12.432 -24.084  0.00  0.00    +0.022 C 
ATOM      3  C   UNL     1      34.058 -14.723 -23.402  0.00  0.00    +0.158 C 
ATOM      4  C   UNL     1      34.238 -13.369 -23.139  0.00  0.00    +0.040 C 
ATOM      5  C   UNL     1      33.297 -12.881 -25.267  0.00  0.00    +0.099 C 
ATOM      6  C   UNL     1      33.492 -15.076 -24.617  0.00  0.00    +0.136 C 
ENDROOT
BRANCH   2  10
ATOM      7  N   UNL     1      33.411  -6.947 -22.253  0.00  0.00    -0.280 N 
ATOM      8  N   UNL     1      34.460  -7.017 -23.096  0.00  0.00    -0.173 NA
ATOM      9  C   UNL     1      33.432  -9.026 -22.832  0.00  0.00    +0.032 A 
ATOM     10  C   UNL     1      34.028 -11.012 -23.838  0.00  0.00    +0.002 C 
ATOM     11  C   UNL     1      34.503  -8.306 -23.478  0.00  0.00    +0.102 A 
ATOM     12  C   UNL     1      33.129 -10.376 -22.960  0.00  0.00    +0.003 C 
ATOM     13  C   UNL     1      32.756  -8.127 -22.057  0.00  0.00    +0.053 A 
ATOM     14  C   UNL     1      35.104 -10.344 -24.502  0.00  0.00    +0.002 C 
ATOM     15  C   UNL     1      35.386  -8.969 -24.351  0.00  0.00    +0.021 C 
ATOM     16  C   UNL     1      31.587  -8.233 -21.167  0.00  0.00    +0.051 C 
ATOM     17  H   UNL     1      33.139  -6.110 -21.814  0.00  0.00    +0.189 HD
ENDBRANCH   2  10
BRANCH   3  18
ATOM     18  O   UNL     1      34.425 -15.665 -22.500  0.00  0.00    -0.476 OA
BRANCH  18  19
ATOM     19  C   UNL     1      35.281 -16.714 -22.959  0.00  0.00    +0.184 C 
BRANCH  19  20
ATOM     20  C   UNL     1      35.416 -17.799 -21.883  0.00  0.00    -0.017 C 
BRANCH  20  21
ATOM     21  N   UNL     1      34.996 -17.230 -20.599  0.00  0.00    +0.384 N 
ATOM     22  H   UNL     1      34.068 -17.578 -20.361  0.00  0.00    -0.089 HD
ATOM     23  H   UNL     1      34.970 -16.213 -20.670  0.00  0.00    -0.089 HD
ATOM     24  H   UNL     1      35.659 -17.503 -19.873  0.00  0.00    -0.089 HD
ENDBRANCH  20  21
BRANCH  20  25
ATOM     25  C   UNL     1      34.551 -19.045 -22.166  0.00  0.00    +0.008 C 
BRANCH  25  27
ATOM     26 BR   UNL     1      33.933 -22.887 -17.377  0.00  0.00    -0.049 Br
ATOM     27  C   UNL     1      34.399 -19.986 -20.995  0.00  0.00    -0.024 C 
ATOM     28  C   UNL     1      33.131 -20.281 -20.521  0.00  0.00    -0.004 C 
ATOM     29  C   UNL     1      35.531 -20.534 -20.416  0.00  0.00    -0.004 C 
ATOM     30  C   UNL     1      32.991 -21.150 -19.439  0.00  0.00    +0.006 C 
ATOM     31  C   UNL     1      35.391 -21.403 -19.333  0.00  0.00    +0.006 C 
ATOM     32  C   UNL     1      34.122 -21.711 -18.845  0.00  0.00    +0.035 C 
ENDBRANCH  25  27
ENDBRANCH  20  25
ENDBRANCH  19  20
ENDBRANCH  18  19
ENDBRANCH   3  18
TORSDOF 7
ENDMDL
MODEL 6
REMARK VINA RESULT:     -11.0      4.448      7.481
REMARK  Name = 16122642
REMARK  7 active torsions:
REMARK  status: ('A' for Active; 'I' for Inactive)
REMARK    1  A    between atoms: C_2  and  C_10
REMARK    2  A    between atoms: C_3  and  O_18
REMARK    3  A    between atoms: O_18  and  C_19
REMARK    4  A    between atoms: C_19  and  C_20
REMARK    5  A    between atoms: C_20  and  N_21
REMARK    6  A    between atoms: C_20  and  C_25
REMARK    7  A    between atoms: C_25  and  C_27
REMARK                            x       y       z     vdW  Elec       q    Type
REMARK                         _______ _______ _______ _____ _____    ______ ____
ROOT
ATOM      1  N   UNL     1      32.689 -21.841 -19.146  0.00  0.00    -0.239 NA
ATOM      2  C   UNL     1      34.410 -22.361 -17.539  0.00  0.00    +0.022 C 
ATOM      3  C   UNL     1      35.003 -21.327 -19.622  0.00  0.00    +0.158 C 
ATOM      4  C   UNL     1      35.379 -21.848 -18.388  0.00  0.00    +0.040 C 
ATOM      5  C   UNL     1      33.092 -22.337 -17.955  0.00  0.00    +0.099 C 
ATOM      6  C   UNL     1      33.656 -21.347 -19.950  0.00  0.00    +0.136 C 
ENDROOT
BRANCH   2  10
ATOM      7  N   UNL     1      34.451 -24.857 -12.305  0.00  0.00    -0.280 N 
ATOM      8  N   UNL     1      35.712 -24.476 -12.590  0.00  0.00    -0.173 NA
ATOM      9  C   UNL     1      34.259 -23.960 -14.258  0.00  0.00    +0.032 A 
ATOM     10  C   UNL     1      34.771 -22.911 -16.245  0.00  0.00    +0.002 C 
ATOM     11  C   UNL     1      35.629 -23.911 -13.807  0.00  0.00    +0.102 A 
ATOM     12  C   UNL     1      33.751 -23.484 -15.460  0.00  0.00    +0.003 C 
ATOM     13  C   UNL     1      33.535 -24.571 -13.274  0.00  0.00    +0.053 A 
ATOM     14  C   UNL     1      36.142 -22.837 -15.844  0.00  0.00    +0.002 C 
ATOM     15  C   UNL     1      36.627 -23.332 -14.614  0.00  0.00    +0.021 C 
ATOM     16  C   UNL     1      32.111 -24.917 -13.129  0.00  0.00    +0.051 C 
ATOM     17  H   UNL     1      34.211 -25.306 -11.463  0.00  0.00    +0.189 HD
ENDBRANCH   2  10
BRANCH   3  18
ATOM     18  O   UNL     1      35.924 -20.817 -20.475  0.00  0.00    -0.476 OA
BRANCH  18  19
ATOM     19  C   UNL     1      36.541 -19.581 -20.111  0.00  0.00    +0.184 C 
BRANCH  19  20
ATOM     20  C   UNL     1      36.511 -18.603 -21.293  0.00  0.00    -0.017 C 
BRANCH  20  21
ATOM     21  N   UNL     1      37.836 -18.598 -21.920  0.00  0.00    +0.384 N 
ATOM     22  H   UNL     1      38.372 -17.802 -21.575  0.00  0.00    -0.089 HD
ATOM     23  H   UNL     1      37.733 -18.524 -22.932  0.00  0.00    -0.089 HD
ATOM     24  H   UNL     1      38.325 -19.463 -21.690  0.00  0.00    -0.089 HD
ENDBRANCH  20  21
BRANCH  20  25
ATOM     25  C   UNL     1      35.469 -18.982 -22.367  0.00  0.00    +0.008 C 
BRANCH  25  27
ATOM     26 BR   UNL     1      33.179 -14.205 -25.531  0.00  0.00    -0.049 Br
ATOM     27  C   UNL     1      34.910 -17.813 -23.141  0.00  0.00    -0.024 C 
ATOM     28  C   UNL     1      35.173 -16.522 -22.708  0.00  0.00    -0.004 C 
ATOM     29  C   UNL     1      34.144 -18.052 -24.269  0.00  0.00    -0.004 C 
ATOM     30  C   UNL     1      34.655 -15.443 -23.423  0.00  0.00    +0.006 C 
ATOM     31  C   UNL     1      33.626 -16.972 -24.985  0.00  0.00    +0.006 C 
ATOM     32  C   UNL     1      33.881 -15.668 -24.562  0.00  0.00    +0.035 C 
ENDBRANCH  25  27
ENDBRANCH  20  25
ENDBRANCH  19  20
ENDBRANCH  18  19
ENDBRANCH   3  18
TORSDOF 7
ENDMDL
MODEL 7
REMARK VINA RESULT:     -10.9      4.023      9.840
REMARK  Name = 16122642
REMARK  7 active torsions:
REMARK  status: ('A' for Active; 'I' for Inactive)
REMARK    1  A    between atoms: C_2  and  C_10
REMARK    2  A    between atoms: C_3  and  O_18
REMARK    3  A    between atoms: O_18  and  C_19
REMARK    4  A    between atoms: C_19  and  C_20
REMARK    5  A    between atoms: C_20  and  N_21
REMARK    6  A    between atoms: C_20  and  C_25
REMARK    7  A    between atoms: C_25  and  C_27
REMARK                            x       y       z     vdW  Elec       q    Type
REMARK                         _______ _______ _______ _____ _____    ______ ____
ROOT
ATOM      1  N   UNL     1      33.668 -15.648 -25.860  0.00  0.00    -0.239 NA
ATOM      2  C   UNL     1      33.864 -13.977 -24.132  0.00  0.00    +0.022 C 
ATOM      3  C   UNL     1      34.824 -16.150 -23.797  0.00  0.00    +0.158 C 
ATOM      4  C   UNL     1      34.567 -14.865 -23.332  0.00  0.00    +0.040 C 
ATOM      5  C   UNL     1      33.439 -14.406 -25.375  0.00  0.00    +0.099 C 
ATOM      6  C   UNL     1      34.357 -16.489 -25.057  0.00  0.00    +0.136 C 
ENDROOT
BRANCH   2  10
ATOM      7  N   UNL     1      31.905  -9.277 -21.357  0.00  0.00    -0.280 N 
ATOM      8  N   UNL     1      32.737  -8.863 -22.332  0.00  0.00    -0.173 NA
ATOM      9  C   UNL     1      32.534 -11.125 -22.277  0.00  0.00    +0.032 A 
ATOM     10  C   UNL     1      33.581 -12.629 -23.675  0.00  0.00    +0.002 C 
ATOM     11  C   UNL     1      33.151  -9.995 -22.929  0.00  0.00    +0.102 A 
ATOM     12  C   UNL     1      32.698 -12.469 -22.589  0.00  0.00    +0.003 C 
ATOM     13  C   UNL     1      31.745 -10.629 -21.278  0.00  0.00    +0.053 A 
ATOM     14  C   UNL     1      34.217 -11.543 -24.354  0.00  0.00    +0.002 C 
ATOM     15  C   UNL     1      34.030 -10.186 -24.011  0.00  0.00    +0.021 C 
ATOM     16  C   UNL     1      30.873 -11.255 -20.270  0.00  0.00    +0.051 C 
ATOM     17  H   UNL     1      31.447  -8.652 -20.749  0.00  0.00    +0.189 HD
ENDBRANCH   2  10
BRANCH   3  18
ATOM     18  O   UNL     1      35.508 -17.043 -23.041  0.00  0.00    -0.476 OA
BRANCH  18  19
ATOM     19  C   UNL     1      34.927 -17.428 -21.794  0.00  0.00    +0.184 C 
BRANCH  19  20
ATOM     20  C   UNL     1      34.610 -18.928 -21.795  0.00  0.00    -0.017 C 
BRANCH  20  21
ATOM     21  N   UNL     1      34.579 -19.392 -23.186  0.00  0.00    +0.384 N 
ATOM     22  H   UNL     1      34.081 -18.712 -23.759  0.00  0.00    -0.089 HD
ATOM     23  H   UNL     1      34.102 -20.292 -23.233  0.00  0.00    -0.089 HD
ATOM     24  H   UNL     1      35.534 -19.494 -23.531  0.00  0.00    -0.089 HD
ENDBRANCH  20  21
BRANCH  20  25
ATOM     25  C   UNL     1      35.651 -19.770 -21.027  0.00  0.00    +0.008 C 
BRANCH  25  27
ATOM     26 BR   UNL     1      33.275 -23.493 -16.718  0.00  0.00    -0.049 Br
ATOM     27  C   UNL     1      35.071 -20.680 -19.972  0.00  0.00    -0.024 C 
ATOM     28  C   UNL     1      35.921 -21.322 -19.085  0.00  0.00    -0.004 C 
ATOM     29  C   UNL     1      33.698 -20.858 -19.912  0.00  0.00    -0.004 C 
ATOM     30  C   UNL     1      35.383 -22.163 -18.112  0.00  0.00    +0.006 C 
ATOM     31  C   UNL     1      33.161 -21.700 -18.938  0.00  0.00    +0.006 C 
ATOM     32  C   UNL     1      34.003 -22.352 -18.038  0.00  0.00    +0.035 C 
ENDBRANCH  25  27
ENDBRANCH  20  25
ENDBRANCH  19  20
ENDBRANCH  18  19
ENDBRANCH   3  18
TORSDOF 7
ENDMDL
MODEL 8
REMARK VINA RESULT:     -10.9      5.767      9.733
REMARK  Name = 16122642
REMARK  7 active torsions:
REMARK  status: ('A' for Active; 'I' for Inactive)
REMARK    1  A    between atoms: C_2  and  C_10
REMARK    2  A    between atoms: C_3  and  O_18
REMARK    3  A    between atoms: O_18  and  C_19
REMARK    4  A    between atoms: C_19  and  C_20
REMARK    5  A    between atoms: C_20  and  N_21
REMARK    6  A    between atoms: C_20  and  C_25
REMARK    7  A    between atoms: C_25  and  C_27
REMARK                            x       y       z     vdW  Elec       q    Type
REMARK                         _______ _______ _______ _____ _____    ______ ____
ROOT
ATOM      1  N   UNL     1      31.247 -23.258 -15.243  0.00  0.00    -0.239 NA
ATOM      2  C   UNL     1      33.578 -23.724 -14.839  0.00  0.00    +0.022 C 
ATOM      3  C   UNL     1      32.862 -23.057 -17.030  0.00  0.00    +0.158 C 
ATOM      4  C   UNL     1      33.880 -23.436 -16.162  0.00  0.00    +0.040 C 
ATOM      5  C   UNL     1      32.263 -23.622 -14.428  0.00  0.00    +0.099 C 
ATOM      6  C   UNL     1      31.573 -22.983 -16.525  0.00  0.00    +0.136 C 
ENDROOT
BRANCH   2  10
ATOM      7  N   UNL     1      38.552 -25.299 -12.307  0.00  0.00    -0.280 N 
ATOM      8  N   UNL     1      37.603 -25.243 -11.353  0.00  0.00    -0.173 NA
ATOM      9  C   UNL     1      36.791 -24.707 -13.406  0.00  0.00    +0.032 A 
ATOM     10  C   UNL     1      34.619 -24.122 -13.910  0.00  0.00    +0.002 C 
ATOM     11  C   UNL     1      36.486 -24.875 -12.005  0.00  0.00    +0.102 A 
ATOM     12  C   UNL     1      35.916 -24.333 -14.418  0.00  0.00    +0.003 C 
ATOM     13  C   UNL     1      38.119 -24.985 -13.562  0.00  0.00    +0.053 A 
ATOM     14  C   UNL     1      34.266 -24.275 -12.532  0.00  0.00    +0.002 C 
ATOM     15  C   UNL     1      35.181 -24.657 -11.526  0.00  0.00    +0.021 C 
ATOM     16  C   UNL     1      39.023 -24.994 -14.725  0.00  0.00    +0.051 C 
ATOM     17  H   UNL     1      39.484 -25.546 -12.114  0.00  0.00    +0.189 HD
ENDBRANCH   2  10
BRANCH   3  18
ATOM     18  O   UNL     1      33.122 -22.768 -18.329  0.00  0.00    -0.476 OA
BRANCH  18  19
ATOM     19  C   UNL     1      34.327 -22.054 -18.613  0.00  0.00    +0.184 C 
BRANCH  19  20
ATOM     20  C   UNL     1      34.201 -21.309 -19.948  0.00  0.00    -0.017 C 
BRANCH  20  21
ATOM     21  N   UNL     1      32.952 -20.541 -19.932  0.00  0.00    +0.384 N 
ATOM     22  H   UNL     1      32.175 -21.150 -20.186  0.00  0.00    -0.089 HD
ATOM     23  H   UNL     1      33.016 -19.774 -20.601  0.00  0.00    -0.089 HD
ATOM     24  H   UNL     1      32.797 -20.164 -18.996  0.00  0.00    -0.089 HD
ENDBRANCH  20  21
BRANCH  20  25
ATOM     25  C   UNL     1      35.366 -20.332 -20.210  0.00  0.00    +0.008 C 
BRANCH  25  27
ATOM     26 BR   UNL     1      34.349 -16.276 -24.748  0.00  0.00    -0.049 Br
ATOM     27  C   UNL     1      35.119 -19.340 -21.320  0.00  0.00    -0.024 C 
ATOM     28  C   UNL     1      35.383 -17.997 -21.102  0.00  0.00    -0.004 C 
ATOM     29  C   UNL     1      34.631 -19.790 -22.535  0.00  0.00    -0.004 C 
ATOM     30  C   UNL     1      35.152 -17.080 -22.128  0.00  0.00    +0.006 C 
ATOM     31  C   UNL     1      34.401 -18.873 -23.561  0.00  0.00    +0.006 C 
ATOM     32  C   UNL     1      34.662 -17.519 -23.358  0.00  0.00    +0.035 C 
ENDBRANCH  25  27
ENDBRANCH  20  25
ENDBRANCH  19  20
ENDBRANCH  18  19
ENDBRANCH   3  18
TORSDOF 7
ENDMDL
MODEL 9
REMARK VINA RESULT:     -10.8      5.075     10.937
REMARK  Name = 16122642
REMARK  7 active torsions:
REMARK  status: ('A' for Active; 'I' for Inactive)
REMARK    1  A    between atoms: C_2  and  C_10
REMARK    2  A    between atoms: C_3  and  O_18
REMARK    3  A    between atoms: O_18  and  C_19
REMARK    4  A    between atoms: C_19  and  C_20
REMARK    5  A    between atoms: C_20  and  N_21
REMARK    6  A    between atoms: C_20  and  C_25
REMARK    7  A    between atoms: C_25  and  C_27
REMARK                            x       y       z     vdW  Elec       q    Type
REMARK                         _______ _______ _______ _____ _____    ______ ____
ROOT
ATOM      1  N   UNL     1      37.350 -19.357 -19.905  0.00  0.00    -0.239 NA
ATOM      2  C   UNL     1      35.501 -19.115 -21.433  0.00  0.00    +0.022 C 
ATOM      3  C   UNL     1      35.500 -20.912 -19.842  0.00  0.00    +0.158 C 
ATOM      4  C   UNL     1      34.883 -20.229 -20.885  0.00  0.00    +0.040 C 
ATOM      5  C   UNL     1      36.719 -18.719 -20.917  0.00  0.00    +0.099 C 
ATOM      6  C   UNL     1      36.722 -20.438 -19.392  0.00  0.00    +0.136 C 
ENDROOT
BRANCH   2  10
ATOM      7  N   UNL     1      33.382 -15.048 -24.983  0.00  0.00    -0.280 N 
ATOM      8  N   UNL     1      33.151 -16.249 -25.547  0.00  0.00    -0.173 NA
ATOM      9  C   UNL     1      34.221 -16.428 -23.551  0.00  0.00    +0.032 A 
ATOM     10  C   UNL     1      34.881 -18.382 -22.522  0.00  0.00    +0.002 C 
ATOM     11  C   UNL     1      33.664 -17.138 -24.678  0.00  0.00    +0.102 A 
ATOM     12  C   UNL     1      34.844 -16.976 -22.437  0.00  0.00    +0.003 C 
ATOM     13  C   UNL     1      34.023 -15.096 -23.780  0.00  0.00    +0.053 A 
ATOM     14  C   UNL     1      34.344 -19.131 -23.615  0.00  0.00    +0.002 C 
ATOM     15  C   UNL     1      33.715 -18.543 -24.735  0.00  0.00    +0.021 C 
ATOM     16  C   UNL     1      34.356 -13.878 -23.023  0.00  0.00    +0.051 C 
ATOM     17  H   UNL     1      33.108 -14.202 -25.405  0.00  0.00    +0.189 HD
ENDBRANCH   2  10
BRANCH   3  18
ATOM     18  O   UNL     1      34.924 -22.004 -19.284  0.00  0.00    -0.476 OA
BRANCH  18  19
ATOM     19  C   UNL     1      33.512 -21.960 -19.064  0.00  0.00    +0.184 C 
BRANCH  19  20
ATOM     20  C   UNL     1      33.191 -22.297 -17.603  0.00  0.00    -0.017 C 
BRANCH  20  21
ATOM     21  N   UNL     1      31.736 -22.413 -17.465  0.00  0.00    +0.384 N 
ATOM     22  H   UNL     1      31.426 -23.294 -17.873  0.00  0.00    -0.089 HD
ATOM     23  H   UNL     1      31.286 -21.637 -17.949  0.00  0.00    -0.089 HD
ATOM     24  H   UNL     1      31.485 -22.389 -16.477  0.00  0.00    -0.089 HD
ENDBRANCH  20  21
BRANCH  20  25
ATOM     25  C   UNL     1      33.829 -23.621 -17.131  0.00  0.00    +0.008 C 
BRANCH  25  27
ATOM     26 BR   UNL     1      36.963 -23.227 -11.830  0.00  0.00    -0.049 Br
ATOM     27  C   UNL     1      34.596 -23.523 -15.835  0.00  0.00    -0.024 C 
ATOM     28  C   UNL     1      35.805 -22.847 -15.809  0.00  0.00    -0.004 C 
ATOM     29  C   UNL     1      34.076 -24.113 -14.694  0.00  0.00    -0.004 C 
ATOM     30  C   UNL     1      36.513 -22.758 -14.611  0.00  0.00    +0.006 C 
ATOM     31  C   UNL     1      34.785 -24.025 -13.496  0.00  0.00    +0.006 C 
ATOM     32  C   UNL     1      36.003 -23.347 -13.454  0.00  0.00    +0.035 C 
ENDBRANCH  25  27
ENDBRANCH  20  25
ENDBRANCH  19  20
ENDBRANCH  18  19
ENDBRANCH   3  18
TORSDOF 7
ENDMDL
