MODEL 1
REMARK VINA RESULT:     -11.3      0.000      0.000
REMARK  Name = 54689025
REMARK  9 active torsions:
REMARK  status: ('A' for Active; 'I' for Inactive)
REMARK    1  A    between atoms: C_1  and  C_21
REMARK    2  A    between atoms: C_4  and  N_8
REMARK    3  A    between atoms: C_9  and  C_11
REMARK    4  A    between atoms: C_11  and  N_13
REMARK    5  A    between atoms: C_14  and  O_16
REMARK    6  A    between atoms: O_16  and  C_17
REMARK    7  A    between atoms: C_21  and  C_24
REMARK    8  A    between atoms: C_21  and  C_35
REMARK    9  A    between atoms: C_25  and  O_33
REMARK                            x       y       z     vdW  Elec       q    Type
REMARK                         _______ _______ _______ _____ _____    ______ ____
ROOT
ATOM      1  C   UNL     1      34.891 -16.614 -21.932  0.00  0.00    -0.017 C 
ATOM      2  C   UNL     1      34.816 -15.499 -22.766  0.00  0.00    +0.011 C 
ATOM      3  C   UNL     1      34.593 -16.493 -20.575  0.00  0.00    -0.004 C 
ATOM      4  C   UNL     1      34.440 -14.262 -22.243  0.00  0.00    +0.050 C 
ATOM      5  C   UNL     1      34.218 -15.255 -20.052  0.00  0.00    +0.001 C 
ATOM      6  C   UNL     1      34.141 -14.140 -20.886  0.00  0.00    +0.015 C 
ENDROOT
BRANCH   4   8
ATOM      7  O   UNL     1      33.193 -13.939 -24.957  0.00  0.00    -0.273 OA
ATOM      8  N   UNL     1      34.365 -13.145 -23.076  0.00  0.00    -0.283 N 
ATOM      9  C   UNL     1      33.768 -13.045 -24.343  0.00  0.00    +0.246 C 
ATOM     10  H   UNL     1      34.782 -12.322 -22.731  0.00  0.00    +0.155 HD
BRANCH   9  11
ATOM     11  C   UNL     1      33.913 -11.641 -24.903  0.00  0.00    +0.179 C 
BRANCH  11  13
ATOM     12  O   UNL     1      35.367  -9.350 -23.866  0.00  0.00    -0.226 OA
ATOM     13  N   UNL     1      33.461 -10.673 -23.947  0.00  0.00    -0.262 N 
ATOM     14  C   UNL     1      34.223  -9.605 -23.504  0.00  0.00    +0.402 C 
ATOM     15  H   UNL     1      32.552 -10.775 -23.582  0.00  0.00    +0.153 HD
BRANCH  14  16
ATOM     16  O   UNL     1      33.513  -8.867 -22.598  0.00  0.00    -0.442 OA
BRANCH  16  17
ATOM     17  C   UNL     1      33.522  -7.450 -22.804  0.00  0.00    +0.138 C 
ATOM     18  C   UNL     1      34.959  -7.007 -23.077  0.00  0.00    +0.044 C 
ATOM     19  C   UNL     1      32.991  -6.797 -21.529  0.00  0.00    +0.044 C 
ATOM     20  C   UNL     1      32.618  -7.125 -23.992  0.00  0.00    +0.044 C 
ENDBRANCH  16  17
ENDBRANCH  14  16
ENDBRANCH  11  13
ENDBRANCH   9  11
ENDBRANCH   4   8
BRANCH   1  21
ATOM     21  C   UNL     1      35.300 -17.961 -22.501  0.00  0.00    +0.054 C 
BRANCH  21  24
ATOM     22  O   UNL     1      36.851 -20.194 -19.867  0.00  0.00    -0.421 OA
ATOM     23  O   UNL     1      37.696 -18.604 -21.257  0.00  0.00    -0.245 OA
ATOM     24  C   UNL     1      35.355 -19.007 -21.421  0.00  0.00    +0.091 A 
ATOM     25  C   UNL     1      34.305 -19.712 -20.958  0.00  0.00    +0.139 A 
ATOM     26  C   UNL     1      36.719 -19.235 -20.862  0.00  0.00    +0.345 A 
ATOM     27  C   UNL     1      34.478 -20.717 -19.907  0.00  0.00    +0.068 A 
ATOM     28  C   UNL     1      35.752 -20.929 -19.390  0.00  0.00    +0.152 A 
ATOM     29  C   UNL     1      33.425 -21.484 -19.388  0.00  0.00    +0.006 C 
ATOM     30  C   UNL     1      36.003 -21.868 -18.388  0.00  0.00    +0.038 C 
ATOM     31  C   UNL     1      33.660 -22.428 -18.382  0.00  0.00    +0.000 C 
ATOM     32  C   UNL     1      34.947 -22.621 -17.885  0.00  0.00    +0.003 C 
BRANCH  25  33
ATOM     33  O   UNL     1      33.008 -19.569 -21.404  0.00  0.00    -0.506 OA
ATOM     34  H   UNL     1      32.312 -20.029 -20.978  0.00  0.00    +0.292 HD
ENDBRANCH  25  33
ENDBRANCH  21  24
BRANCH  21  35
ATOM     35  C   UNL     1      34.397 -18.445 -23.655  0.00  0.00    +0.009 C 
ATOM     36  C   UNL     1      34.863 -19.766 -24.260  0.00  0.00    +0.001 C 
ENDBRANCH  21  35
ENDBRANCH   1  21
TORSDOF 9
ENDMDL
MODEL 2
REMARK VINA RESULT:     -10.9      4.712     11.649
REMARK  Name = 54689025
REMARK  9 active torsions:
REMARK  status: ('A' for Active; 'I' for Inactive)
REMARK    1  A    between atoms: C_1  and  C_21
REMARK    2  A    between atoms: C_4  and  N_8
REMARK    3  A    between atoms: C_9  and  C_11
REMARK    4  A    between atoms: C_11  and  N_13
REMARK    5  A    between atoms: C_14  and  O_16
REMARK    6  A    between atoms: O_16  and  C_17
REMARK    7  A    between atoms: C_21  and  C_24
REMARK    8  A    between atoms: C_21  and  C_35
REMARK    9  A    between atoms: C_25  and  O_33
REMARK                            x       y       z     vdW  Elec       q    Type
REMARK                         _______ _______ _______ _____ _____    ______ ____
ROOT
ATOM      1  C   UNL     1      34.653 -20.247 -20.653  0.00  0.00    -0.017 C 
ATOM      2  C   UNL     1      34.997 -21.057 -19.571  0.00  0.00    +0.011 C 
ATOM      3  C   UNL     1      33.311 -19.991 -20.935  0.00  0.00    -0.004 C 
ATOM      4  C   UNL     1      33.998 -21.611 -18.770  0.00  0.00    +0.050 C 
ATOM      5  C   UNL     1      32.313 -20.546 -20.135  0.00  0.00    +0.001 C 
ATOM      6  C   UNL     1      32.656 -21.355 -19.052  0.00  0.00    +0.015 C 
ENDROOT
BRANCH   4   8
ATOM      7  O   UNL     1      36.490 -21.669 -17.092  0.00  0.00    -0.273 OA
ATOM      8  N   UNL     1      34.341 -22.423 -17.688  0.00  0.00    -0.283 N 
ATOM      9  C   UNL     1      35.525 -22.411 -16.933  0.00  0.00    +0.246 C 
ATOM     10  H   UNL     1      33.666 -23.087 -17.418  0.00  0.00    +0.155 HD
BRANCH   9  11
ATOM     11  C   UNL     1      35.484 -23.464 -15.841  0.00  0.00    +0.179 C 
BRANCH  11  13
ATOM     12  O   UNL     1      36.559 -23.438 -13.142  0.00  0.00    -0.226 OA
ATOM     13  N   UNL     1      36.813 -23.801 -15.422  0.00  0.00    -0.262 N 
ATOM     14  C   UNL     1      37.246 -23.762 -14.106  0.00  0.00    +0.402 C 
ATOM     15  H   UNL     1      37.458 -24.077 -16.112  0.00  0.00    +0.153 HD
BRANCH  14  16
ATOM     16  O   UNL     1      38.557 -24.138 -14.033  0.00  0.00    -0.442 OA
BRANCH  16  17
ATOM     17  C   UNL     1      38.797 -25.489 -13.626  0.00  0.00    +0.138 C 
ATOM     18  C   UNL     1      38.511 -25.604 -12.129  0.00  0.00    +0.044 C 
ATOM     19  C   UNL     1      40.262 -25.805 -13.919  0.00  0.00    +0.044 C 
ATOM     20  C   UNL     1      37.877 -26.409 -14.428  0.00  0.00    +0.044 C 
ENDBRANCH  16  17
ENDBRANCH  14  16
ENDBRANCH  11  13
ENDBRANCH   9  11
ENDBRANCH   4   8
BRANCH   1  21
ATOM     21  C   UNL     1      35.740 -19.644 -21.524  0.00  0.00    +0.054 C 
BRANCH  21  24
ATOM     22  O   UNL     1      34.336 -18.036 -24.651  0.00  0.00    -0.421 OA
ATOM     23  O   UNL     1      35.004 -20.152 -24.151  0.00  0.00    -0.245 OA
ATOM     24  C   UNL     1      35.185 -18.552 -22.398  0.00  0.00    +0.091 A 
ATOM     25  C   UNL     1      34.990 -17.272 -22.026  0.00  0.00    +0.139 A 
ATOM     26  C   UNL     1      34.845 -18.993 -23.783  0.00  0.00    +0.345 A 
ATOM     27  C   UNL     1      34.451 -16.288 -22.967  0.00  0.00    +0.068 A 
ATOM     28  C   UNL     1      34.139 -16.702 -24.258  0.00  0.00    +0.152 A 
ATOM     29  C   UNL     1      34.230 -14.943 -22.639  0.00  0.00    +0.006 C 
ATOM     30  C   UNL     1      33.622 -15.828 -25.216  0.00  0.00    +0.038 C 
ATOM     31  C   UNL     1      33.712 -14.054 -23.588  0.00  0.00    +0.000 C 
ATOM     32  C   UNL     1      33.410 -14.496 -24.874  0.00  0.00    +0.003 C 
BRANCH  25  33
ATOM     33  O   UNL     1      35.265 -16.772 -20.771  0.00  0.00    -0.506 OA
ATOM     34  H   UNL     1      34.872 -15.970 -20.490  0.00  0.00    +0.292 HD
ENDBRANCH  25  33
ENDBRANCH  21  24
BRANCH  21  35
ATOM     35  C   UNL     1      36.950 -19.113 -20.727  0.00  0.00    +0.009 C 
ATOM     36  C   UNL     1      38.088 -18.635 -21.623  0.00  0.00    +0.001 C 
ENDBRANCH  21  35
ENDBRANCH   1  21
TORSDOF 9
ENDMDL
MODEL 3
REMARK VINA RESULT:      -9.9      3.514      6.092
REMARK  Name = 54689025
REMARK  9 active torsions:
REMARK  status: ('A' for Active; 'I' for Inactive)
REMARK    1  A    between atoms: C_1  and  C_21
REMARK    2  A    between atoms: C_4  and  N_8
REMARK    3  A    between atoms: C_9  and  C_11
REMARK    4  A    between atoms: C_11  and  N_13
REMARK    5  A    between atoms: C_14  and  O_16
REMARK    6  A    between atoms: O_16  and  C_17
REMARK    7  A    between atoms: C_21  and  C_24
REMARK    8  A    between atoms: C_21  and  C_35
REMARK    9  A    between atoms: C_25  and  O_33
REMARK                            x       y       z     vdW  Elec       q    Type
REMARK                         _______ _______ _______ _____ _____    ______ ____
ROOT
ATOM      1  C   UNL     1      33.031 -11.777 -22.693  0.00  0.00    -0.017 C 
ATOM      2  C   UNL     1      32.832 -10.415 -22.469  0.00  0.00    +0.011 C 
ATOM      3  C   UNL     1      32.249 -12.716 -22.020  0.00  0.00    -0.004 C 
ATOM      4  C   UNL     1      31.850  -9.991 -21.573  0.00  0.00    +0.050 C 
ATOM      5  C   UNL     1      31.268 -12.292 -21.123  0.00  0.00    +0.001 C 
ATOM      6  C   UNL     1      31.068 -10.930 -20.901  0.00  0.00    +0.015 C 
ENDROOT
BRANCH   4   8
ATOM      7  O   UNL     1      32.475  -8.303 -19.167  0.00  0.00    -0.273 OA
ATOM      8  N   UNL     1      31.652  -8.628 -21.348  0.00  0.00    -0.283 N 
ATOM      9  C   UNL     1      31.962  -7.883 -20.200  0.00  0.00    +0.246 C 
ATOM     10  H   UNL     1      31.243  -8.126 -22.090  0.00  0.00    +0.155 HD
BRANCH   9  11
ATOM     11  C   UNL     1      31.580  -6.425 -20.379  0.00  0.00    +0.179 C 
BRANCH  11  13
ATOM     12  O   UNL     1      30.524  -5.057 -22.714  0.00  0.00    -0.226 OA
ATOM     13  N   UNL     1      32.315  -5.845 -21.464  0.00  0.00    -0.262 N 
ATOM     14  C   UNL     1      31.731  -5.207 -22.546  0.00  0.00    +0.402 C 
ATOM     15  H   UNL     1      33.298  -5.904 -21.439  0.00  0.00    +0.153 HD
BRANCH  14  16
ATOM     16  O   UNL     1      32.695  -4.765 -23.407  0.00  0.00    -0.442 OA
BRANCH  16  17
ATOM     17  C   UNL     1      33.160  -5.720 -24.367  0.00  0.00    +0.138 C 
ATOM     18  C   UNL     1      34.592  -6.114 -24.006  0.00  0.00    +0.044 C 
ATOM     19  C   UNL     1      33.116  -5.051 -25.739  0.00  0.00    +0.044 C 
ATOM     20  C   UNL     1      32.235  -6.935 -24.331  0.00  0.00    +0.044 C 
ENDBRANCH  16  17
ENDBRANCH  14  16
ENDBRANCH  11  13
ENDBRANCH   9  11
ENDBRANCH   4   8
BRANCH   1  21
ATOM     21  C   UNL     1      34.099 -12.238 -23.668  0.00  0.00    +0.054 C 
BRANCH  21  24
ATOM     22  O   UNL     1      33.217 -15.476 -25.422  0.00  0.00    -0.421 OA
ATOM     23  O   UNL     1      32.894 -13.284 -25.939  0.00  0.00    -0.245 OA
ATOM     24  C   UNL     1      34.020 -13.725 -23.888  0.00  0.00    +0.091 A 
ATOM     25  C   UNL     1      34.500 -14.667 -23.055  0.00  0.00    +0.139 A 
ATOM     26  C   UNL     1      33.337 -14.118 -25.155  0.00  0.00    +0.345 A 
ATOM     27  C   UNL     1      34.358 -16.091 -23.366  0.00  0.00    +0.068 A 
ATOM     28  C   UNL     1      33.717 -16.454 -24.546  0.00  0.00    +0.152 A 
ATOM     29  C   UNL     1      34.834 -17.116 -22.537  0.00  0.00    +0.006 C 
ATOM     30  C   UNL     1      33.539 -17.788 -24.917  0.00  0.00    +0.038 C 
ATOM     31  C   UNL     1      34.664 -18.459 -22.895  0.00  0.00    +0.000 C 
ATOM     32  C   UNL     1      34.017 -18.793 -24.083  0.00  0.00    +0.003 C 
BRANCH  25  33
ATOM     33  O   UNL     1      35.152 -14.404 -21.868  0.00  0.00    -0.506 OA
ATOM     34  H   UNL     1      35.719 -15.048 -21.492  0.00  0.00    +0.292 HD
ENDBRANCH  25  33
ENDBRANCH  21  24
BRANCH  21  35
ATOM     35  C   UNL     1      34.058 -11.504 -25.024  0.00  0.00    +0.009 C 
ATOM     36  C   UNL     1      35.141 -10.439 -25.156  0.00  0.00    +0.001 C 
ENDBRANCH  21  35
ENDBRANCH   1  21
TORSDOF 9
ENDMDL
MODEL 4
REMARK VINA RESULT:      -9.4      2.541     11.546
REMARK  Name = 54689025
REMARK  9 active torsions:
REMARK  status: ('A' for Active; 'I' for Inactive)
REMARK    1  A    between atoms: C_1  and  C_21
REMARK    2  A    between atoms: C_4  and  N_8
REMARK    3  A    between atoms: C_9  and  C_11
REMARK    4  A    between atoms: C_11  and  N_13
REMARK    5  A    between atoms: C_14  and  O_16
REMARK    6  A    between atoms: O_16  and  C_17
REMARK    7  A    between atoms: C_21  and  C_24
REMARK    8  A    between atoms: C_21  and  C_35
REMARK    9  A    between atoms: C_25  and  O_33
REMARK                            x       y       z     vdW  Elec       q    Type
REMARK                         _______ _______ _______ _____ _____    ______ ____
ROOT
ATOM      1  C   UNL     1      32.327  -9.446 -21.100  0.00  0.00    -0.017 C 
ATOM      2  C   UNL     1      32.984 -10.351 -21.934  0.00  0.00    +0.011 C 
ATOM      3  C   UNL     1      31.123  -9.803 -20.494  0.00  0.00    -0.004 C 
ATOM      4  C   UNL     1      32.437 -11.614 -22.161  0.00  0.00    +0.050 C 
ATOM      5  C   UNL     1      30.575 -11.066 -20.721  0.00  0.00    +0.001 C 
ATOM      6  C   UNL     1      31.233 -11.971 -21.554  0.00  0.00    +0.015 C 
ENDROOT
BRANCH   4   8
ATOM      7  O   UNL     1      33.913 -14.148 -21.506  0.00  0.00    -0.273 OA
ATOM      8  N   UNL     1      33.093 -12.519 -22.995  0.00  0.00    -0.283 N 
ATOM      9  C   UNL     1      33.773 -13.695 -22.638  0.00  0.00    +0.246 C 
ATOM     10  H   UNL     1      33.077 -12.307 -23.957  0.00  0.00    +0.155 HD
BRANCH   9  11
ATOM     11  C   UNL     1      34.342 -14.386 -23.864  0.00  0.00    +0.179 C 
BRANCH  11  13
ATOM     12  O   UNL     1      33.691 -17.214 -24.007  0.00  0.00    -0.226 OA
ATOM     13  N   UNL     1      35.161 -15.497 -23.475  0.00  0.00    -0.262 N 
ATOM     14  C   UNL     1      34.772 -16.823 -23.577  0.00  0.00    +0.402 C 
ATOM     15  H   UNL     1      36.056 -15.306 -23.112  0.00  0.00    +0.153 HD
BRANCH  14  16
ATOM     16  O   UNL     1      35.770 -17.641 -23.127  0.00  0.00    -0.442 OA
BRANCH  16  17
ATOM     17  C   UNL     1      35.554 -18.242 -21.846  0.00  0.00    +0.138 C 
ATOM     18  C   UNL     1      35.024 -17.174 -20.890  0.00  0.00    +0.044 C 
ATOM     19  C   UNL     1      36.898 -18.781 -21.359  0.00  0.00    +0.044 C 
ATOM     20  C   UNL     1      34.545 -19.378 -22.007  0.00  0.00    +0.044 C 
ENDBRANCH  16  17
ENDBRANCH  14  16
ENDBRANCH  11  13
ENDBRANCH   9  11
ENDBRANCH   4   8
BRANCH   1  21
ATOM     21  C   UNL     1      32.923  -8.072 -20.853  0.00  0.00    +0.054 C 
BRANCH  21  24
ATOM     22  O   UNL     1      31.731  -6.110 -23.864  0.00  0.00    -0.421 OA
ATOM     23  O   UNL     1      30.657  -7.066 -22.101  0.00  0.00    -0.245 OA
ATOM     24  C   UNL     1      33.027  -7.292 -22.136  0.00  0.00    +0.091 A 
ATOM     25  C   UNL     1      34.169  -7.007 -22.789  0.00  0.00    +0.139 A 
ATOM     26  C   UNL     1      31.716  -6.829 -22.675  0.00  0.00    +0.345 A 
ATOM     27  C   UNL     1      34.151  -6.247 -24.040  0.00  0.00    +0.068 A 
ATOM     28  C   UNL     1      32.926  -5.819 -24.543  0.00  0.00    +0.152 A 
ATOM     29  C   UNL     1      35.306  -5.923 -24.767  0.00  0.00    +0.006 C 
ATOM     30  C   UNL     1      32.821  -5.091 -25.729  0.00  0.00    +0.038 C 
ATOM     31  C   UNL     1      35.218  -5.192 -25.957  0.00  0.00    +0.000 C 
ATOM     32  C   UNL     1      33.976  -4.778 -26.438  0.00  0.00    +0.003 C 
BRANCH  25  33
ATOM     33  O   UNL     1      35.427  -7.383 -22.367  0.00  0.00    -0.506 OA
ATOM     34  H   UNL     1      35.968  -7.912 -22.919  0.00  0.00    +0.292 HD
ENDBRANCH  25  33
ENDBRANCH  21  24
BRANCH  21  35
ATOM     35  C   UNL     1      32.158  -7.246 -19.797  0.00  0.00    +0.009 C 
ATOM     36  C   UNL     1      32.824  -5.908 -19.493  0.00  0.00    +0.001 C 
ENDBRANCH  21  35
ENDBRANCH   1  21
TORSDOF 9
ENDMDL
MODEL 5
REMARK VINA RESULT:      -9.2      4.498     11.549
REMARK  Name = 54689025
REMARK  9 active torsions:
REMARK  status: ('A' for Active; 'I' for Inactive)
REMARK    1  A    between atoms: C_1  and  C_21
REMARK    2  A    between atoms: C_4  and  N_8
REMARK    3  A    between atoms: C_9  and  C_11
REMARK    4  A    between atoms: C_11  and  N_13
REMARK    5  A    between atoms: C_14  and  O_16
REMARK    6  A    between atoms: O_16  and  C_17
REMARK    7  A    between atoms: C_21  and  C_24
REMARK    8  A    between atoms: C_21  and  C_35
REMARK    9  A    between atoms: C_25  and  O_33
REMARK                            x       y       z     vdW  Elec       q    Type
REMARK                         _______ _______ _______ _____ _____    ______ ____
ROOT
ATOM      1  C   UNL     1      34.864 -19.780 -21.385  0.00  0.00    -0.017 C 
ATOM      2  C   UNL     1      35.590 -20.380 -20.356  0.00  0.00    +0.011 C 
ATOM      3  C   UNL     1      33.470 -19.846 -21.385  0.00  0.00    -0.004 C 
ATOM      4  C   UNL     1      34.923 -21.044 -19.327  0.00  0.00    +0.050 C 
ATOM      5  C   UNL     1      32.803 -20.511 -20.356  0.00  0.00    +0.001 C 
ATOM      6  C   UNL     1      33.530 -21.110 -19.327  0.00  0.00    +0.015 C 
ENDROOT
BRANCH   4   8
ATOM      7  O   UNL     1      33.996 -22.711 -17.005  0.00  0.00    -0.273 OA
ATOM      8  N   UNL     1      35.650 -21.645 -18.298  0.00  0.00    -0.283 N 
ATOM      9  C   UNL     1      35.166 -22.418 -17.230  0.00  0.00    +0.246 C 
ATOM     10  H   UNL     1      36.625 -21.510 -18.325  0.00  0.00    +0.155 HD
BRANCH   9  11
ATOM     11  C   UNL     1      36.303 -22.880 -16.336  0.00  0.00    +0.179 C 
BRANCH  11  13
ATOM     12  O   UNL     1      36.821 -25.448 -15.081  0.00  0.00    -0.226 OA
ATOM     13  N   UNL     1      35.791 -23.367 -15.089  0.00  0.00    -0.262 N 
ATOM     14  C   UNL     1      36.090 -24.612 -14.559  0.00  0.00    +0.402 C 
ATOM     15  H   UNL     1      35.190 -22.780 -14.576  0.00  0.00    +0.153 HD
BRANCH  14  16
ATOM     16  O   UNL     1      35.450 -24.779 -13.363  0.00  0.00    -0.442 OA
BRANCH  16  17
ATOM     17  C   UNL     1      36.288 -24.768 -12.202  0.00  0.00    +0.138 C 
ATOM     18  C   UNL     1      35.403 -24.614 -10.965  0.00  0.00    +0.044 C 
ATOM     19  C   UNL     1      37.240 -23.580 -12.333  0.00  0.00    +0.044 C 
ATOM     20  C   UNL     1      37.069 -26.080 -12.153  0.00  0.00    +0.044 C 
ENDBRANCH  16  17
ENDBRANCH  14  16
ENDBRANCH  11  13
ENDBRANCH   9  11
ENDBRANCH   4   8
BRANCH   1  21
ATOM     21  C   UNL     1      35.589 -19.056 -22.505  0.00  0.00    +0.054 C 
BRANCH  21  24
ATOM     22  O   UNL     1      34.551 -15.560 -21.491  0.00  0.00    -0.421 OA
ATOM     23  O   UNL     1      35.433 -17.317 -20.347  0.00  0.00    -0.245 OA
ATOM     24  C   UNL     1      35.059 -17.658 -22.674  0.00  0.00    +0.091 A 
ATOM     25  C   UNL     1      34.624 -17.119 -23.829  0.00  0.00    +0.139 A 
ATOM     26  C   UNL     1      35.038 -16.858 -21.415  0.00  0.00    +0.345 A 
ATOM     27  C   UNL     1      34.117 -15.746 -23.874  0.00  0.00    +0.068 A 
ATOM     28  C   UNL     1      34.095 -15.004 -22.698  0.00  0.00    +0.152 A 
ATOM     29  C   UNL     1      33.648 -15.132 -25.044  0.00  0.00    +0.006 C 
ATOM     30  C   UNL     1      33.627 -13.689 -22.655  0.00  0.00    +0.038 C 
ATOM     31  C   UNL     1      33.176 -13.815 -25.018  0.00  0.00    +0.000 C 
ATOM     32  C   UNL     1      33.165 -13.096 -23.825  0.00  0.00    +0.003 C 
BRANCH  25  33
ATOM     33  O   UNL     1      34.611 -17.774 -25.042  0.00  0.00    -0.506 OA
ATOM     34  H   UNL     1      35.222 -17.535 -25.711  0.00  0.00    +0.292 HD
ENDBRANCH  25  33
ENDBRANCH  21  24
BRANCH  21  35
ATOM     35  C   UNL     1      37.121 -19.019 -22.327  0.00  0.00    +0.009 C 
ATOM     36  C   UNL     1      37.548 -18.902 -20.868  0.00  0.00    +0.001 C 
ENDBRANCH  21  35
ENDBRANCH   1  21
TORSDOF 9
ENDMDL
MODEL 6
REMARK VINA RESULT:      -9.0      5.513     10.183
REMARK  Name = 54689025
REMARK  9 active torsions:
REMARK  status: ('A' for Active; 'I' for Inactive)
REMARK    1  A    between atoms: C_1  and  C_21
REMARK    2  A    between atoms: C_4  and  N_8
REMARK    3  A    between atoms: C_9  and  C_11
REMARK    4  A    between atoms: C_11  and  N_13
REMARK    5  A    between atoms: C_14  and  O_16
REMARK    6  A    between atoms: O_16  and  C_17
REMARK    7  A    between atoms: C_21  and  C_24
REMARK    8  A    between atoms: C_21  and  C_35
REMARK    9  A    between atoms: C_25  and  O_33
REMARK                            x       y       z     vdW  Elec       q    Type
REMARK                         _______ _______ _______ _____ _____    ______ ____
ROOT
ATOM      1  C   UNL     1      32.289 -24.000 -15.566  0.00  0.00    -0.017 C 
ATOM      2  C   UNL     1      33.293 -23.696 -16.485  0.00  0.00    +0.011 C 
ATOM      3  C   UNL     1      31.060 -23.342 -15.631  0.00  0.00    -0.004 C 
ATOM      4  C   UNL     1      33.068 -22.735 -17.471  0.00  0.00    +0.050 C 
ATOM      5  C   UNL     1      30.836 -22.380 -16.617  0.00  0.00    +0.001 C 
ATOM      6  C   UNL     1      31.840 -22.077 -17.537  0.00  0.00    +0.015 C 
ENDROOT
BRANCH   4   8
ATOM      7  O   UNL     1      35.925 -21.915 -17.034  0.00  0.00    -0.273 OA
ATOM      8  N   UNL     1      34.072 -22.430 -18.391  0.00  0.00    -0.283 N 
ATOM      9  C   UNL     1      35.399 -22.049 -18.134  0.00  0.00    +0.246 C 
ATOM     10  H   UNL     1      33.818 -22.491 -19.340  0.00  0.00    +0.155 HD
BRANCH   9  11
ATOM     11  C   UNL     1      36.156 -21.812 -19.429  0.00  0.00    +0.179 C 
BRANCH  11  13
ATOM     12  O   UNL     1      33.820 -20.587 -20.646  0.00  0.00    -0.226 OA
ATOM     13  N   UNL     1      35.999 -20.453 -19.857  0.00  0.00    -0.262 N 
ATOM     14  C   UNL     1      34.845 -19.947 -20.431  0.00  0.00    +0.402 C 
ATOM     15  H   UNL     1      36.760 -19.840 -19.735  0.00  0.00    +0.153 HD
BRANCH  14  16
ATOM     16  O   UNL     1      35.010 -18.624 -20.728  0.00  0.00    -0.442 OA
BRANCH  16  17
ATOM     17  C   UNL     1      35.502 -18.336 -22.042  0.00  0.00    +0.138 C 
ATOM     18  C   UNL     1      37.006 -18.605 -22.067  0.00  0.00    +0.044 C 
ATOM     19  C   UNL     1      35.214 -16.863 -22.327  0.00  0.00    +0.044 C 
ATOM     20  C   UNL     1      34.771 -19.230 -23.042  0.00  0.00    +0.044 C 
ENDBRANCH  16  17
ENDBRANCH  14  16
ENDBRANCH  11  13
ENDBRANCH   9  11
ENDBRANCH   4   8
BRANCH   1  21
ATOM     21  C   UNL     1      32.533 -25.046 -14.493  0.00  0.00    +0.054 C 
BRANCH  21  24
ATOM     22  O   UNL     1      34.705 -23.468 -11.824  0.00  0.00    -0.421 OA
ATOM     23  O   UNL     1      32.485 -23.341 -12.304  0.00  0.00    -0.245 OA
ATOM     24  C   UNL     1      33.788 -24.742 -13.721  0.00  0.00    +0.091 A 
ATOM     25  C   UNL     1      35.012 -25.236 -13.989  0.00  0.00    +0.139 A 
ATOM     26  C   UNL     1      33.588 -23.804 -12.579  0.00  0.00    +0.345 A 
ATOM     27  C   UNL     1      36.169 -24.861 -13.173  0.00  0.00    +0.068 A 
ATOM     28  C   UNL     1      35.980 -23.984 -12.111  0.00  0.00    +0.152 A 
ATOM     29  C   UNL     1      37.467 -25.339 -13.404  0.00  0.00    +0.006 C 
ATOM     30  C   UNL     1      37.030 -23.576 -11.285  0.00  0.00    +0.038 C 
ATOM     31  C   UNL     1      38.530 -24.941 -12.586  0.00  0.00    +0.000 C 
ATOM     32  C   UNL     1      38.311 -24.059 -11.529  0.00  0.00    +0.003 C 
BRANCH  25  33
ATOM     33  O   UNL     1      35.296 -26.112 -15.015  0.00  0.00    -0.506 OA
ATOM     34  H   UNL     1      35.423 -25.789 -15.885  0.00  0.00    +0.292 HD
ENDBRANCH  25  33
ENDBRANCH  21  24
BRANCH  21  35
ATOM     35  C   UNL     1      31.349 -25.224 -13.521  0.00  0.00    +0.009 C 
ATOM     36  C   UNL     1      30.069 -25.672 -14.219  0.00  0.00    +0.001 C 
ENDBRANCH  21  35
ENDBRANCH   1  21
TORSDOF 9
ENDMDL
MODEL 7
REMARK VINA RESULT:      -9.0      5.443     10.072
REMARK  Name = 54689025
REMARK  9 active torsions:
REMARK  status: ('A' for Active; 'I' for Inactive)
REMARK    1  A    between atoms: C_1  and  C_21
REMARK    2  A    between atoms: C_4  and  N_8
REMARK    3  A    between atoms: C_9  and  C_11
REMARK    4  A    between atoms: C_11  and  N_13
REMARK    5  A    between atoms: C_14  and  O_16
REMARK    6  A    between atoms: O_16  and  C_17
REMARK    7  A    between atoms: C_21  and  C_24
REMARK    8  A    between atoms: C_21  and  C_35
REMARK    9  A    between atoms: C_25  and  O_33
REMARK                            x       y       z     vdW  Elec       q    Type
REMARK                         _______ _______ _______ _____ _____    ______ ____
ROOT
ATOM      1  C   UNL     1      32.617 -24.040 -15.548  0.00  0.00    -0.017 C 
ATOM      2  C   UNL     1      33.582 -23.691 -16.492  0.00  0.00    +0.011 C 
ATOM      3  C   UNL     1      31.357 -23.442 -15.584  0.00  0.00    -0.004 C 
ATOM      4  C   UNL     1      33.288 -22.745 -17.474  0.00  0.00    +0.050 C 
ATOM      5  C   UNL     1      31.063 -22.495 -16.565  0.00  0.00    +0.001 C 
ATOM      6  C   UNL     1      32.028 -22.147 -17.510  0.00  0.00    +0.015 C 
ENDROOT
BRANCH   4   8
ATOM      7  O   UNL     1      36.120 -21.811 -17.109  0.00  0.00    -0.273 OA
ATOM      8  N   UNL     1      34.253 -22.395 -18.419  0.00  0.00    -0.283 N 
ATOM      9  C   UNL     1      35.570 -21.962 -18.196  0.00  0.00    +0.246 C 
ATOM     10  H   UNL     1      33.976 -22.462 -19.361  0.00  0.00    +0.155 HD
BRANCH   9  11
ATOM     11  C   UNL     1      36.281 -21.688 -19.508  0.00  0.00    +0.179 C 
BRANCH  11  13
ATOM     12  O   UNL     1      33.859 -20.555 -20.644  0.00  0.00    -0.226 OA
ATOM     13  N   UNL     1      36.056 -20.334 -19.926  0.00  0.00    -0.262 N 
ATOM     14  C   UNL     1      34.864 -19.874 -20.460  0.00  0.00    +0.402 C 
ATOM     15  H   UNL     1      36.795 -19.692 -19.826  0.00  0.00    +0.153 HD
BRANCH  14  16
ATOM     16  O   UNL     1      34.965 -18.544 -20.756  0.00  0.00    -0.442 OA
BRANCH  16  17
ATOM     17  C   UNL     1      35.398 -18.232 -22.085  0.00  0.00    +0.138 C 
ATOM     18  C   UNL     1      36.896 -18.518 -22.189  0.00  0.00    +0.044 C 
ATOM     19  C   UNL     1      35.115 -16.750 -22.324  0.00  0.00    +0.044 C 
ATOM     20  C   UNL     1      34.609 -19.096 -23.069  0.00  0.00    +0.044 C 
ENDBRANCH  16  17
ENDBRANCH  14  16
ENDBRANCH  11  13
ENDBRANCH   9  11
ENDBRANCH   4   8
BRANCH   1  21
ATOM     21  C   UNL     1      32.938 -25.071 -14.480  0.00  0.00    +0.054 C 
BRANCH  21  24
ATOM     22  O   UNL     1      36.693 -25.408 -14.143  0.00  0.00    -0.421 OA
ATOM     23  O   UNL     1      35.175 -26.271 -15.601  0.00  0.00    -0.245 OA
ATOM     24  C   UNL     1      34.309 -24.841 -13.905  0.00  0.00    +0.091 A 
ATOM     25  C   UNL     1      34.594 -24.068 -12.840  0.00  0.00    +0.139 A 
ATOM     26  C   UNL     1      35.399 -25.564 -14.623  0.00  0.00    +0.345 A 
ATOM     27  C   UNL     1      35.969 -23.925 -12.360  0.00  0.00    +0.068 A 
ATOM     28  C   UNL     1      36.983 -24.603 -13.029  0.00  0.00    +0.152 A 
ATOM     29  C   UNL     1      36.326 -23.138 -11.256  0.00  0.00    +0.006 C 
ATOM     30  C   UNL     1      38.320 -24.521 -12.636  0.00  0.00    +0.038 C 
ATOM     31  C   UNL     1      37.662 -23.044 -10.849  0.00  0.00    +0.000 C 
ATOM     32  C   UNL     1      38.657 -23.736 -11.538  0.00  0.00    +0.003 C 
BRANCH  25  33
ATOM     33  O   UNL     1      33.659 -23.356 -12.118  0.00  0.00    -0.506 OA
ATOM     34  H   UNL     1      33.914 -22.904 -11.338  0.00  0.00    +0.292 HD
ENDBRANCH  25  33
ENDBRANCH  21  24
BRANCH  21  35
ATOM     35  C   UNL     1      31.896 -25.130 -13.344  0.00  0.00    +0.009 C 
ATOM     36  C   UNL     1      30.510 -25.545 -13.829  0.00  0.00    +0.001 C 
ENDBRANCH  21  35
ENDBRANCH   1  21
TORSDOF 9
ENDMDL
MODEL 8
REMARK VINA RESULT:      -8.9      2.331     10.680
REMARK  Name = 54689025
REMARK  9 active torsions:
REMARK  status: ('A' for Active; 'I' for Inactive)
REMARK    1  A    between atoms: C_1  and  C_21
REMARK    2  A    between atoms: C_4  and  N_8
REMARK    3  A    between atoms: C_9  and  C_11
REMARK    4  A    between atoms: C_11  and  N_13
REMARK    5  A    between atoms: C_14  and  O_16
REMARK    6  A    between atoms: O_16  and  C_17
REMARK    7  A    between atoms: C_21  and  C_24
REMARK    8  A    between atoms: C_21  and  C_35
REMARK    9  A    between atoms: C_25  and  O_33
REMARK                            x       y       z     vdW  Elec       q    Type
REMARK                         _______ _______ _______ _____ _____    ______ ____
ROOT
ATOM      1  C   UNL     1      33.265 -12.234 -23.705  0.00  0.00    -0.017 C 
ATOM      2  C   UNL     1      33.132 -13.619 -23.612  0.00  0.00    +0.011 C 
ATOM      3  C   UNL     1      33.448 -11.632 -24.950  0.00  0.00    -0.004 C 
ATOM      4  C   UNL     1      33.181 -14.403 -24.765  0.00  0.00    +0.050 C 
ATOM      5  C   UNL     1      33.499 -12.416 -26.103  0.00  0.00    +0.001 C 
ATOM      6  C   UNL     1      33.364 -13.801 -26.010  0.00  0.00    +0.015 C 
ENDROOT
BRANCH   4   8
ATOM      7  O   UNL     1      35.078 -16.596 -25.550  0.00  0.00    -0.273 OA
ATOM      8  N   UNL     1      33.049 -15.789 -24.673  0.00  0.00    -0.283 N 
ATOM      9  C   UNL     1      33.970 -16.777 -25.056  0.00  0.00    +0.246 C 
ATOM     10  H   UNL     1      32.203 -16.115 -24.289  0.00  0.00    +0.155 HD
BRANCH   9  11
ATOM     11  C   UNL     1      33.423 -18.166 -24.779  0.00  0.00    +0.179 C 
BRANCH  11  13
ATOM     12  O   UNL     1      35.263 -20.295 -24.057  0.00  0.00    -0.226 OA
ATOM     13  N   UNL     1      33.796 -18.596 -23.463  0.00  0.00    -0.262 N 
ATOM     14  C   UNL     1      34.686 -19.626 -23.206  0.00  0.00    +0.402 C 
ATOM     15  H   UNL     1      33.394 -18.130 -22.694  0.00  0.00    +0.153 HD
BRANCH  14  16
ATOM     16  O   UNL     1      34.832 -19.793 -21.857  0.00  0.00    -0.442 OA
BRANCH  16  17
ATOM     17  C   UNL     1      35.887 -19.042 -21.246  0.00  0.00    +0.138 C 
ATOM     18  C   UNL     1      36.976 -18.797 -22.289  0.00  0.00    +0.044 C 
ATOM     19  C   UNL     1      36.430 -19.874 -20.086  0.00  0.00    +0.044 C 
ATOM     20  C   UNL     1      35.312 -17.720 -20.738  0.00  0.00    +0.044 C 
ENDBRANCH  16  17
ENDBRANCH  14  16
ENDBRANCH  11  13
ENDBRANCH   9  11
ENDBRANCH   4   8
BRANCH   1  21
ATOM     21  C   UNL     1      33.211 -11.380 -22.450  0.00  0.00    +0.054 C 
BRANCH  21  24
ATOM     22  O   UNL     1      31.553  -7.994 -22.794  0.00  0.00    -0.421 OA
ATOM     23  O   UNL     1      30.846 -10.002 -21.991  0.00  0.00    -0.245 OA
ATOM     24  C   UNL     1      33.085  -9.922 -22.797  0.00  0.00    +0.091 A 
ATOM     25  C   UNL     1      34.053  -9.159 -23.340  0.00  0.00    +0.139 A 
ATOM     26  C   UNL     1      31.748  -9.336 -22.492  0.00  0.00    +0.345 A 
ATOM     27  C   UNL     1      33.815  -7.747 -23.647  0.00  0.00    +0.068 A 
ATOM     28  C   UNL     1      32.566  -7.204 -23.364  0.00  0.00    +0.152 A 
ATOM     29  C   UNL     1      34.781  -6.904 -24.215  0.00  0.00    +0.006 C 
ATOM     30  C   UNL     1      32.256  -5.869 -23.626  0.00  0.00    +0.038 C 
ATOM     31  C   UNL     1      34.487  -5.562 -24.483  0.00  0.00    +0.000 C 
ATOM     32  C   UNL     1      33.226  -5.046 -24.190  0.00  0.00    +0.003 C 
BRANCH  25  33
ATOM     33  O   UNL     1      35.320  -9.605 -23.651  0.00  0.00    -0.506 OA
ATOM     34  H   UNL     1      36.022  -8.993 -23.750  0.00  0.00    +0.292 HD
ENDBRANCH  25  33
ENDBRANCH  21  24
BRANCH  21  35
ATOM     35  C   UNL     1      32.088 -11.786 -21.473  0.00  0.00    +0.009 C 
ATOM     36  C   UNL     1      32.460 -12.985 -20.606  0.00  0.00    +0.001 C 
ENDBRANCH  21  35
ENDBRANCH   1  21
TORSDOF 9
ENDMDL
MODEL 9
REMARK VINA RESULT:      -8.8      2.578      4.657
REMARK  Name = 54689025
REMARK  9 active torsions:
REMARK  status: ('A' for Active; 'I' for Inactive)
REMARK    1  A    between atoms: C_1  and  C_21
REMARK    2  A    between atoms: C_4  and  N_8
REMARK    3  A    between atoms: C_9  and  C_11
REMARK    4  A    between atoms: C_11  and  N_13
REMARK    5  A    between atoms: C_14  and  O_16
REMARK    6  A    between atoms: O_16  and  C_17
REMARK    7  A    between atoms: C_21  and  C_24
REMARK    8  A    between atoms: C_21  and  C_35
REMARK    9  A    between atoms: C_25  and  O_33
REMARK                            x       y       z     vdW  Elec       q    Type
REMARK                         _______ _______ _______ _____ _____    ______ ____
ROOT
ATOM      1  C   UNL     1      33.369 -13.136 -23.870  0.00  0.00    -0.017 C 
ATOM      2  C   UNL     1      33.795 -11.814 -23.995  0.00  0.00    +0.011 C 
ATOM      3  C   UNL     1      32.538 -13.504 -22.812  0.00  0.00    -0.004 C 
ATOM      4  C   UNL     1      33.389 -10.859 -23.063  0.00  0.00    +0.050 C 
ATOM      5  C   UNL     1      32.133 -12.550 -21.879  0.00  0.00    +0.001 C 
ATOM      6  C   UNL     1      32.558 -11.228 -22.005  0.00  0.00    +0.015 C 
ENDROOT
BRANCH   4   8
ATOM      7  O   UNL     1      35.741  -9.701 -24.530  0.00  0.00    -0.273 OA
ATOM      8  N   UNL     1      33.815  -9.536 -23.187  0.00  0.00    -0.283 N 
ATOM      9  C   UNL     1      34.928  -9.044 -23.887  0.00  0.00    +0.246 C 
ATOM     10  H   UNL     1      33.265  -8.862 -22.726  0.00  0.00    +0.155 HD
BRANCH   9  11
ATOM     11  C   UNL     1      35.024  -7.534 -23.763  0.00  0.00    +0.179 C 
BRANCH  11  13
ATOM     12  O   UNL     1      32.990  -5.466 -23.917  0.00  0.00    -0.226 OA
ATOM     13  N   UNL     1      34.168  -7.064 -22.713  0.00  0.00    -0.262 N 
ATOM     14  C   UNL     1      33.219  -6.068 -22.872  0.00  0.00    +0.402 C 
ATOM     15  H   UNL     1      34.260  -7.475 -21.823  0.00  0.00    +0.153 HD
BRANCH  14  16
ATOM     16  O   UNL     1      32.567  -5.848 -21.691  0.00  0.00    -0.442 OA
BRANCH  16  17
ATOM     17  C   UNL     1      31.362  -6.597 -21.495  0.00  0.00    +0.138 C 
ATOM     18  C   UNL     1      30.989  -7.272 -22.814  0.00  0.00    +0.044 C 
ATOM     19  C   UNL     1      30.274  -5.613 -21.068  0.00  0.00    +0.044 C 
ATOM     20  C   UNL     1      31.608  -7.635 -20.401  0.00  0.00    +0.044 C 
ENDBRANCH  16  17
ENDBRANCH  14  16
ENDBRANCH  11  13
ENDBRANCH   9  11
ENDBRANCH   4   8
BRANCH   1  21
ATOM     21  C   UNL     1      33.810 -14.174 -24.886  0.00  0.00    +0.054 C 
BRANCH  21  24
ATOM     22  O   UNL     1      33.607 -17.926 -24.422  0.00  0.00    -0.421 OA
ATOM     23  O   UNL     1      32.853 -16.512 -26.035  0.00  0.00    -0.245 OA
ATOM     24  C   UNL     1      34.033 -15.509 -24.228  0.00  0.00    +0.091 A 
ATOM     25  C   UNL     1      34.689 -15.712 -23.069  0.00  0.00    +0.139 A 
ATOM     26  C   UNL     1      33.450 -16.662 -24.974  0.00  0.00    +0.345 A 
ATOM     27  C   UNL     1      34.837 -17.059 -22.514  0.00  0.00    +0.068 A 
ATOM     28  C   UNL     1      34.289 -18.131 -23.210  0.00  0.00    +0.152 A 
ATOM     29  C   UNL     1      35.505 -17.332 -21.312  0.00  0.00    +0.006 C 
ATOM     30  C   UNL     1      34.385 -19.445 -22.750  0.00  0.00    +0.038 C 
ATOM     31  C   UNL     1      35.611 -18.644 -20.837  0.00  0.00    +0.000 C 
ATOM     32  C   UNL     1      35.051 -19.699 -21.555  0.00  0.00    +0.003 C 
BRANCH  25  33
ATOM     33  O   UNL     1      35.267 -14.715 -22.312  0.00  0.00    -0.506 OA
ATOM     34  H   UNL     1      34.974 -14.561 -21.436  0.00  0.00    +0.292 HD
ENDBRANCH  25  33
ENDBRANCH  21  24
BRANCH  21  35
ATOM     35  C   UNL     1      32.838 -14.331 -26.074  0.00  0.00    +0.009 C 
ATOM     36  C   UNL     1      32.717 -13.064 -26.914  0.00  0.00    +0.001 C 
ENDBRANCH  21  35
ENDBRANCH   1  21
TORSDOF 9
ENDMDL
