MODEL 1
REMARK VINA RESULT:     -12.5      0.000      0.000
REMARK  Name = 10407120
REMARK  4 active torsions:
REMARK  status: ('A' for Active; 'I' for Inactive)
REMARK    1  A    between atoms: N_2  and  C_19
REMARK    2  A    between atoms: C_3  and  C_6
REMARK    3  A    between atoms: C_5  and  C_16
REMARK    4  A    between atoms: C_19  and  C_21
REMARK                            x       y       z     vdW  Elec       q    Type
REMARK                         _______ _______ _______ _____ _____    ______ ____
ROOT
ATOM      1  O   UNL     1      34.501 -16.116 -25.741  0.00  0.00    -0.270 OA
ATOM      2  N   UNL     1      33.481 -14.476 -24.447  0.00  0.00    -0.267 N 
ATOM      3  C   UNL     1      34.205 -15.656 -24.637  0.00  0.00    +0.250 C 
ATOM      4  C   UNL     1      33.033 -13.719 -25.608  0.00  0.00    +0.116 C 
ENDROOT
BRANCH   3   6
ATOM      5  C   UNL     1      34.895 -17.711 -23.453  0.00  0.00    +0.006 C 
ATOM      6  C   UNL     1      34.601 -16.391 -23.399  0.00  0.00    +0.058 C 
BRANCH   5  16
ATOM      7  O   UNL     1      35.992 -22.390 -17.433  0.00  0.00    -0.275 OA
ATOM      8  N   UNL     1      36.435 -20.840 -19.069  0.00  0.00    -0.270 N 
ATOM      9  N   UNL     1      36.967 -19.303 -20.786  0.00  0.00    -0.229 NA
ATOM     10  C   UNL     1      33.693 -20.889 -19.786  0.00  0.00    +0.039 C 
ATOM     11  C   UNL     1      34.697 -20.108 -20.577  0.00  0.00    +0.010 C 
ATOM     12  C   UNL     1      34.339 -22.108 -19.146  0.00  0.00    +0.090 C 
ATOM     13  C   UNL     1      36.032 -20.070 -20.178  0.00  0.00    +0.130 C 
ATOM     14  C   UNL     1      34.316 -19.318 -21.663  0.00  0.00    +0.000 C 
ATOM     15  C   UNL     1      35.641 -21.780 -18.442  0.00  0.00    +0.227 C 
ATOM     16  C   UNL     1      35.262 -18.538 -22.317  0.00  0.00    +0.019 C 
ATOM     17  C   UNL     1      36.560 -18.563 -21.843  0.00  0.00    +0.100 C 
ATOM     18  H   UNL     1      37.343 -20.698 -18.717  0.00  0.00    +0.156 HD
ENDBRANCH   5  16
ENDBRANCH   3   6
BRANCH   2  19
ATOM     19  C   UNL     1      33.089 -13.930 -23.149  0.00  0.00    +0.158 C 
BRANCH  19  21
ATOM     20  O   UNL     1      34.258 -11.953 -23.844  0.00  0.00    -0.456 OA
ATOM     21  C   UNL     1      33.251 -12.439 -23.095  0.00  0.00    +0.139 A 
ATOM     22  C   UNL     1      32.575 -11.470 -22.433  0.00  0.00    +0.013 A 
ATOM     23  C   UNL     1      33.208 -10.252 -22.792  0.00  0.00    +0.033 A 
ATOM     24  C   UNL     1      34.237 -10.603 -23.661  0.00  0.00    +0.145 A 
ATOM     25  C   UNL     1      31.421 -11.636 -21.526  0.00  0.00    +0.034 C 
ATOM     26  C   UNL     1      33.027  -8.893 -22.480  0.00  0.00    +0.003 C 
ATOM     27  C   UNL     1      35.109  -9.689 -24.250  0.00  0.00    +0.037 C 
ATOM     28  C   UNL     1      33.889  -7.950 -23.057  0.00  0.00    +0.000 C 
ATOM     29  C   UNL     1      34.911  -8.344 -23.925  0.00  0.00    +0.003 C 
ENDBRANCH  19  21
ENDBRANCH   2  19
TORSDOF 4
ENDMDL
MODEL 2
REMARK VINA RESULT:     -12.5      1.588      2.530
REMARK  Name = 10407120
REMARK  4 active torsions:
REMARK  status: ('A' for Active; 'I' for Inactive)
REMARK    1  A    between atoms: N_2  and  C_19
REMARK    2  A    between atoms: C_3  and  C_6
REMARK    3  A    between atoms: C_5  and  C_16
REMARK    4  A    between atoms: C_19  and  C_21
REMARK                            x       y       z     vdW  Elec       q    Type
REMARK                         _______ _______ _______ _____ _____    ______ ____
ROOT
ATOM      1  O   UNL     1      33.204 -17.674 -25.267  0.00  0.00    -0.270 OA
ATOM      2  N   UNL     1      34.104 -15.602 -24.719  0.00  0.00    -0.267 N 
ATOM      3  C   UNL     1      33.881 -16.967 -24.519  0.00  0.00    +0.250 C 
ATOM      4  C   UNL     1      33.512 -14.943 -25.876  0.00  0.00    +0.116 C 
ENDROOT
BRANCH   3   6
ATOM      5  C   UNL     1      34.168 -18.817 -22.907  0.00  0.00    +0.006 C 
ATOM      6  C   UNL     1      34.496 -17.561 -23.295  0.00  0.00    +0.058 C 
BRANCH   5  16
ATOM      7  O   UNL     1      36.027 -22.730 -16.538  0.00  0.00    -0.275 OA
ATOM      8  N   UNL     1      36.239 -21.343 -18.357  0.00  0.00    -0.270 N 
ATOM      9  N   UNL     1      36.535 -19.974 -20.263  0.00  0.00    -0.229 NA
ATOM     10  C   UNL     1      33.463 -21.641 -18.843  0.00  0.00    +0.039 C 
ATOM     11  C   UNL     1      34.349 -20.891 -19.790  0.00  0.00    +0.010 C 
ATOM     12  C   UNL     1      34.238 -22.740 -18.133  0.00  0.00    +0.090 C 
ATOM     13  C   UNL     1      35.704 -20.727 -19.504  0.00  0.00    +0.130 C 
ATOM     14  C   UNL     1      33.835 -20.250 -20.918  0.00  0.00    +0.000 C 
ATOM     15  C   UNL     1      35.561 -22.257 -17.574  0.00  0.00    +0.227 C 
ATOM     16  C   UNL     1      34.674 -19.489 -21.724  0.00  0.00    +0.019 C 
ATOM     17  C   UNL     1      36.002 -19.381 -21.355  0.00  0.00    +0.100 C 
ATOM     18  H   UNL     1      37.158 -21.108 -18.096  0.00  0.00    +0.156 HD
ENDBRANCH   5  16
ENDBRANCH   3   6
BRANCH   2  19
ATOM     19  C   UNL     1      34.876 -14.737 -23.828  0.00  0.00    +0.158 C 
BRANCH  19  21
ATOM     20  O   UNL     1      33.433 -14.146 -22.003  0.00  0.00    -0.456 OA
ATOM     21  C   UNL     1      34.009 -13.721 -23.143  0.00  0.00    +0.139 A 
ATOM     22  C   UNL     1      33.687 -12.441 -23.449  0.00  0.00    +0.013 A 
ATOM     23  C   UNL     1      32.825 -12.008 -22.407  0.00  0.00    +0.033 A 
ATOM     24  C   UNL     1      32.700 -13.093 -21.545  0.00  0.00    +0.145 A 
ATOM     25  C   UNL     1      34.133 -11.654 -24.615  0.00  0.00    +0.034 C 
ATOM     26  C   UNL     1      32.137 -10.822 -22.099  0.00  0.00    +0.003 C 
ATOM     27  C   UNL     1      31.931 -13.083 -20.383  0.00  0.00    +0.037 C 
ATOM     28  C   UNL     1      31.355 -10.781 -20.936  0.00  0.00    +0.000 C 
ATOM     29  C   UNL     1      31.255 -11.893 -20.096  0.00  0.00    +0.003 C 
ENDBRANCH  19  21
ENDBRANCH   2  19
TORSDOF 4
ENDMDL
MODEL 3
REMARK VINA RESULT:     -12.2      1.849      2.592
REMARK  Name = 10407120
REMARK  4 active torsions:
REMARK  status: ('A' for Active; 'I' for Inactive)
REMARK    1  A    between atoms: N_2  and  C_19
REMARK    2  A    between atoms: C_3  and  C_6
REMARK    3  A    between atoms: C_5  and  C_16
REMARK    4  A    between atoms: C_19  and  C_21
REMARK                            x       y       z     vdW  Elec       q    Type
REMARK                         _______ _______ _______ _____ _____    ______ ____
ROOT
ATOM      1  O   UNL     1      33.222 -17.739 -25.301  0.00  0.00    -0.270 OA
ATOM      2  N   UNL     1      34.153 -15.690 -24.718  0.00  0.00    -0.267 N 
ATOM      3  C   UNL     1      33.925 -17.059 -24.552  0.00  0.00    +0.250 C 
ATOM      4  C   UNL     1      33.534 -14.994 -25.838  0.00  0.00    +0.116 C 
ENDROOT
BRANCH   3   6
ATOM      5  C   UNL     1      34.048 -18.821 -22.825  0.00  0.00    +0.006 C 
ATOM      6  C   UNL     1      34.569 -17.693 -23.364  0.00  0.00    +0.058 C 
BRANCH   5  16
ATOM      7  O   UNL     1      35.963 -22.817 -16.524  0.00  0.00    -0.275 OA
ATOM      8  N   UNL     1      36.162 -21.414 -18.332  0.00  0.00    -0.270 N 
ATOM      9  N   UNL     1      36.443 -20.028 -20.228  0.00  0.00    -0.229 NA
ATOM     10  C   UNL     1      33.376 -21.681 -18.780  0.00  0.00    +0.039 C 
ATOM     11  C   UNL     1      34.255 -20.929 -19.732  0.00  0.00    +0.010 C 
ATOM     12  C   UNL     1      34.151 -22.794 -18.093  0.00  0.00    +0.090 C 
ATOM     13  C   UNL     1      35.615 -20.780 -19.465  0.00  0.00    +0.130 C 
ATOM     14  C   UNL     1      33.731 -20.272 -20.846  0.00  0.00    +0.000 C 
ATOM     15  C   UNL     1      35.486 -22.329 -17.549  0.00  0.00    +0.227 C 
ATOM     16  C   UNL     1      34.565 -19.510 -21.657  0.00  0.00    +0.019 C 
ATOM     17  C   UNL     1      35.899 -19.419 -21.306  0.00  0.00    +0.100 C 
ATOM     18  H   UNL     1      37.086 -21.190 -18.082  0.00  0.00    +0.156 HD
ENDBRANCH   5  16
ENDBRANCH   3   6
BRANCH   2  19
ATOM     19  C   UNL     1      34.955 -14.857 -23.824  0.00  0.00    +0.158 C 
BRANCH  19  21
ATOM     20  O   UNL     1      33.518 -13.001 -23.328  0.00  0.00    -0.456 OA
ATOM     21  C   UNL     1      34.104 -14.110 -22.839  0.00  0.00    +0.139 A 
ATOM     22  C   UNL     1      33.804 -14.333 -21.538  0.00  0.00    +0.013 A 
ATOM     23  C   UNL     1      32.945 -13.267 -21.159  0.00  0.00    +0.033 A 
ATOM     24  C   UNL     1      32.802 -12.476 -22.294  0.00  0.00    +0.145 A 
ATOM     25  C   UNL     1      34.265 -15.446 -20.685  0.00  0.00    +0.034 C 
ATOM     26  C   UNL     1      32.276 -12.885 -19.984  0.00  0.00    +0.003 C 
ATOM     27  C   UNL     1      32.029 -11.317 -22.347  0.00  0.00    +0.037 C 
ATOM     28  C   UNL     1      31.492 -11.723 -20.005  0.00  0.00    +0.000 C 
ATOM     29  C   UNL     1      31.373 -10.955 -21.166  0.00  0.00    +0.003 C 
ENDBRANCH  19  21
ENDBRANCH   2  19
TORSDOF 4
ENDMDL
MODEL 4
REMARK VINA RESULT:     -12.1      2.415      9.656
REMARK  Name = 10407120
REMARK  4 active torsions:
REMARK  status: ('A' for Active; 'I' for Inactive)
REMARK    1  A    between atoms: N_2  and  C_19
REMARK    2  A    between atoms: C_3  and  C_6
REMARK    3  A    between atoms: C_5  and  C_16
REMARK    4  A    between atoms: C_19  and  C_21
REMARK                            x       y       z     vdW  Elec       q    Type
REMARK                         _______ _______ _______ _____ _____    ______ ____
ROOT
ATOM      1  O   UNL     1      34.402 -16.624 -25.593  0.00  0.00    -0.270 OA
ATOM      2  N   UNL     1      34.808 -17.428 -23.450  0.00  0.00    -0.267 N 
ATOM      3  C   UNL     1      34.547 -16.423 -24.386  0.00  0.00    +0.250 C 
ATOM      4  C   UNL     1      34.923 -18.809 -23.898  0.00  0.00    +0.116 C 
ENDROOT
BRANCH   3   6
ATOM      5  C   UNL     1      33.274 -14.424 -23.693  0.00  0.00    +0.006 C 
ATOM      6  C   UNL     1      34.473 -15.031 -23.853  0.00  0.00    +0.058 C 
BRANCH   5  16
ATOM      7  O   UNL     1      31.735  -7.586 -20.497  0.00  0.00    -0.275 OA
ATOM      8  N   UNL     1      32.579  -9.142 -21.960  0.00  0.00    -0.270 N 
ATOM      9  N   UNL     1      33.542 -10.708 -23.449  0.00  0.00    -0.229 NA
ATOM     10  C   UNL     1      31.138 -11.151 -20.575  0.00  0.00    +0.039 C 
ATOM     11  C   UNL     1      32.087 -11.490 -21.683  0.00  0.00    +0.010 C 
ATOM     12  C   UNL     1      31.580  -9.889 -19.851  0.00  0.00    +0.090 C 
ATOM     13  C   UNL     1      32.753 -10.477 -22.373  0.00  0.00    +0.130 C 
ATOM     14  C   UNL     1      32.254 -12.803 -22.126  0.00  0.00    +0.000 C 
ATOM     15  C   UNL     1      31.933  -8.762 -20.800  0.00  0.00    +0.227 C 
ATOM     16  C   UNL     1      33.076 -13.067 -23.215  0.00  0.00    +0.019 C 
ATOM     17  C   UNL     1      33.689 -11.995 -23.837  0.00  0.00    +0.100 C 
ATOM     18  H   UNL     1      32.943  -8.432 -22.536  0.00  0.00    +0.156 HD
ENDBRANCH   5  16
ENDBRANCH   3   6
BRANCH   2  19
ATOM     19  C   UNL     1      35.016 -17.210 -22.019  0.00  0.00    +0.158 C 
BRANCH  19  21
ATOM     20  O   UNL     1      33.843 -19.017 -20.962  0.00  0.00    -0.456 OA
ATOM     21  C   UNL     1      35.051 -18.500 -21.254  0.00  0.00    +0.139 A 
ATOM     22  C   UNL     1      36.073 -19.261 -20.793  0.00  0.00    +0.013 A 
ATOM     23  C   UNL     1      35.461 -20.366 -20.145  0.00  0.00    +0.033 A 
ATOM     24  C   UNL     1      34.090 -20.168 -20.277  0.00  0.00    +0.145 A 
ATOM     25  C   UNL     1      37.521 -19.003 -20.929  0.00  0.00    +0.034 C 
ATOM     26  C   UNL     1      35.913 -21.509 -19.464  0.00  0.00    +0.003 C 
ATOM     27  C   UNL     1      33.124 -21.037 -19.774  0.00  0.00    +0.037 C 
ATOM     28  C   UNL     1      34.964 -22.401 -18.946  0.00  0.00    +0.000 C 
ATOM     29  C   UNL     1      33.595 -22.167 -19.098  0.00  0.00    +0.003 C 
ENDBRANCH  19  21
ENDBRANCH   2  19
TORSDOF 4
ENDMDL
MODEL 5
REMARK VINA RESULT:     -11.5      2.279      9.953
REMARK  Name = 10407120
REMARK  4 active torsions:
REMARK  status: ('A' for Active; 'I' for Inactive)
REMARK    1  A    between atoms: N_2  and  C_19
REMARK    2  A    between atoms: C_3  and  C_6
REMARK    3  A    between atoms: C_5  and  C_16
REMARK    4  A    between atoms: C_19  and  C_21
REMARK                            x       y       z     vdW  Elec       q    Type
REMARK                         _______ _______ _______ _____ _____    ______ ____
ROOT
ATOM      1  O   UNL     1      34.106 -16.575 -25.611  0.00  0.00    -0.270 OA
ATOM      2  N   UNL     1      34.676 -17.378 -23.505  0.00  0.00    -0.267 N 
ATOM      3  C   UNL     1      34.364 -16.372 -24.423  0.00  0.00    +0.250 C 
ATOM      4  C   UNL     1      34.708 -18.766 -23.949  0.00  0.00    +0.116 C 
ENDROOT
BRANCH   3   6
ATOM      5  C   UNL     1      33.228 -14.279 -23.768  0.00  0.00    +0.006 C 
ATOM      6  C   UNL     1      34.383 -14.974 -23.898  0.00  0.00    +0.058 C 
BRANCH   5  16
ATOM      7  O   UNL     1      33.282  -6.805 -21.904  0.00  0.00    -0.275 OA
ATOM      8  N   UNL     1      32.730  -9.034 -21.864  0.00  0.00    -0.270 N 
ATOM      9  N   UNL     1      32.065 -11.304 -21.837  0.00  0.00    -0.229 NA
ATOM     10  C   UNL     1      34.741  -9.514 -23.803  0.00  0.00    +0.039 C 
ATOM     11  C   UNL     1      33.814 -10.600 -23.349  0.00  0.00    +0.010 C 
ATOM     12  C   UNL     1      34.062  -8.156 -23.725  0.00  0.00    +0.090 C 
ATOM     13  C   UNL     1      32.861 -10.344 -22.365  0.00  0.00    +0.130 C 
ATOM     14  C   UNL     1      33.943 -11.910 -23.812  0.00  0.00    +0.000 C 
ATOM     15  C   UNL     1      33.359  -7.928 -22.402  0.00  0.00    +0.227 C 
ATOM     16  C   UNL     1      33.122 -12.909 -23.300  0.00  0.00    +0.019 C 
ATOM     17  C   UNL     1      32.210 -12.557 -22.322  0.00  0.00    +0.100 C 
ATOM     18  H   UNL     1      32.153  -8.898 -21.079  0.00  0.00    +0.156 HD
ENDBRANCH   5  16
ENDBRANCH   3   6
BRANCH   2  19
ATOM     19  C   UNL     1      35.018 -17.158 -22.101  0.00  0.00    +0.158 C 
BRANCH  19  21
ATOM     20  O   UNL     1      33.856 -18.961 -21.025  0.00  0.00    -0.456 OA
ATOM     21  C   UNL     1      35.061 -18.442 -21.325  0.00  0.00    +0.139 A 
ATOM     22  C   UNL     1      36.087 -19.196 -20.862  0.00  0.00    +0.013 A 
ATOM     23  C   UNL     1      35.481 -20.298 -20.203  0.00  0.00    +0.033 A 
ATOM     24  C   UNL     1      34.109 -20.106 -20.332  0.00  0.00    +0.145 A 
ATOM     25  C   UNL     1      37.533 -18.934 -21.005  0.00  0.00    +0.034 C 
ATOM     26  C   UNL     1      35.939 -21.434 -19.514  0.00  0.00    +0.003 C 
ATOM     27  C   UNL     1      33.147 -20.975 -19.819  0.00  0.00    +0.037 C 
ATOM     28  C   UNL     1      34.996 -22.326 -18.986  0.00  0.00    +0.000 C 
ATOM     29  C   UNL     1      33.625 -22.098 -19.136  0.00  0.00    +0.003 C 
ENDBRANCH  19  21
ENDBRANCH   2  19
TORSDOF 4
ENDMDL
MODEL 6
REMARK VINA RESULT:     -11.3      6.156     12.979
REMARK  Name = 10407120
REMARK  4 active torsions:
REMARK  status: ('A' for Active; 'I' for Inactive)
REMARK    1  A    between atoms: N_2  and  C_19
REMARK    2  A    between atoms: C_3  and  C_6
REMARK    3  A    between atoms: C_5  and  C_16
REMARK    4  A    between atoms: C_19  and  C_21
REMARK                            x       y       z     vdW  Elec       q    Type
REMARK                         _______ _______ _______ _____ _____    ______ ____
ROOT
ATOM      1  O   UNL     1      30.700 -24.548 -15.862  0.00  0.00    -0.270 OA
ATOM      2  N   UNL     1      31.898 -24.100 -13.920  0.00  0.00    -0.267 N 
ATOM      3  C   UNL     1      31.586 -23.927 -15.272  0.00  0.00    +0.250 C 
ATOM      4  C   UNL     1      31.147 -25.068 -13.132  0.00  0.00    +0.116 C 
ENDROOT
BRANCH   3   6
ATOM      5  C   UNL     1      33.105 -23.320 -17.123  0.00  0.00    +0.006 C 
ATOM      6  C   UNL     1      32.420 -22.939 -16.018  0.00  0.00    +0.058 C 
BRANCH   5  16
ATOM      7  O   UNL     1      36.958 -18.512 -21.745  0.00  0.00    -0.275 OA
ATOM      8  N   UNL     1      36.556 -20.065 -20.102  0.00  0.00    -0.270 N 
ATOM      9  N   UNL     1      36.187 -21.603 -18.343  0.00  0.00    -0.229 NA
ATOM     10  C   UNL     1      33.841 -20.144 -20.913  0.00  0.00    +0.039 C 
ATOM     11  C   UNL     1      34.322 -20.893 -19.708  0.00  0.00    +0.010 C 
ATOM     12  C   UNL     1      34.671 -18.890 -21.136  0.00  0.00    +0.090 C 
ATOM     13  C   UNL     1      35.671 -20.868 -19.355  0.00  0.00    +0.130 C 
ATOM     14  C   UNL     1      33.468 -21.714 -18.969  0.00  0.00    +0.000 C 
ATOM     15  C   UNL     1      36.161 -19.151 -21.059  0.00  0.00    +0.227 C 
ATOM     16  C   UNL     1      33.971 -22.463 -17.911  0.00  0.00    +0.019 C 
ATOM     17  C   UNL     1      35.325 -22.374 -17.643  0.00  0.00    +0.100 C 
ATOM     18  H   UNL     1      37.520 -20.163 -19.930  0.00  0.00    +0.156 HD
ENDBRANCH   5  16
ENDBRANCH   3   6
BRANCH   2  19
ATOM     19  C   UNL     1      32.966 -23.400 -13.208  0.00  0.00    +0.158 C 
BRANCH  19  21
ATOM     20  O   UNL     1      34.486 -24.869 -14.345  0.00  0.00    -0.456 OA
ATOM     21  C   UNL     1      34.248 -24.179 -13.213  0.00  0.00    +0.139 A 
ATOM     22  C   UNL     1      35.230 -24.327 -12.292  0.00  0.00    +0.013 A 
ATOM     23  C   UNL     1      36.184 -25.193 -12.890  0.00  0.00    +0.033 A 
ATOM     24  C   UNL     1      35.679 -25.497 -14.151  0.00  0.00    +0.145 A 
ATOM     25  C   UNL     1      35.303 -23.722 -10.948  0.00  0.00    +0.034 C 
ATOM     26  C   UNL     1      37.415 -25.752 -12.506  0.00  0.00    +0.003 C 
ATOM     27  C   UNL     1      36.319 -26.327 -15.069  0.00  0.00    +0.037 C 
ATOM     28  C   UNL     1      38.082 -26.591 -13.409  0.00  0.00    +0.000 C 
ATOM     29  C   UNL     1      37.541 -26.873 -14.666  0.00  0.00    +0.003 C 
ENDBRANCH  19  21
ENDBRANCH   2  19
TORSDOF 4
ENDMDL
MODEL 7
REMARK VINA RESULT:     -11.0      5.837     11.842
REMARK  Name = 10407120
REMARK  4 active torsions:
REMARK  status: ('A' for Active; 'I' for Inactive)
REMARK    1  A    between atoms: N_2  and  C_19
REMARK    2  A    between atoms: C_3  and  C_6
REMARK    3  A    between atoms: C_5  and  C_16
REMARK    4  A    between atoms: C_19  and  C_21
REMARK                            x       y       z     vdW  Elec       q    Type
REMARK                         _______ _______ _______ _____ _____    ______ ____
ROOT
ATOM      1  O   UNL     1      37.910 -22.317 -14.597  0.00  0.00    -0.270 OA
ATOM      2  N   UNL     1      36.670 -24.280 -14.711  0.00  0.00    -0.267 N 
ATOM      3  C   UNL     1      37.007 -22.983 -15.107  0.00  0.00    +0.250 C 
ATOM      4  C   UNL     1      37.414 -24.913 -13.630  0.00  0.00    +0.116 C 
ENDROOT
BRANCH   3   6
ATOM      5  C   UNL     1      36.750 -22.045 -17.377  0.00  0.00    +0.006 C 
ATOM      6  C   UNL     1      36.179 -22.392 -16.200  0.00  0.00    +0.058 C 
BRANCH   5  16
ATOM      7  O   UNL     1      33.851 -18.403 -23.515  0.00  0.00    -0.275 OA
ATOM      8  N   UNL     1      33.960 -19.755 -21.662  0.00  0.00    -0.270 N 
ATOM      9  N   UNL     1      34.040 -21.225 -19.810  0.00  0.00    -0.229 NA
ATOM     10  C   UNL     1      36.611 -18.853 -21.223  0.00  0.00    +0.039 C 
ATOM     11  C   UNL     1      36.001 -19.935 -20.384  0.00  0.00    +0.010 C 
ATOM     12  C   UNL     1      36.030 -18.866 -22.628  0.00  0.00    +0.090 C 
ATOM     13  C   UNL     1      34.682 -20.330 -20.597  0.00  0.00    +0.130 C 
ATOM     14  C   UNL     1      36.689 -20.499 -19.309  0.00  0.00    +0.000 C 
ATOM     15  C   UNL     1      34.516 -18.949 -22.635  0.00  0.00    +0.227 C 
ATOM     16  C   UNL     1      36.057 -21.436 -18.499  0.00  0.00    +0.019 C 
ATOM     17  C   UNL     1      34.744 -21.760 -18.788  0.00  0.00    +0.100 C 
ATOM     18  H   UNL     1      32.995 -19.941 -21.715  0.00  0.00    +0.156 HD
ENDBRANCH   5  16
ENDBRANCH   3   6
BRANCH   2  19
ATOM     19  C   UNL     1      35.582 -25.076 -15.278  0.00  0.00    +0.158 C 
BRANCH  19  21
ATOM     20  O   UNL     1      33.522 -24.127 -16.062  0.00  0.00    -0.456 OA
ATOM     21  C   UNL     1      34.237 -24.481 -14.978  0.00  0.00    +0.139 A 
ATOM     22  C   UNL     1      33.590 -24.227 -13.816  0.00  0.00    +0.013 A 
ATOM     23  C   UNL     1      32.345 -23.657 -14.192  0.00  0.00    +0.033 A 
ATOM     24  C   UNL     1      32.353 -23.617 -15.583  0.00  0.00    +0.145 A 
ATOM     25  C   UNL     1      34.068 -24.485 -12.443  0.00  0.00    +0.034 C 
ATOM     26  C   UNL     1      31.215 -23.172 -13.513  0.00  0.00    +0.003 C 
ATOM     27  C   UNL     1      31.305 -23.123 -16.357  0.00  0.00    +0.037 C 
ATOM     28  C   UNL     1      30.144 -22.668 -14.264  0.00  0.00    +0.000 C 
ATOM     29  C   UNL     1      30.191 -22.644 -15.660  0.00  0.00    +0.003 C 
ENDBRANCH  19  21
ENDBRANCH   2  19
TORSDOF 4
ENDMDL
MODEL 8
REMARK VINA RESULT:     -10.6      4.074     11.532
REMARK  Name = 10407120
REMARK  4 active torsions:
REMARK  status: ('A' for Active; 'I' for Inactive)
REMARK    1  A    between atoms: N_2  and  C_19
REMARK    2  A    between atoms: C_3  and  C_6
REMARK    3  A    between atoms: C_5  and  C_16
REMARK    4  A    between atoms: C_19  and  C_21
REMARK                            x       y       z     vdW  Elec       q    Type
REMARK                         _______ _______ _______ _____ _____    ______ ____
ROOT
ATOM      1  O   UNL     1      30.904 -11.015 -20.418  0.00  0.00    -0.270 OA
ATOM      2  N   UNL     1      32.466 -12.184 -21.682  0.00  0.00    -0.267 N 
ATOM      3  C   UNL     1      31.727 -11.049 -21.334  0.00  0.00    +0.250 C 
ATOM      4  C   UNL     1      32.272 -13.419 -20.935  0.00  0.00    +0.116 C 
ENDROOT
BRANCH   3   6
ATOM      5  C   UNL     1      31.641  -8.607 -21.688  0.00  0.00    +0.006 C 
ATOM      6  C   UNL     1      31.960  -9.832 -22.167  0.00  0.00    +0.058 C 
BRANCH   5  16
ATOM      7  O   UNL     1      33.152  -2.352 -25.924  0.00  0.00    -0.275 OA
ATOM      8  N   UNL     1      32.117  -3.732 -24.406  0.00  0.00    -0.270 N 
ATOM      9  N   UNL     1      30.965  -5.139 -22.894  0.00  0.00    -0.229 NA
ATOM     10  C   UNL     1      34.170  -5.642 -24.820  0.00  0.00    +0.039 C 
ATOM     11  C   UNL     1      32.981  -5.942 -23.959  0.00  0.00    +0.010 C 
ATOM     12  C   UNL     1      33.805  -4.659 -25.921  0.00  0.00    +0.090 C 
ATOM     13  C   UNL     1      32.007  -4.969 -23.742  0.00  0.00    +0.130 C 
ATOM     14  C   UNL     1      32.865  -7.151 -23.271  0.00  0.00    +0.000 C 
ATOM     15  C   UNL     1      33.030  -3.463 -25.407  0.00  0.00    +0.227 C 
ATOM     16  C   UNL     1      31.792  -7.357 -22.412  0.00  0.00    +0.019 C 
ATOM     17  C   UNL     1      30.880  -6.329 -22.258  0.00  0.00    +0.100 C 
ATOM     18  H   UNL     1      31.503  -3.011 -24.140  0.00  0.00    +0.156 HD
ENDBRANCH   5  16
ENDBRANCH   3   6
BRANCH   2  19
ATOM     19  C   UNL     1      33.422 -12.258 -22.785  0.00  0.00    +0.158 C 
BRANCH  19  21
ATOM     20  O   UNL     1      34.343 -14.394 -22.192  0.00  0.00    -0.456 OA
ATOM     21  C   UNL     1      33.740 -13.677 -23.158  0.00  0.00    +0.139 A 
ATOM     22  C   UNL     1      33.536 -14.390 -24.292  0.00  0.00    +0.013 A 
ATOM     23  C   UNL     1      34.058 -15.683 -24.025  0.00  0.00    +0.033 A 
ATOM     24  C   UNL     1      34.542 -15.633 -22.721  0.00  0.00    +0.145 A 
ATOM     25  C   UNL     1      32.907 -13.929 -25.545  0.00  0.00    +0.034 C 
ATOM     26  C   UNL     1      34.175 -16.888 -24.739  0.00  0.00    +0.003 C 
ATOM     27  C   UNL     1      35.140 -16.709 -22.068  0.00  0.00    +0.037 C 
ATOM     28  C   UNL     1      34.773 -17.988 -24.109  0.00  0.00    +0.000 C 
ATOM     29  C   UNL     1      35.247 -17.897 -22.797  0.00  0.00    +0.003 C 
ENDBRANCH  19  21
ENDBRANCH   2  19
TORSDOF 4
ENDMDL
MODEL 9
REMARK VINA RESULT:     -10.6      5.876     12.047
REMARK  Name = 10407120
REMARK  4 active torsions:
REMARK  status: ('A' for Active; 'I' for Inactive)
REMARK    1  A    between atoms: N_2  and  C_19
REMARK    2  A    between atoms: C_3  and  C_6
REMARK    3  A    between atoms: C_5  and  C_16
REMARK    4  A    between atoms: C_19  and  C_21
REMARK                            x       y       z     vdW  Elec       q    Type
REMARK                         _______ _______ _______ _____ _____    ______ ____
ROOT
ATOM      1  O   UNL     1      35.870 -24.760 -15.388  0.00  0.00    -0.270 OA
ATOM      2  N   UNL     1      34.360 -23.752 -13.935  0.00  0.00    -0.267 N 
ATOM      3  C   UNL     1      34.940 -23.976 -15.187  0.00  0.00    +0.250 C 
ATOM      4  C   UNL     1      34.864 -24.476 -12.775  0.00  0.00    +0.116 C 
ENDROOT
BRANCH   3   6
ATOM      5  C   UNL     1      35.207 -22.729 -17.302  0.00  0.00    +0.006 C 
ATOM      6  C   UNL     1      34.389 -23.174 -16.319  0.00  0.00    +0.058 C 
BRANCH   5  16
ATOM      7  O   UNL     1      33.898 -18.251 -23.431  0.00  0.00    -0.275 OA
ATOM      8  N   UNL     1      33.489 -19.622 -21.635  0.00  0.00    -0.270 N 
ATOM      9  N   UNL     1      33.017 -21.098 -19.847  0.00  0.00    -0.229 NA
ATOM     10  C   UNL     1      36.251 -19.539 -21.007  0.00  0.00    +0.039 C 
ATOM     11  C   UNL     1      35.301 -20.418 -20.252  0.00  0.00    +0.010 C 
ATOM     12  C   UNL     1      35.786 -19.348 -22.442  0.00  0.00    +0.090 C 
ATOM     13  C   UNL     1      33.941 -20.408 -20.557  0.00  0.00    +0.130 C 
ATOM     14  C   UNL     1      35.724 -21.184 -19.165  0.00  0.00    +0.000 C 
ATOM     15  C   UNL     1      34.317 -18.988 -22.539  0.00  0.00    +0.227 C 
ATOM     16  C   UNL     1      34.796 -21.918 -18.433  0.00  0.00    +0.019 C 
ATOM     17  C   UNL     1      33.468 -21.839 -18.810  0.00  0.00    +0.100 C 
ATOM     18  H   UNL     1      32.517 -19.518 -21.751  0.00  0.00    +0.156 HD
ENDBRANCH   5  16
ENDBRANCH   3   6
BRANCH   2  19
ATOM     19  C   UNL     1      33.281 -22.804 -13.666  0.00  0.00    +0.158 C 
BRANCH  19  21
ATOM     20  O   UNL     1      31.428 -22.505 -15.162  0.00  0.00    -0.456 OA
ATOM     21  C   UNL     1      31.965 -23.284 -14.204  0.00  0.00    +0.139 A 
ATOM     22  C   UNL     1      31.199 -24.363 -13.914  0.00  0.00    +0.013 A 
ATOM     23  C   UNL     1      30.067 -24.264 -14.765  0.00  0.00    +0.033 A 
ATOM     24  C   UNL     1      30.256 -23.105 -15.511  0.00  0.00    +0.145 A 
ATOM     25  C   UNL     1      31.474 -25.423 -12.924  0.00  0.00    +0.034 C 
ATOM     26  C   UNL     1      28.906 -25.024 -14.987  0.00  0.00    +0.003 C 
ATOM     27  C   UNL     1      29.362 -22.642 -16.475  0.00  0.00    +0.037 C 
ATOM     28  C   UNL     1      27.987 -24.583 -15.949  0.00  0.00    +0.000 C 
ATOM     29  C   UNL     1      28.214 -23.413 -16.678  0.00  0.00    +0.003 C 
ENDBRANCH  19  21
ENDBRANCH   2  19
TORSDOF 4
ENDMDL
