MODEL 1
REMARK VINA RESULT:     -12.0      0.000      0.000
REMARK  Name = 59568713
REMARK  8 active torsions:
REMARK  status: ('A' for Active; 'I' for Inactive)
REMARK    1  A    between atoms: N_1  and  C_9
REMARK    2  A    between atoms: N_2  and  C_24
REMARK    3  A    between atoms: C_9  and  C_10
REMARK    4  A    between atoms: C_10  and  C_13
REMARK    5  A    between atoms: C_10  and  O_22
REMARK    6  A    between atoms: C_24  and  C_25
REMARK    7  A    between atoms: C_25  and  C_28
REMARK    8  A    between atoms: C_25  and  O_37
REMARK                            x       y       z     vdW  Elec       q    Type
REMARK                         _______ _______ _______ _____ _____    ______ ____
ROOT
ATOM      1  N   UNL     1      33.761 -13.421 -22.534  0.00  0.00    +0.386 N 
ATOM      2  N   UNL     1      34.543 -16.148 -21.979  0.00  0.00    +0.386 N 
ATOM      3  C   UNL     1      34.916 -15.489 -23.236  0.00  0.00    -0.101 C 
ATOM      4  C   UNL     1      34.410 -15.160 -20.902  0.00  0.00    -0.101 C 
ATOM      5  C   UNL     1      33.895 -14.410 -23.610  0.00  0.00    -0.101 C 
ATOM      6  C   UNL     1      33.389 -14.080 -21.276  0.00  0.00    -0.101 C 
ATOM      7  H   UNL     1      34.663 -12.965 -22.403  0.00  0.00    -0.080 HD
ATOM      8  H   UNL     1      33.639 -16.603 -22.110  0.00  0.00    -0.080 HD
ENDROOT
BRANCH   1   9
ATOM      9  C   UNL     1      32.784 -12.394 -22.891  0.00  0.00    -0.043 C 
BRANCH   9  10
ATOM     10  C   UNL     1      32.211 -11.726 -21.634  0.00  0.00    +0.112 C 
BRANCH  10  13
ATOM     11  O   UNL     1      32.189  -5.778 -20.519  0.00  0.00    -0.440 OA
ATOM     12  O   UNL     1      32.560  -5.227 -22.736  0.00  0.00    -0.245 OA
ATOM     13  C   UNL     1      32.268 -10.218 -21.733  0.00  0.00    -0.002 C 
ATOM     14  C   UNL     1      32.106  -9.422 -20.594  0.00  0.00    -0.024 C 
ATOM     15  C   UNL     1      32.166  -8.048 -20.742  0.00  0.00    +0.023 C 
ATOM     16  C   UNL     1      32.486  -9.633 -22.992  0.00  0.00    -0.002 C 
ATOM     17  C   UNL     1      32.380  -7.487 -21.985  0.00  0.00    +0.075 C 
ATOM     18  C   UNL     1      32.543  -8.246 -23.129  0.00  0.00    +0.006 C 
ATOM     19  C   UNL     1      32.032  -6.984 -19.731  0.00  0.00    +0.235 C 
ATOM     20  C   UNL     1      31.873 -10.029 -19.252  0.00  0.00    +0.031 C 
ATOM     21  C   UNL     1      32.396  -6.039 -21.848  0.00  0.00    +0.341 C 
ENDBRANCH  10  13
BRANCH  10  22
ATOM     22  O   UNL     1      30.849 -12.110 -21.448  0.00  0.00    -0.382 OA
ATOM     23  H   UNL     1      30.280 -11.574 -22.021  0.00  0.00    +0.211 HD
ENDBRANCH  10  22
ENDBRANCH   9  10
ENDBRANCH   1   9
BRANCH   2  24
ATOM     24  C   UNL     1      35.517 -17.177 -21.622  0.00  0.00    -0.043 C 
BRANCH  24  25
ATOM     25  C   UNL     1      35.142 -18.525 -22.249  0.00  0.00    +0.112 C 
BRANCH  25  28
ATOM     26  O   UNL     1      34.844 -22.586 -17.772  0.00  0.00    -0.440 OA
ATOM     27  O   UNL     1      32.537 -22.739 -17.885  0.00  0.00    -0.245 OA
ATOM     28  C   UNL     1      34.691 -19.518 -21.199  0.00  0.00    -0.002 C 
ATOM     29  C   UNL     1      35.623 -20.157 -20.376  0.00  0.00    -0.024 C 
ATOM     30  C   UNL     1      35.156 -21.056 -19.434  0.00  0.00    +0.023 C 
ATOM     31  C   UNL     1      33.316 -19.785 -21.071  0.00  0.00    -0.002 C 
ATOM     32  C   UNL     1      33.805 -21.309 -19.318  0.00  0.00    +0.075 C 
ATOM     33  C   UNL     1      32.858 -20.695 -20.117  0.00  0.00    +0.006 C 
ATOM     34  C   UNL     1      35.900 -21.860 -18.449  0.00  0.00    +0.235 C 
ATOM     35  C   UNL     1      37.083 -19.884 -20.502  0.00  0.00    +0.031 C 
ATOM     36  C   UNL     1      33.599 -22.285 -18.260  0.00  0.00    +0.341 C 
ENDBRANCH  25  28
BRANCH  25  37
ATOM     37  O   UNL     1      34.079 -18.356 -23.187  0.00  0.00    -0.382 OA
ATOM     38  H   UNL     1      33.848 -19.216 -23.571  0.00  0.00    +0.211 HD
ENDBRANCH  25  37
ENDBRANCH  24  25
ENDBRANCH   2  24
TORSDOF 8
ENDMDL
MODEL 2
REMARK VINA RESULT:     -12.0      0.060     11.614
REMARK  Name = 59568713
REMARK  8 active torsions:
REMARK  status: ('A' for Active; 'I' for Inactive)
REMARK    1  A    between atoms: N_1  and  C_9
REMARK    2  A    between atoms: N_2  and  C_24
REMARK    3  A    between atoms: C_9  and  C_10
REMARK    4  A    between atoms: C_10  and  C_13
REMARK    5  A    between atoms: C_10  and  O_22
REMARK    6  A    between atoms: C_24  and  C_25
REMARK    7  A    between atoms: C_25  and  C_28
REMARK    8  A    between atoms: C_25  and  O_37
REMARK                            x       y       z     vdW  Elec       q    Type
REMARK                         _______ _______ _______ _____ _____    ______ ____
ROOT
ATOM      1  N   UNL     1      34.585 -16.162 -22.030  0.00  0.00    +0.386 N 
ATOM      2  N   UNL     1      33.825 -13.425 -22.571  0.00  0.00    +0.386 N 
ATOM      3  C   UNL     1      33.967 -14.406 -23.655  0.00  0.00    -0.101 C 
ATOM      4  C   UNL     1      33.431 -14.093 -21.325  0.00  0.00    -0.101 C 
ATOM      5  C   UNL     1      34.977 -15.494 -23.277  0.00  0.00    -0.101 C 
ATOM      6  C   UNL     1      34.441 -15.182 -20.947  0.00  0.00    -0.101 C 
ATOM      7  H   UNL     1      33.682 -16.612 -22.178  0.00  0.00    -0.080 HD
ATOM      8  H   UNL     1      34.729 -12.977 -22.423  0.00  0.00    -0.080 HD
ENDROOT
BRANCH   1   9
ATOM      9  C   UNL     1      35.551 -17.197 -21.670  0.00  0.00    -0.043 C 
BRANCH   9  10
ATOM     10  C   UNL     1      35.165 -18.545 -22.292  0.00  0.00    +0.112 C 
BRANCH  10  13
ATOM     11  O   UNL     1      34.846 -22.597 -17.808  0.00  0.00    -0.440 OA
ATOM     12  O   UNL     1      32.538 -22.724 -17.909  0.00  0.00    -0.245 OA
ATOM     13  C   UNL     1      34.709 -19.531 -21.239  0.00  0.00    -0.002 C 
ATOM     14  C   UNL     1      35.639 -20.179 -20.419  0.00  0.00    -0.024 C 
ATOM     15  C   UNL     1      35.167 -21.072 -19.474  0.00  0.00    +0.023 C 
ATOM     16  C   UNL     1      33.333 -19.783 -21.102  0.00  0.00    -0.002 C 
ATOM     17  C   UNL     1      33.813 -21.310 -19.351  0.00  0.00    +0.075 C 
ATOM     18  C   UNL     1      32.869 -20.686 -20.146  0.00  0.00    +0.006 C 
ATOM     19  C   UNL     1      35.907 -21.883 -18.491  0.00  0.00    +0.235 C 
ATOM     20  C   UNL     1      37.101 -19.922 -20.553  0.00  0.00    +0.031 C 
ATOM     21  C   UNL     1      33.603 -22.282 -18.290  0.00  0.00    +0.341 C 
ENDBRANCH  10  13
BRANCH  10  22
ATOM     22  O   UNL     1      34.104 -18.371 -23.230  0.00  0.00    -0.382 OA
ATOM     23  H   UNL     1      34.438 -18.518 -24.128  0.00  0.00    +0.211 HD
ENDBRANCH  10  22
ENDBRANCH   9  10
ENDBRANCH   1   9
BRANCH   2  24
ATOM     24  C   UNL     1      32.860 -12.389 -22.931  0.00  0.00    -0.043 C 
BRANCH  24  25
ATOM     25  C   UNL     1      32.260 -11.742 -21.677  0.00  0.00    +0.112 C 
BRANCH  25  28
ATOM     26  O   UNL     1      32.098  -5.805 -20.514  0.00  0.00    -0.440 OA
ATOM     27  O   UNL     1      32.534  -5.228 -22.712  0.00  0.00    -0.245 OA
ATOM     28  C   UNL     1      32.294 -10.232 -21.761  0.00  0.00    -0.002 C 
ATOM     29  C   UNL     1      32.079  -9.449 -20.622  0.00  0.00    -0.024 C 
ATOM     30  C   UNL     1      32.121  -8.073 -20.756  0.00  0.00    +0.023 C 
ATOM     31  C   UNL     1      32.544  -9.632 -23.008  0.00  0.00    -0.002 C 
ATOM     32  C   UNL     1      32.368  -7.498 -21.986  0.00  0.00    +0.075 C 
ATOM     33  C   UNL     1      32.583  -8.243 -23.130  0.00  0.00    +0.006 C 
ATOM     34  C   UNL     1      31.934  -7.021 -19.742  0.00  0.00    +0.235 C 
ATOM     35  C   UNL     1      31.812 -10.072 -19.295  0.00  0.00    +0.031 C 
ATOM     36  C   UNL     1      32.354  -6.051 -21.838  0.00  0.00    +0.341 C 
ENDBRANCH  25  28
BRANCH  25  37
ATOM     37  O   UNL     1      30.901 -12.149 -21.513  0.00  0.00    -0.382 OA
ATOM     38  H   UNL     1      30.572 -12.517 -22.347  0.00  0.00    +0.211 HD
ENDBRANCH  25  37
ENDBRANCH  24  25
ENDBRANCH   2  24
TORSDOF 8
ENDMDL
MODEL 3
REMARK VINA RESULT:     -11.6      2.820      5.000
REMARK  Name = 59568713
REMARK  8 active torsions:
REMARK  status: ('A' for Active; 'I' for Inactive)
REMARK    1  A    between atoms: N_1  and  C_9
REMARK    2  A    between atoms: N_2  and  C_24
REMARK    3  A    between atoms: C_9  and  C_10
REMARK    4  A    between atoms: C_10  and  C_13
REMARK    5  A    between atoms: C_10  and  O_22
REMARK    6  A    between atoms: C_24  and  C_25
REMARK    7  A    between atoms: C_25  and  C_28
REMARK    8  A    between atoms: C_25  and  O_37
REMARK                            x       y       z     vdW  Elec       q    Type
REMARK                         _______ _______ _______ _____ _____    ______ ____
ROOT
ATOM      1  N   UNL     1      31.541  -9.690 -20.690  0.00  0.00    +0.386 N 
ATOM      2  N   UNL     1      32.535 -12.121 -21.897  0.00  0.00    +0.386 N 
ATOM      3  C   UNL     1      31.576 -12.158 -20.787  0.00  0.00    -0.101 C 
ATOM      4  C   UNL     1      32.359 -10.896 -22.686  0.00  0.00    -0.101 C 
ATOM      5  C   UNL     1      31.717 -10.915 -19.902  0.00  0.00    -0.101 C 
ATOM      6  C   UNL     1      32.499  -9.652 -21.801  0.00  0.00    -0.101 C 
ATOM      7  H   UNL     1      30.598  -9.690 -21.079  0.00  0.00    -0.080 HD
ATOM      8  H   UNL     1      33.479 -12.119 -21.507  0.00  0.00    -0.080 HD
ENDROOT
BRANCH   1   9
ATOM      9  C   UNL     1      31.679  -8.505 -19.845  0.00  0.00    -0.043 C 
BRANCH   9  10
ATOM     10  C   UNL     1      32.787  -7.584 -20.374  0.00  0.00    +0.112 C 
BRANCH  10  13
ATOM     11  O   UNL     1      31.788  -3.628 -24.842  0.00  0.00    -0.440 OA
ATOM     12  O   UNL     1      29.843  -2.826 -23.877  0.00  0.00    -0.245 OA
ATOM     13  C   UNL     1      32.228  -6.510 -21.281  0.00  0.00    -0.002 C 
ATOM     14  C   UNL     1      32.885  -6.166 -22.467  0.00  0.00    -0.024 C 
ATOM     15  C   UNL     1      32.331  -5.176 -23.258  0.00  0.00    +0.023 C 
ATOM     16  C   UNL     1      31.037  -5.865 -20.906  0.00  0.00    -0.002 C 
ATOM     17  C   UNL     1      31.161  -4.550 -22.878  0.00  0.00    +0.075 C 
ATOM     18  C   UNL     1      30.488  -4.867 -21.712  0.00  0.00    +0.006 C 
ATOM     19  C   UNL     1      32.799  -4.621 -24.540  0.00  0.00    +0.235 C 
ATOM     20  C   UNL     1      34.149  -6.842 -22.876  0.00  0.00    +0.031 C 
ATOM     21  C   UNL     1      30.810  -3.562 -23.885  0.00  0.00    +0.341 C 
ENDBRANCH  10  13
BRANCH  10  22
ATOM     22  O   UNL     1      33.460  -6.947 -19.288  0.00  0.00    -0.382 OA
ATOM     23  H   UNL     1      34.228  -6.461 -19.624  0.00  0.00    +0.211 HD
ENDBRANCH  10  22
ENDBRANCH   9  10
ENDBRANCH   1   9
BRANCH   2  24
ATOM     24  C   UNL     1      32.400 -13.306 -22.741  0.00  0.00    -0.043 C 
BRANCH  24  25
ATOM     25  C   UNL     1      33.710 -13.601 -23.483  0.00  0.00    +0.112 C 
BRANCH  25  28
ATOM     26  O   UNL     1      35.432 -19.144 -21.769  0.00  0.00    -0.440 OA
ATOM     27  O   UNL     1      35.090 -20.045 -23.874  0.00  0.00    -0.245 OA
ATOM     28  C   UNL     1      34.063 -15.071 -23.420  0.00  0.00    -0.002 C 
ATOM     29  C   UNL     1      34.508 -15.647 -22.226  0.00  0.00    -0.024 C 
ATOM     30  C   UNL     1      34.818 -16.995 -22.226  0.00  0.00    +0.023 C 
ATOM     31  C   UNL     1      33.936 -15.845 -24.588  0.00  0.00    -0.002 C 
ATOM     32  C   UNL     1      34.689 -17.743 -23.378  0.00  0.00    +0.075 C 
ATOM     33  C   UNL     1      34.253 -17.203 -24.574  0.00  0.00    +0.006 C 
ATOM     34  C   UNL     1      35.301 -17.850 -21.128  0.00  0.00    +0.235 C 
ATOM     35  C   UNL     1      34.648 -14.838 -20.982  0.00  0.00    +0.031 C 
ATOM     36  C   UNL     1      35.080 -19.114 -23.094  0.00  0.00    +0.341 C 
ENDBRANCH  25  28
BRANCH  25  37
ATOM     37  O   UNL     1      33.595 -13.228 -24.856  0.00  0.00    -0.382 OA
ATOM     38  H   UNL     1      32.763 -12.747 -24.992  0.00  0.00    +0.211 HD
ENDBRANCH  25  37
ENDBRANCH  24  25
ENDBRANCH   2  24
TORSDOF 8
ENDMDL
MODEL 4
REMARK VINA RESULT:     -11.6      2.808     12.018
REMARK  Name = 59568713
REMARK  8 active torsions:
REMARK  status: ('A' for Active; 'I' for Inactive)
REMARK    1  A    between atoms: N_1  and  C_9
REMARK    2  A    between atoms: N_2  and  C_24
REMARK    3  A    between atoms: C_9  and  C_10
REMARK    4  A    between atoms: C_10  and  C_13
REMARK    5  A    between atoms: C_10  and  O_22
REMARK    6  A    between atoms: C_24  and  C_25
REMARK    7  A    between atoms: C_25  and  C_28
REMARK    8  A    between atoms: C_25  and  O_37
REMARK                            x       y       z     vdW  Elec       q    Type
REMARK                         _______ _______ _______ _____ _____    ______ ____
ROOT
ATOM      1  N   UNL     1      32.539 -12.174 -21.914  0.00  0.00    +0.386 N 
ATOM      2  N   UNL     1      31.539  -9.746 -20.702  0.00  0.00    +0.386 N 
ATOM      3  C   UNL     1      31.731 -10.970 -19.913  0.00  0.00    -0.101 C 
ATOM      4  C   UNL     1      32.488  -9.705 -21.821  0.00  0.00    -0.101 C 
ATOM      5  C   UNL     1      31.590 -12.215 -20.794  0.00  0.00    -0.101 C 
ATOM      6  C   UNL     1      32.348 -10.951 -22.702  0.00  0.00    -0.101 C 
ATOM      7  H   UNL     1      33.484 -12.167 -21.533  0.00  0.00    -0.080 HD
ATOM      8  H   UNL     1      30.593  -9.755 -21.084  0.00  0.00    -0.080 HD
ENDROOT
BRANCH   1   9
ATOM      9  C   UNL     1      32.400 -13.361 -22.755  0.00  0.00    -0.043 C 
BRANCH   9  10
ATOM     10  C   UNL     1      33.708 -13.657 -23.501  0.00  0.00    +0.112 C 
BRANCH  10  13
ATOM     11  O   UNL     1      35.431 -19.209 -21.822  0.00  0.00    -0.440 OA
ATOM     12  O   UNL     1      35.061 -20.104 -23.924  0.00  0.00    -0.245 OA
ATOM     13  C   UNL     1      34.057 -15.128 -23.447  0.00  0.00    -0.002 C 
ATOM     14  C   UNL     1      34.513 -15.708 -22.259  0.00  0.00    -0.024 C 
ATOM     15  C   UNL     1      34.819 -17.057 -22.265  0.00  0.00    +0.023 C 
ATOM     16  C   UNL     1      33.913 -15.898 -24.613  0.00  0.00    -0.002 C 
ATOM     17  C   UNL     1      34.674 -17.802 -23.419  0.00  0.00    +0.075 C 
ATOM     18  C   UNL     1      34.225 -17.258 -24.608  0.00  0.00    +0.006 C 
ATOM     19  C   UNL     1      35.311 -17.918 -21.175  0.00  0.00    +0.235 C 
ATOM     20  C   UNL     1      34.670 -14.903 -21.014  0.00  0.00    +0.031 C 
ATOM     21  C   UNL     1      35.063 -19.175 -23.141  0.00  0.00    +0.341 C 
ENDBRANCH  10  13
BRANCH  10  22
ATOM     22  O   UNL     1      33.592 -13.276 -24.871  0.00  0.00    -0.382 OA
ATOM     23  H   UNL     1      32.995 -12.515 -24.947  0.00  0.00    +0.211 HD
ENDBRANCH  10  22
ENDBRANCH   9  10
ENDBRANCH   1   9
BRANCH   2  24
ATOM     24  C   UNL     1      31.675  -8.559 -19.862  0.00  0.00    -0.043 C 
BRANCH  24  25
ATOM     25  C   UNL     1      32.800  -7.652 -20.376  0.00  0.00    +0.112 C 
BRANCH  25  28
ATOM     26  O   UNL     1      31.891  -3.686 -24.856  0.00  0.00    -0.440 OA
ATOM     27  O   UNL     1      29.964  -2.840 -23.894  0.00  0.00    -0.245 OA
ATOM     28  C   UNL     1      32.265  -6.568 -21.287  0.00  0.00    -0.002 C 
ATOM     29  C   UNL     1      32.930  -6.241 -22.472  0.00  0.00    -0.024 C 
ATOM     30  C   UNL     1      32.398  -5.242 -23.267  0.00  0.00    +0.023 C 
ATOM     31  C   UNL     1      31.088  -5.896 -20.914  0.00  0.00    -0.002 C 
ATOM     32  C   UNL     1      31.242  -4.590 -22.890  0.00  0.00    +0.075 C 
ATOM     33  C   UNL     1      30.562  -4.889 -21.724  0.00  0.00    +0.006 C 
ATOM     34  C   UNL     1      32.881  -4.700 -24.549  0.00  0.00    +0.235 C 
ATOM     35  C   UNL     1      34.180  -6.945 -22.878  0.00  0.00    +0.031 C 
ATOM     36  C   UNL     1      30.914  -3.596 -23.899  0.00  0.00    +0.341 C 
ENDBRANCH  25  28
BRANCH  25  37
ATOM     37  O   UNL     1      33.469  -7.026 -19.282  0.00  0.00    -0.382 OA
ATOM     38  H   UNL     1      33.423  -6.062 -19.384  0.00  0.00    +0.211 HD
ENDBRANCH  25  37
ENDBRANCH  24  25
ENDBRANCH   2  24
TORSDOF 8
ENDMDL
MODEL 5
REMARK VINA RESULT:     -11.0      1.117     11.643
REMARK  Name = 59568713
REMARK  8 active torsions:
REMARK  status: ('A' for Active; 'I' for Inactive)
REMARK    1  A    between atoms: N_1  and  C_9
REMARK    2  A    between atoms: N_2  and  C_24
REMARK    3  A    between atoms: C_9  and  C_10
REMARK    4  A    between atoms: C_10  and  C_13
REMARK    5  A    between atoms: C_10  and  O_22
REMARK    6  A    between atoms: C_24  and  C_25
REMARK    7  A    between atoms: C_25  and  C_28
REMARK    8  A    between atoms: C_25  and  O_37
REMARK                            x       y       z     vdW  Elec       q    Type
REMARK                         _______ _______ _______ _____ _____    ______ ____
ROOT
ATOM      1  N   UNL     1      34.641 -16.353 -21.925  0.00  0.00    +0.386 N 
ATOM      2  N   UNL     1      33.830 -13.635 -22.483  0.00  0.00    +0.386 N 
ATOM      3  C   UNL     1      33.919 -14.639 -23.551  0.00  0.00    -0.101 C 
ATOM      4  C   UNL     1      33.513 -14.276 -21.202  0.00  0.00    -0.101 C 
ATOM      5  C   UNL     1      34.958 -15.711 -23.206  0.00  0.00    -0.101 C 
ATOM      6  C   UNL     1      34.551 -15.349 -20.857  0.00  0.00    -0.101 C 
ATOM      7  H   UNL     1      33.735 -16.812 -22.011  0.00  0.00    -0.080 HD
ATOM      8  H   UNL     1      34.737 -13.176 -22.397  0.00  0.00    -0.080 HD
ENDROOT
BRANCH   1   9
ATOM      9  C   UNL     1      35.635 -17.372 -21.596  0.00  0.00    -0.043 C 
BRANCH   9  10
ATOM     10  C   UNL     1      35.244 -18.729 -22.195  0.00  0.00    +0.112 C 
BRANCH  10  13
ATOM     11  O   UNL     1      34.680 -22.654 -17.624  0.00  0.00    -0.440 OA
ATOM     12  O   UNL     1      32.373 -22.731 -17.800  0.00  0.00    -0.245 OA
ATOM     13  C   UNL     1      34.730 -19.677 -21.134  0.00  0.00    -0.002 C 
ATOM     14  C   UNL     1      35.616 -20.324 -20.267  0.00  0.00    -0.024 C 
ATOM     15  C   UNL     1      35.092 -21.181 -19.316  0.00  0.00    +0.023 C 
ATOM     16  C   UNL     1      33.345 -19.892 -21.038  0.00  0.00    -0.002 C 
ATOM     17  C   UNL     1      33.729 -21.384 -19.233  0.00  0.00    +0.075 C 
ATOM     18  C   UNL     1      32.828 -20.760 -20.075  0.00  0.00    +0.006 C 
ATOM     19  C   UNL     1      35.779 -21.983 -18.288  0.00  0.00    +0.235 C 
ATOM     20  C   UNL     1      37.088 -20.105 -20.358  0.00  0.00    +0.031 C 
ATOM     21  C   UNL     1      33.461 -22.323 -18.155  0.00  0.00    +0.341 C 
ENDBRANCH  10  13
BRANCH  10  22
ATOM     22  O   UNL     1      34.221 -18.560 -23.176  0.00  0.00    -0.382 OA
ATOM     23  H   UNL     1      33.358 -18.759 -22.782  0.00  0.00    +0.211 HD
ENDBRANCH  10  22
ENDBRANCH   9  10
ENDBRANCH   1   9
BRANCH   2  24
ATOM     24  C   UNL     1      32.838 -12.613 -22.812  0.00  0.00    -0.043 C 
BRANCH  24  25
ATOM     25  C   UNL     1      33.493 -11.430 -23.536  0.00  0.00    +0.112 C 
BRANCH  25  28
ATOM     26  O   UNL     1      32.797  -5.595 -22.088  0.00  0.00    -0.440 OA
ATOM     27  O   UNL     1      30.949  -6.008 -20.757  0.00  0.00    -0.245 OA
ATOM     28  C   UNL     1      33.022 -10.107 -22.973  0.00  0.00    -0.002 C 
ATOM     29  C   UNL     1      33.690  -8.919 -23.288  0.00  0.00    -0.024 C 
ATOM     30  C   UNL     1      33.218  -7.738 -22.745  0.00  0.00    +0.023 C 
ATOM     31  C   UNL     1      31.900 -10.096 -22.124  0.00  0.00    -0.002 C 
ATOM     32  C   UNL     1      32.116  -7.742 -21.914  0.00  0.00    +0.075 C 
ATOM     33  C   UNL     1      31.434  -8.898 -21.582  0.00  0.00    +0.006 C 
ATOM     34  C   UNL     1      33.717  -6.362 -22.905  0.00  0.00    +0.235 C 
ATOM     35  C   UNL     1      34.880  -8.917 -24.185  0.00  0.00    +0.031 C 
ATOM     36  C   UNL     1      31.843  -6.377 -21.491  0.00  0.00    +0.341 C 
ENDBRANCH  25  28
BRANCH  25  37
ATOM     37  O   UNL     1      34.912 -11.492 -23.401  0.00  0.00    -0.382 OA
ATOM     38  H   UNL     1      35.309 -10.704 -23.803  0.00  0.00    +0.211 HD
ENDBRANCH  25  37
ENDBRANCH  24  25
ENDBRANCH   2  24
TORSDOF 8
ENDMDL
MODEL 6
REMARK VINA RESULT:     -10.9      2.788     12.199
REMARK  Name = 59568713
REMARK  8 active torsions:
REMARK  status: ('A' for Active; 'I' for Inactive)
REMARK    1  A    between atoms: N_1  and  C_9
REMARK    2  A    between atoms: N_2  and  C_24
REMARK    3  A    between atoms: C_9  and  C_10
REMARK    4  A    between atoms: C_10  and  C_13
REMARK    5  A    between atoms: C_10  and  O_22
REMARK    6  A    between atoms: C_24  and  C_25
REMARK    7  A    between atoms: C_25  and  C_28
REMARK    8  A    between atoms: C_25  and  O_37
REMARK                            x       y       z     vdW  Elec       q    Type
REMARK                         _______ _______ _______ _____ _____    ______ ____
ROOT
ATOM      1  N   UNL     1      32.234 -12.067 -22.402  0.00  0.00    +0.386 N 
ATOM      2  N   UNL     1      32.101  -9.260 -21.724  0.00  0.00    +0.386 N 
ATOM      3  C   UNL     1      32.705  -9.713 -22.983  0.00  0.00    -0.101 C 
ATOM      4  C   UNL     1      31.061 -10.198 -21.289  0.00  0.00    -0.101 C 
ATOM      5  C   UNL     1      33.274 -11.128 -22.838  0.00  0.00    -0.101 C 
ATOM      6  C   UNL     1      31.629 -11.615 -21.144  0.00  0.00    -0.101 C 
ATOM      7  H   UNL     1      31.507 -12.095 -23.116  0.00  0.00    -0.080 HD
ATOM      8  H   UNL     1      32.829  -9.234 -21.010  0.00  0.00    -0.080 HD
ENDROOT
BRANCH   1   9
ATOM      9  C   UNL     1      32.779 -13.416 -22.260  0.00  0.00    -0.043 C 
BRANCH   9  10
ATOM     10  C   UNL     1      33.542 -13.832 -23.525  0.00  0.00    +0.112 C 
BRANCH  10  13
ATOM     11  O   UNL     1      35.547 -19.301 -21.885  0.00  0.00    -0.440 OA
ATOM     12  O   UNL     1      35.101 -20.232 -23.956  0.00  0.00    -0.245 OA
ATOM     13  C   UNL     1      33.945 -15.289 -23.475  0.00  0.00    -0.002 C 
ATOM     14  C   UNL     1      34.483 -15.839 -22.307  0.00  0.00    -0.024 C 
ATOM     15  C   UNL     1      34.836 -17.177 -22.316  0.00  0.00    +0.023 C 
ATOM     16  C   UNL     1      33.769 -16.077 -24.625  0.00  0.00    -0.002 C 
ATOM     17  C   UNL     1      34.658 -17.939 -23.453  0.00  0.00    +0.075 C 
ATOM     18  C   UNL     1      34.130 -17.425 -24.623  0.00  0.00    +0.006 C 
ATOM     19  C   UNL     1      35.416 -18.007 -21.245  0.00  0.00    +0.235 C 
ATOM     20  C   UNL     1      34.676 -15.015 -21.080  0.00  0.00    +0.031 C 
ATOM     21  C   UNL     1      35.110 -19.295 -23.183  0.00  0.00    +0.341 C 
ENDBRANCH  10  13
BRANCH  10  22
ATOM     22  O   UNL     1      32.728 -13.633 -24.680  0.00  0.00    -0.382 OA
ATOM     23  H   UNL     1      32.054 -12.964 -24.490  0.00  0.00    +0.211 HD
ENDBRANCH  10  22
ENDBRANCH   9  10
ENDBRANCH   1   9
BRANCH   2  24
ATOM     24  C   UNL     1      31.558  -7.911 -21.864  0.00  0.00    -0.043 C 
BRANCH  24  25
ATOM     25  C   UNL     1      32.654  -6.857 -21.661  0.00  0.00    +0.112 C 
BRANCH  25  28
ATOM     26  O   UNL     1      34.966  -4.501 -26.733  0.00  0.00    -0.440 OA
ATOM     27  O   UNL     1      33.148  -3.110 -27.074  0.00  0.00    -0.245 OA
ATOM     28  C   UNL     1      32.906  -6.068 -22.927  0.00  0.00    -0.002 C 
ATOM     29  C   UNL     1      34.082  -6.251 -23.660  0.00  0.00    -0.024 C 
ATOM     30  C   UNL     1      34.261  -5.503 -24.809  0.00  0.00    +0.023 C 
ATOM     31  C   UNL     1      31.933  -5.144 -23.349  0.00  0.00    -0.002 C 
ATOM     32  C   UNL     1      33.299  -4.600 -25.212  0.00  0.00    +0.075 C 
ATOM     33  C   UNL     1      32.126  -4.394 -24.510  0.00  0.00    +0.006 C 
ATOM     34  C   UNL     1      35.385  -5.491 -25.761  0.00  0.00    +0.235 C 
ATOM     35  C   UNL     1      35.122  -7.226 -23.223  0.00  0.00    +0.031 C 
ATOM     36  C   UNL     1      33.743  -3.957 -26.439  0.00  0.00    +0.341 C 
ENDBRANCH  25  28
BRANCH  25  37
ATOM     37  O   UNL     1      32.276  -5.942 -20.632  0.00  0.00    -0.382 OA
ATOM     38  H   UNL     1      32.624  -6.251 -19.781  0.00  0.00    +0.211 HD
ENDBRANCH  25  37
ENDBRANCH  24  25
ENDBRANCH   2  24
TORSDOF 8
ENDMDL
MODEL 7
REMARK VINA RESULT:     -10.9      2.775      5.211
REMARK  Name = 59568713
REMARK  8 active torsions:
REMARK  status: ('A' for Active; 'I' for Inactive)
REMARK    1  A    between atoms: N_1  and  C_9
REMARK    2  A    between atoms: N_2  and  C_24
REMARK    3  A    between atoms: C_9  and  C_10
REMARK    4  A    between atoms: C_10  and  C_13
REMARK    5  A    between atoms: C_10  and  O_22
REMARK    6  A    between atoms: C_24  and  C_25
REMARK    7  A    between atoms: C_25  and  C_28
REMARK    8  A    between atoms: C_25  and  O_37
REMARK                            x       y       z     vdW  Elec       q    Type
REMARK                         _______ _______ _______ _____ _____    ______ ____
ROOT
ATOM      1  N   UNL     1      32.121  -9.264 -21.676  0.00  0.00    +0.386 N 
ATOM      2  N   UNL     1      32.257 -12.072 -22.351  0.00  0.00    +0.386 N 
ATOM      3  C   UNL     1      33.282 -11.126 -22.810  0.00  0.00    -0.101 C 
ATOM      4  C   UNL     1      31.677 -11.621 -21.081  0.00  0.00    -0.101 C 
ATOM      5  C   UNL     1      32.701  -9.715 -22.946  0.00  0.00    -0.101 C 
ATOM      6  C   UNL     1      31.096 -10.209 -21.216  0.00  0.00    -0.101 C 
ATOM      7  H   UNL     1      32.863  -9.229 -20.978  0.00  0.00    -0.080 HD
ATOM      8  H   UNL     1      31.514 -12.104 -23.050  0.00  0.00    -0.080 HD
ENDROOT
BRANCH   1   9
ATOM      9  C   UNL     1      31.564  -7.919 -21.809  0.00  0.00    -0.043 C 
BRANCH   9  10
ATOM     10  C   UNL     1      32.652  -6.856 -21.614  0.00  0.00    +0.112 C 
BRANCH  10  13
ATOM     11  O   UNL     1      34.925  -4.522 -26.714  0.00  0.00    -0.440 OA
ATOM     12  O   UNL     1      33.107  -3.129 -27.044  0.00  0.00    -0.245 OA
ATOM     13  C   UNL     1      32.894  -6.071 -22.885  0.00  0.00    -0.002 C 
ATOM     14  C   UNL     1      34.064  -6.261 -23.628  0.00  0.00    -0.024 C 
ATOM     15  C   UNL     1      34.235  -5.516 -24.781  0.00  0.00    +0.023 C 
ATOM     16  C   UNL     1      31.921  -5.148 -23.301  0.00  0.00    -0.002 C 
ATOM     17  C   UNL     1      33.270  -4.612 -25.178  0.00  0.00    +0.075 C 
ATOM     18  C   UNL     1      32.104  -4.401 -24.466  0.00  0.00    +0.006 C 
ATOM     19  C   UNL     1      35.351  -5.511 -25.743  0.00  0.00    +0.235 C 
ATOM     20  C   UNL     1      35.105  -7.237 -23.196  0.00  0.00    +0.031 C 
ATOM     21  C   UNL     1      33.706  -3.975 -26.411  0.00  0.00    +0.341 C 
ENDBRANCH  10  13
BRANCH  10  22
ATOM     22  O   UNL     1      32.270  -5.939 -20.589  0.00  0.00    -0.382 OA
ATOM     23  H   UNL     1      31.974  -5.108 -20.991  0.00  0.00    +0.211 HD
ENDBRANCH  10  22
ENDBRANCH   9  10
ENDBRANCH   1   9
BRANCH   2  24
ATOM     24  C   UNL     1      32.812 -13.417 -22.220  0.00  0.00    -0.043 C 
BRANCH  24  25
ATOM     25  C   UNL     1      33.575 -13.818 -23.488  0.00  0.00    +0.112 C 
BRANCH  25  28
ATOM     26  O   UNL     1      35.526 -19.333 -21.936  0.00  0.00    -0.440 OA
ATOM     27  O   UNL     1      35.075 -20.225 -24.023  0.00  0.00    -0.245 OA
ATOM     28  C   UNL     1      33.965 -15.280 -23.461  0.00  0.00    -0.002 C 
ATOM     29  C   UNL     1      34.496 -15.855 -22.303  0.00  0.00    -0.024 C 
ATOM     30  C   UNL     1      34.836 -17.195 -22.334  0.00  0.00    +0.023 C 
ATOM     31  C   UNL     1      33.784 -16.047 -24.626  0.00  0.00    -0.002 C 
ATOM     32  C   UNL     1      34.653 -17.937 -23.483  0.00  0.00    +0.075 C 
ATOM     33  C   UNL     1      34.132 -17.398 -24.644  0.00  0.00    +0.006 C 
ATOM     34  C   UNL     1      35.406 -18.048 -21.276  0.00  0.00    +0.235 C 
ATOM     35  C   UNL     1      34.694 -15.053 -21.062  0.00  0.00    +0.031 C 
ATOM     36  C   UNL     1      35.092 -19.301 -23.235  0.00  0.00    +0.341 C 
ENDBRANCH  25  28
BRANCH  25  37
ATOM     37  O   UNL     1      32.768 -13.593 -24.644  0.00  0.00    -0.382 OA
ATOM     38  H   UNL     1      32.281 -12.760 -24.541  0.00  0.00    +0.211 HD
ENDBRANCH  25  37
ENDBRANCH  24  25
ENDBRANCH   2  24
TORSDOF 8
ENDMDL
MODEL 8
REMARK VINA RESULT:     -10.8      2.551      4.861
REMARK  Name = 59568713
REMARK  8 active torsions:
REMARK  status: ('A' for Active; 'I' for Inactive)
REMARK    1  A    between atoms: N_1  and  C_9
REMARK    2  A    between atoms: N_2  and  C_24
REMARK    3  A    between atoms: C_9  and  C_10
REMARK    4  A    between atoms: C_10  and  C_13
REMARK    5  A    between atoms: C_10  and  O_22
REMARK    6  A    between atoms: C_24  and  C_25
REMARK    7  A    between atoms: C_25  and  C_28
REMARK    8  A    between atoms: C_25  and  O_37
REMARK                            x       y       z     vdW  Elec       q    Type
REMARK                         _______ _______ _______ _____ _____    ______ ____
ROOT
ATOM      1  N   UNL     1      32.272  -9.828 -20.589  0.00  0.00    +0.386 N 
ATOM      2  N   UNL     1      31.905 -12.261 -22.107  0.00  0.00    +0.386 N 
ATOM      3  C   UNL     1      32.683 -11.137 -22.643  0.00  0.00    -0.101 C 
ATOM      4  C   UNL     1      31.979 -12.282 -20.641  0.00  0.00    -0.101 C 
ATOM      5  C   UNL     1      32.198  -9.808 -22.054  0.00  0.00    -0.101 C 
ATOM      6  C   UNL     1      31.495 -10.952 -20.052  0.00  0.00    -0.101 C 
ATOM      7  H   UNL     1      33.247  -9.952 -20.317  0.00  0.00    -0.080 HD
ATOM      8  H   UNL     1      30.929 -12.135 -22.377  0.00  0.00    -0.080 HD
ENDROOT
BRANCH   1   9
ATOM      9  C   UNL     1      31.806  -8.561 -20.029  0.00  0.00    -0.043 C 
BRANCH   9  10
ATOM     10  C   UNL     1      32.815  -7.438 -20.304  0.00  0.00    +0.112 C 
BRANCH  10  13
ATOM     11  O   UNL     1      31.763  -3.664 -24.915  0.00  0.00    -0.440 OA
ATOM     12  O   UNL     1      29.833  -2.819 -23.957  0.00  0.00    -0.245 OA
ATOM     13  C   UNL     1      32.246  -6.400 -21.246  0.00  0.00    -0.002 C 
ATOM     14  C   UNL     1      32.887  -6.106 -22.454  0.00  0.00    -0.024 C 
ATOM     15  C   UNL     1      32.324  -5.148 -23.277  0.00  0.00    +0.023 C 
ATOM     16  C   UNL     1      31.061  -5.738 -20.882  0.00  0.00    -0.002 C 
ATOM     17  C   UNL     1      31.160  -4.505 -22.907  0.00  0.00    +0.075 C 
ATOM     18  C   UNL     1      30.503  -4.772 -21.720  0.00  0.00    +0.006 C 
ATOM     19  C   UNL     1      32.776  -4.646 -24.587  0.00  0.00    +0.235 C 
ATOM     20  C   UNL     1      34.144  -6.801 -22.852  0.00  0.00    +0.031 C 
ATOM     21  C   UNL     1      30.798  -3.557 -23.949  0.00  0.00    +0.341 C 
ENDBRANCH  10  13
BRANCH  10  22
ATOM     22  O   UNL     1      33.174  -6.787 -19.086  0.00  0.00    -0.382 OA
ATOM     23  H   UNL     1      32.399  -6.737 -18.505  0.00  0.00    +0.211 HD
ENDBRANCH  10  22
ENDBRANCH   9  10
ENDBRANCH   1   9
BRANCH   2  24
ATOM     24  C   UNL     1      32.369 -13.528 -22.668  0.00  0.00    -0.043 C 
BRANCH  24  25
ATOM     25  C   UNL     1      33.883 -13.686 -22.480  0.00  0.00    +0.112 C 
BRANCH  25  28
ATOM     26  O   UNL     1      35.129 -19.569 -23.164  0.00  0.00    -0.440 OA
ATOM     27  O   UNL     1      35.650 -19.855 -20.927  0.00  0.00    -0.245 OA
ATOM     28  C   UNL     1      34.267 -15.136 -22.275  0.00  0.00    -0.002 C 
ATOM     29  C   UNL     1      34.260 -16.034 -23.347  0.00  0.00    -0.024 C 
ATOM     30  C   UNL     1      34.619 -17.347 -23.104  0.00  0.00    +0.023 C 
ATOM     31  C   UNL     1      34.629 -15.561 -20.985  0.00  0.00    -0.002 C 
ATOM     32  C   UNL     1      34.972 -17.751 -21.833  0.00  0.00    +0.075 C 
ATOM     33  C   UNL     1      34.988 -16.889 -20.752  0.00  0.00    +0.006 C 
ATOM     34  C   UNL     1      34.699 -18.489 -24.030  0.00  0.00    +0.235 C 
ATOM     35  C   UNL     1      33.877 -15.596 -24.720  0.00  0.00    +0.031 C 
ATOM     36  C   UNL     1      35.298 -19.168 -21.865  0.00  0.00    +0.341 C 
ENDBRANCH  25  28
BRANCH  25  37
ATOM     37  O   UNL     1      34.577 -13.199 -23.629  0.00  0.00    -0.382 OA
ATOM     38  H   UNL     1      34.943 -13.947 -24.125  0.00  0.00    +0.211 HD
ENDBRANCH  25  37
ENDBRANCH  24  25
ENDBRANCH   2  24
TORSDOF 8
ENDMDL
MODEL 9
REMARK VINA RESULT:     -10.8      4.091     12.149
REMARK  Name = 59568713
REMARK  8 active torsions:
REMARK  status: ('A' for Active; 'I' for Inactive)
REMARK    1  A    between atoms: N_1  and  C_9
REMARK    2  A    between atoms: N_2  and  C_24
REMARK    3  A    between atoms: C_9  and  C_10
REMARK    4  A    between atoms: C_10  and  C_13
REMARK    5  A    between atoms: C_10  and  O_22
REMARK    6  A    between atoms: C_24  and  C_25
REMARK    7  A    between atoms: C_25  and  C_28
REMARK    8  A    between atoms: C_25  and  O_37
REMARK                            x       y       z     vdW  Elec       q    Type
REMARK                         _______ _______ _______ _____ _____    ______ ____
ROOT
ATOM      1  N   UNL     1      34.118 -22.107 -18.633  0.00  0.00    +0.386 N 
ATOM      2  N   UNL     1      34.869 -20.036 -20.506  0.00  0.00    +0.386 N 
ATOM      3  C   UNL     1      33.491 -20.156 -20.013  0.00  0.00    -0.101 C 
ATOM      4  C   UNL     1      35.817 -20.537 -19.504  0.00  0.00    -0.101 C 
ATOM      5  C   UNL     1      33.171 -21.606 -19.636  0.00  0.00    -0.101 C 
ATOM      6  C   UNL     1      35.496 -21.987 -19.125  0.00  0.00    -0.101 C 
ATOM      7  H   UNL     1      34.027 -21.538 -17.792  0.00  0.00    -0.080 HD
ATOM      8  H   UNL     1      34.960 -20.608 -21.347  0.00  0.00    -0.080 HD
ENDROOT
BRANCH   1   9
ATOM      9  C   UNL     1      33.813 -23.491 -18.277  0.00  0.00    -0.043 C 
BRANCH   9  10
ATOM     10  C   UNL     1      33.097 -23.561 -16.922  0.00  0.00    +0.112 C 
BRANCH  10  13
ATOM     11  O   UNL     1      35.860 -23.866 -11.546  0.00  0.00    -0.440 OA
ATOM     12  O   UNL     1      37.809 -22.907 -12.345  0.00  0.00    -0.245 OA
ATOM     13  C   UNL     1      34.077 -23.477 -15.772  0.00  0.00    -0.002 C 
ATOM     14  C   UNL     1      33.724 -23.939 -14.500  0.00  0.00    -0.024 C 
ATOM     15  C   UNL     1      34.658 -23.837 -13.485  0.00  0.00    +0.023 C 
ATOM     16  C   UNL     1      35.347 -22.925 -16.009  0.00  0.00    -0.002 C 
ATOM     17  C   UNL     1      35.902 -23.292 -13.731  0.00  0.00    +0.075 C 
ATOM     18  C   UNL     1      36.281 -22.827 -14.976  0.00  0.00    +0.006 C 
ATOM     19  C   UNL     1      34.560 -24.237 -12.069  0.00  0.00    +0.235 C 
ATOM     20  C   UNL     1      32.379 -24.526 -14.235  0.00  0.00    +0.031 C 
ATOM     21  C   UNL     1      36.672 -23.308 -12.498  0.00  0.00    +0.341 C 
ENDBRANCH  10  13
BRANCH  10  22
ATOM     22  O   UNL     1      32.169 -22.484 -16.797  0.00  0.00    -0.382 OA
ATOM     23  H   UNL     1      32.303 -21.856 -17.523  0.00  0.00    +0.211 HD
ENDBRANCH  10  22
ENDBRANCH   9  10
ENDBRANCH   1   9
BRANCH   2  24
ATOM     24  C   UNL     1      35.174 -18.654 -20.864  0.00  0.00    -0.043 C 
BRANCH  24  25
ATOM     25  C   UNL     1      35.261 -18.491 -22.387  0.00  0.00    +0.112 C 
BRANCH  25  28
ATOM     26  O   UNL     1      33.112 -13.711 -25.414  0.00  0.00    -0.440 OA
ATOM     27  O   UNL     1      33.565 -12.244 -23.682  0.00  0.00    -0.245 OA
ATOM     28  C   UNL     1      34.822 -17.110 -22.823  0.00  0.00    -0.002 C 
ATOM     29  C   UNL     1      34.258 -16.907 -24.087  0.00  0.00    -0.024 C 
ATOM     30  C   UNL     1      33.875 -15.625 -24.434  0.00  0.00    +0.023 C 
ATOM     31  C   UNL     1      34.996 -16.035 -21.933  0.00  0.00    -0.002 C 
ATOM     32  C   UNL     1      34.050 -14.579 -23.551  0.00  0.00    +0.075 C 
ATOM     33  C   UNL     1      34.606 -14.746 -22.296  0.00  0.00    +0.006 C 
ATOM     34  C   UNL     1      33.263 -15.128 -25.679  0.00  0.00    +0.235 C 
ATOM     35  C   UNL     1      34.070 -18.037 -25.040  0.00  0.00    +0.031 C 
ATOM     36  C   UNL     1      33.566 -13.356 -24.171  0.00  0.00    +0.341 C 
ENDBRANCH  25  28
BRANCH  25  37
ATOM     37  O   UNL     1      36.604 -18.693 -22.830  0.00  0.00    -0.382 OA
ATOM     38  H   UNL     1      36.701 -18.349 -23.731  0.00  0.00    +0.211 HD
ENDBRANCH  25  37
ENDBRANCH  24  25
ENDBRANCH   2  24
TORSDOF 8
ENDMDL
