MODEL 1
REMARK VINA RESULT:     -11.9      0.000      0.000
REMARK  Name = 24812719
REMARK  3 active torsions:
REMARK  status: ('A' for Active; 'I' for Inactive)
REMARK    1  A    between atoms: N_2  and  C_22
REMARK    2  A    between atoms: C_3  and  C_12
REMARK    3  A    between atoms: C_25  and  C_31
REMARK                            x       y       z     vdW  Elec       q    Type
REMARK                         _______ _______ _______ _____ _____    ______ ____
ROOT
ATOM      1  O   UNL     1      34.825 -15.689 -21.506  0.00  0.00    -0.269 OA
ATOM      2  N   UNL     1      34.727 -17.604 -22.872  0.00  0.00    -0.233 N 
ATOM      3  C   UNL     1      33.854 -15.390 -23.631  0.00  0.00    +0.046 C 
ATOM      4  C   UNL     1      33.585 -15.919 -24.842  0.00  0.00    -0.016 C 
ATOM      5  C   UNL     1      34.501 -16.242 -22.558  0.00  0.00    +0.256 C 
ATOM      6  C   UNL     1      34.435 -18.075 -24.147  0.00  0.00    +0.072 C 
ATOM      7  C   UNL     1      33.902 -17.304 -25.098  0.00  0.00    +0.012 C 
ATOM      8  C   UNL     1      32.954 -15.200 -26.005  0.00  0.00    +0.031 C 
ENDROOT
BRANCH   3  12
ATOM      9  N   UNL     1      32.713  -9.992 -22.446  0.00  0.00    -0.342 NA
ATOM     10  N   UNL     1      31.235 -10.661 -20.666  0.00  0.00    -0.170 NA
ATOM     11  N   UNL     1      31.583  -8.395 -21.150  0.00  0.00    -0.293 N 
ATOM     12  C   UNL     1      33.551 -13.981 -23.316  0.00  0.00    -0.017 C 
ATOM     13  C   UNL     1      32.674 -13.667 -22.283  0.00  0.00    +0.056 C 
ATOM     14  C   UNL     1      34.141 -12.958 -24.051  0.00  0.00    -0.022 C 
ATOM     15  C   UNL     1      32.390 -12.323 -21.987  0.00  0.00    +0.029 C 
ATOM     16  C   UNL     1      32.979 -11.281 -22.721  0.00  0.00    +0.124 C 
ATOM     17  C   UNL     1      33.852 -11.624 -23.750  0.00  0.00    +0.085 C 
ATOM     18  C   UNL     1      31.522 -11.941 -20.967  0.00  0.00    +0.110 C 
ATOM     19  C   UNL     1      31.856  -9.752 -21.434  0.00  0.00    +0.141 C 
ATOM     20  H   UNL     1      32.011  -7.686 -21.681  0.00  0.00    +0.155 HD
ATOM     21  H   UNL     1      30.965  -8.160 -20.421  0.00  0.00    +0.155 HD
ENDBRANCH   3  12
BRANCH   2  22
ATOM     22  C   UNL     1      35.288 -18.494 -21.872  0.00  0.00    +0.058 C 
ATOM     23  C   UNL     1      34.486 -19.466 -21.276  0.00  0.00    +0.019 C 
ATOM     24  C   UNL     1      36.628 -18.376 -21.507  0.00  0.00    +0.015 C 
ATOM     25  C   UNL     1      35.024 -20.321 -20.315  0.00  0.00    +0.073 C 
ATOM     26  C   UNL     1      37.167 -19.231 -20.546  0.00  0.00    +0.001 C 
ATOM     27  C   UNL     1      36.365 -20.203 -19.948  0.00  0.00    +0.004 C 
BRANCH  25  31
ATOM     28  F   UNL     1      34.561 -22.639 -19.946  0.00  0.00    -0.166 F 
ATOM     29  F   UNL     1      34.135 -21.279 -18.311  0.00  0.00    -0.166 F 
ATOM     30  F   UNL     1      32.864 -21.285 -20.075  0.00  0.00    -0.166 F 
ATOM     31  C   UNL     1      34.167 -21.360 -19.675  0.00  0.00    +0.419 C 
ENDBRANCH  25  31
ENDBRANCH   2  22
TORSDOF 3
ENDMDL
MODEL 2
REMARK VINA RESULT:     -11.7      3.935      8.320
REMARK  Name = 24812719
REMARK  3 active torsions:
REMARK  status: ('A' for Active; 'I' for Inactive)
REMARK    1  A    between atoms: N_2  and  C_22
REMARK    2  A    between atoms: C_3  and  C_12
REMARK    3  A    between atoms: C_25  and  C_31
REMARK                            x       y       z     vdW  Elec       q    Type
REMARK                         _______ _______ _______ _____ _____    ______ ____
ROOT
ATOM      1  O   UNL     1      34.542 -15.517 -21.568  0.00  0.00    -0.269 OA
ATOM      2  N   UNL     1      33.718 -15.059 -23.726  0.00  0.00    -0.233 N 
ATOM      3  C   UNL     1      34.514 -17.334 -23.066  0.00  0.00    +0.046 C 
ATOM      4  C   UNL     1      34.134 -17.808 -24.270  0.00  0.00    -0.016 C 
ATOM      5  C   UNL     1      34.276 -15.879 -22.715  0.00  0.00    +0.256 C 
ATOM      6  C   UNL     1      33.340 -15.623 -24.939  0.00  0.00    +0.072 C 
ATOM      7  C   UNL     1      33.517 -16.915 -25.223  0.00  0.00    +0.012 C 
ATOM      8  C   UNL     1      34.296 -19.223 -24.759  0.00  0.00    +0.031 C 
ENDROOT
BRANCH   3  12
ATOM      9  N   UNL     1      36.964 -20.646 -19.210  0.00  0.00    -0.342 NA
ATOM     10  N   UNL     1      34.861 -21.729 -18.757  0.00  0.00    -0.170 NA
ATOM     11  N   UNL     1      36.807 -22.359 -17.614  0.00  0.00    -0.293 N 
ATOM     12  C   UNL     1      35.148 -18.202 -22.057  0.00  0.00    -0.017 C 
ATOM     13  C   UNL     1      34.390 -19.143 -21.366  0.00  0.00    +0.056 C 
ATOM     14  C   UNL     1      36.507 -18.087 -21.789  0.00  0.00    -0.022 C 
ATOM     15  C   UNL     1      34.999 -19.968 -20.406  0.00  0.00    +0.029 C 
ATOM     16  C   UNL     1      36.372 -19.861 -20.127  0.00  0.00    +0.124 C 
ATOM     17  C   UNL     1      37.106 -18.912 -20.833  0.00  0.00    +0.085 C 
ATOM     18  C   UNL     1      34.298 -20.928 -19.681  0.00  0.00    +0.110 C 
ATOM     19  C   UNL     1      36.176 -21.537 -18.575  0.00  0.00    +0.141 C 
ATOM     20  H   UNL     1      37.770 -22.262 -17.440  0.00  0.00    +0.155 HD
ATOM     21  H   UNL     1      36.282 -23.029 -17.120  0.00  0.00    +0.155 HD
ENDBRANCH   3  12
BRANCH   2  22
ATOM     22  C   UNL     1      33.518 -13.643 -23.481  0.00  0.00    +0.058 C 
ATOM     23  C   UNL     1      32.724 -13.225 -22.415  0.00  0.00    +0.019 C 
ATOM     24  C   UNL     1      34.119 -12.700 -24.316  0.00  0.00    +0.015 C 
ATOM     25  C   UNL     1      32.532 -11.864 -22.180  0.00  0.00    +0.073 C 
ATOM     26  C   UNL     1      33.926 -11.339 -24.081  0.00  0.00    +0.001 C 
ATOM     27  C   UNL     1      33.132 -10.920 -23.014  0.00  0.00    +0.004 C 
BRANCH  25  31
ATOM     28  F   UNL     1      32.033 -10.193 -20.541  0.00  0.00    -0.166 F 
ATOM     29  F   UNL     1      30.357 -11.303 -21.356  0.00  0.00    -0.166 F 
ATOM     30  F   UNL     1      31.732 -12.272 -19.979  0.00  0.00    -0.166 F 
ATOM     31  C   UNL     1      31.681 -11.415 -21.040  0.00  0.00    +0.419 C 
ENDBRANCH  25  31
ENDBRANCH   2  22
TORSDOF 3
ENDMDL
MODEL 3
REMARK VINA RESULT:     -10.4      3.131      5.530
REMARK  Name = 24812719
REMARK  3 active torsions:
REMARK  status: ('A' for Active; 'I' for Inactive)
REMARK    1  A    between atoms: N_2  and  C_22
REMARK    2  A    between atoms: C_3  and  C_12
REMARK    3  A    between atoms: C_25  and  C_31
REMARK                            x       y       z     vdW  Elec       q    Type
REMARK                         _______ _______ _______ _____ _____    ______ ____
ROOT
ATOM      1  O   UNL     1      33.442 -11.509 -23.867  0.00  0.00    -0.269 OA
ATOM      2  N   UNL     1      32.930 -13.117 -22.224  0.00  0.00    -0.233 N 
ATOM      3  C   UNL     1      32.473 -10.684 -21.885  0.00  0.00    +0.046 C 
ATOM      4  C   UNL     1      31.886 -10.966 -20.704  0.00  0.00    -0.016 C 
ATOM      5  C   UNL     1      33.011 -11.805 -22.751  0.00  0.00    +0.256 C 
ATOM      6  C   UNL     1      32.300 -13.331 -21.003  0.00  0.00    +0.072 C 
ATOM      7  C   UNL     1      31.792 -12.339 -20.268  0.00  0.00    +0.012 C 
ATOM      8  C   UNL     1      31.300  -9.966 -19.742  0.00  0.00    +0.031 C 
ENDROOT
BRANCH   3  12
ATOM      9  N   UNL     1      32.965  -5.391 -23.779  0.00  0.00    -0.342 NA
ATOM     10  N   UNL     1      30.707  -4.902 -23.097  0.00  0.00    -0.170 NA
ATOM     11  N   UNL     1      32.034  -3.264 -24.118  0.00  0.00    -0.293 N 
ATOM     12  C   UNL     1      32.594  -9.299 -22.379  0.00  0.00    -0.017 C 
ATOM     13  C   UNL     1      31.523  -8.418 -22.265  0.00  0.00    +0.056 C 
ATOM     14  C   UNL     1      33.781  -8.866 -22.960  0.00  0.00    -0.022 C 
ATOM     15  C   UNL     1      31.646  -7.100 -22.736  0.00  0.00    +0.029 C 
ATOM     16  C   UNL     1      32.838  -6.650 -23.325  0.00  0.00    +0.124 C 
ATOM     17  C   UNL     1      33.894  -7.553 -23.426  0.00  0.00    +0.085 C 
ATOM     18  C   UNL     1      30.613  -6.170 -22.653  0.00  0.00    +0.110 C 
ATOM     19  C   UNL     1      31.893  -4.586 -23.640  0.00  0.00    +0.141 C 
ATOM     20  H   UNL     1      32.882  -2.977 -24.526  0.00  0.00    +0.155 HD
ATOM     21  H   UNL     1      31.284  -2.631 -24.043  0.00  0.00    +0.155 HD
ENDBRANCH   3  12
BRANCH   2  22
ATOM     22  C   UNL     1      33.480 -14.233 -22.970  0.00  0.00    +0.058 C 
ATOM     23  C   UNL     1      34.085 -15.292 -22.296  0.00  0.00    +0.019 C 
ATOM     24  C   UNL     1      33.406 -14.243 -24.363  0.00  0.00    +0.015 C 
ATOM     25  C   UNL     1      34.615 -16.364 -23.014  0.00  0.00    +0.073 C 
ATOM     26  C   UNL     1      33.935 -15.315 -25.081  0.00  0.00    +0.001 C 
ATOM     27  C   UNL     1      34.541 -16.376 -24.407  0.00  0.00    +0.004 C 
BRANCH  25  31
ATOM     28  F   UNL     1      36.495 -17.826 -22.785  0.00  0.00    -0.166 F 
ATOM     29  F   UNL     1      35.464 -17.257 -20.964  0.00  0.00    -0.166 F 
ATOM     30  F   UNL     1      34.527 -18.646 -22.350  0.00  0.00    -0.166 F 
ATOM     31  C   UNL     1      35.263 -17.498 -22.294  0.00  0.00    +0.419 C 
ENDBRANCH  25  31
ENDBRANCH   2  22
TORSDOF 3
ENDMDL
MODEL 4
REMARK VINA RESULT:     -10.2      4.686      8.747
REMARK  Name = 24812719
REMARK  3 active torsions:
REMARK  status: ('A' for Active; 'I' for Inactive)
REMARK    1  A    between atoms: N_2  and  C_22
REMARK    2  A    between atoms: C_3  and  C_12
REMARK    3  A    between atoms: C_25  and  C_31
REMARK                            x       y       z     vdW  Elec       q    Type
REMARK                         _______ _______ _______ _____ _____    ______ ____
ROOT
ATOM      1  O   UNL     1      34.462 -15.369 -21.487  0.00  0.00    -0.269 OA
ATOM      2  N   UNL     1      33.687 -14.808 -23.639  0.00  0.00    -0.233 N 
ATOM      3  C   UNL     1      34.489 -17.107 -23.078  0.00  0.00    +0.046 C 
ATOM      4  C   UNL     1      34.144 -17.522 -24.313  0.00  0.00    -0.016 C 
ATOM      5  C   UNL     1      34.228 -15.674 -22.658  0.00  0.00    +0.256 C 
ATOM      6  C   UNL     1      33.345 -15.311 -24.889  0.00  0.00    +0.072 C 
ATOM      7  C   UNL     1      33.542 -16.586 -25.234  0.00  0.00    +0.012 C 
ATOM      8  C   UNL     1      34.332 -18.908 -24.870  0.00  0.00    +0.031 C 
ENDROOT
BRANCH   3  12
ATOM      9  N   UNL     1      36.876 -20.593 -19.337  0.00  0.00    -0.342 NA
ATOM     10  N   UNL     1      34.749 -21.639 -18.905  0.00  0.00    -0.170 NA
ATOM     11  N   UNL     1      36.685 -22.350 -17.793  0.00  0.00    -0.293 N 
ATOM     12  C   UNL     1      35.106 -18.020 -22.098  0.00  0.00    -0.017 C 
ATOM     13  C   UNL     1      34.329 -18.963 -21.432  0.00  0.00    +0.056 C 
ATOM     14  C   UNL     1      36.470 -17.946 -21.835  0.00  0.00    -0.022 C 
ATOM     15  C   UNL     1      34.923 -19.832 -20.501  0.00  0.00    +0.029 C 
ATOM     16  C   UNL     1      36.298 -19.767 -20.227  0.00  0.00    +0.124 C 
ATOM     17  C   UNL     1      37.052 -18.814 -20.907  0.00  0.00    +0.085 C 
ATOM     18  C   UNL     1      34.202 -20.796 -19.802  0.00  0.00    +0.110 C 
ATOM     19  C   UNL     1      36.070 -21.484 -18.725  0.00  0.00    +0.141 C 
ATOM     20  H   UNL     1      37.651 -22.281 -17.621  0.00  0.00    +0.155 HD
ATOM     21  H   UNL     1      36.146 -23.021 -17.316  0.00  0.00    +0.155 HD
ENDBRANCH   3  12
BRANCH   2  22
ATOM     22  C   UNL     1      33.467 -13.408 -23.327  0.00  0.00    +0.058 C 
ATOM     23  C   UNL     1      34.218 -12.424 -23.969  0.00  0.00    +0.019 C 
ATOM     24  C   UNL     1      32.506 -13.047 -22.384  0.00  0.00    +0.015 C 
ATOM     25  C   UNL     1      34.007 -11.079 -23.668  0.00  0.00    +0.073 C 
ATOM     26  C   UNL     1      32.294 -11.702 -22.083  0.00  0.00    +0.001 C 
ATOM     27  C   UNL     1      33.046 -10.717 -22.725  0.00  0.00    +0.004 C 
BRANCH  25  31
ATOM     28  F   UNL     1      34.138  -8.851 -24.530  0.00  0.00    -0.166 F 
ATOM     29  F   UNL     1      35.951  -9.685 -23.682  0.00  0.00    -0.166 F 
ATOM     30  F   UNL     1      35.221 -10.405 -25.599  0.00  0.00    -0.166 F 
ATOM     31  C   UNL     1      34.811 -10.026 -24.354  0.00  0.00    +0.419 C 
ENDBRANCH  25  31
ENDBRANCH   2  22
TORSDOF 3
ENDMDL
MODEL 5
REMARK VINA RESULT:     -10.2      3.496      5.820
REMARK  Name = 24812719
REMARK  3 active torsions:
REMARK  status: ('A' for Active; 'I' for Inactive)
REMARK    1  A    between atoms: N_2  and  C_22
REMARK    2  A    between atoms: C_3  and  C_12
REMARK    3  A    between atoms: C_25  and  C_31
REMARK                            x       y       z     vdW  Elec       q    Type
REMARK                         _______ _______ _______ _____ _____    ______ ____
ROOT
ATOM      1  O   UNL     1      33.445 -20.050 -20.406  0.00  0.00    -0.269 OA
ATOM      2  N   UNL     1      35.271 -20.981 -19.247  0.00  0.00    -0.233 N 
ATOM      3  C   UNL     1      35.581 -19.423 -21.176  0.00  0.00    +0.046 C 
ATOM      4  C   UNL     1      36.915 -19.453 -20.977  0.00  0.00    -0.016 C 
ATOM      5  C   UNL     1      34.659 -20.193 -20.252  0.00  0.00    +0.256 C 
ATOM      6  C   UNL     1      36.653 -20.953 -19.096  0.00  0.00    +0.072 C 
ATOM      7  C   UNL     1      37.453 -20.238 -19.891  0.00  0.00    +0.012 C 
ATOM      8  C   UNL     1      37.952 -18.739 -21.802  0.00  0.00    +0.031 C 
ENDROOT
BRANCH   3  12
ATOM      9  N   UNL     1      33.273 -16.443 -25.375  0.00  0.00    -0.342 NA
ATOM     10  N   UNL     1      33.766 -14.383 -24.228  0.00  0.00    -0.170 NA
ATOM     11  N   UNL     1      32.693 -14.371 -26.311  0.00  0.00    -0.293 N 
ATOM     12  C   UNL     1      34.978 -18.638 -22.269  0.00  0.00    -0.017 C 
ATOM     13  C   UNL     1      34.948 -17.249 -22.200  0.00  0.00    +0.056 C 
ATOM     14  C   UNL     1      34.438 -19.282 -23.377  0.00  0.00    -0.022 C 
ATOM     15  C   UNL     1      34.374 -16.506 -23.246  0.00  0.00    +0.029 C 
ATOM     16  C   UNL     1      33.825 -17.145 -24.370  0.00  0.00    +0.124 C 
ATOM     17  C   UNL     1      33.869 -18.536 -24.413  0.00  0.00    +0.085 C 
ATOM     18  C   UNL     1      34.311 -15.115 -23.239  0.00  0.00    +0.110 C 
ATOM     19  C   UNL     1      33.273 -15.101 -25.250  0.00  0.00    +0.141 C 
ATOM     20  H   UNL     1      32.316 -14.846 -27.086  0.00  0.00    +0.155 HD
ATOM     21  H   UNL     1      32.666 -13.387 -26.275  0.00  0.00    +0.155 HD
ENDBRANCH   3  12
BRANCH   2  22
ATOM     22  C   UNL     1      34.454 -21.792 -18.365  0.00  0.00    +0.058 C 
ATOM     23  C   UNL     1      35.026 -22.404 -17.251  0.00  0.00    +0.019 C 
ATOM     24  C   UNL     1      33.096 -21.962 -18.634  0.00  0.00    +0.015 C 
ATOM     25  C   UNL     1      34.241 -23.184 -16.403  0.00  0.00    +0.073 C 
ATOM     26  C   UNL     1      32.310 -22.743 -17.786  0.00  0.00    +0.001 C 
ATOM     27  C   UNL     1      32.882 -23.355 -16.671  0.00  0.00    +0.004 C 
BRANCH  25  31
ATOM     28  F   UNL     1      34.918 -25.201 -15.307  0.00  0.00    -0.166 F 
ATOM     29  F   UNL     1      36.135 -23.439 -14.965  0.00  0.00    -0.166 F 
ATOM     30  F   UNL     1      34.163 -23.586 -14.061  0.00  0.00    -0.166 F 
ATOM     31  C   UNL     1      34.853 -23.840 -15.211  0.00  0.00    +0.419 C 
ENDBRANCH  25  31
ENDBRANCH   2  22
TORSDOF 3
ENDMDL
MODEL 6
REMARK VINA RESULT:     -10.2      6.300     10.481
REMARK  Name = 24812719
REMARK  3 active torsions:
REMARK  status: ('A' for Active; 'I' for Inactive)
REMARK    1  A    between atoms: N_2  and  C_22
REMARK    2  A    between atoms: C_3  and  C_12
REMARK    3  A    between atoms: C_25  and  C_31
REMARK                            x       y       z     vdW  Elec       q    Type
REMARK                         _______ _______ _______ _____ _____    ______ ____
ROOT
ATOM      1  O   UNL     1      34.155 -10.509 -23.759  0.00  0.00    -0.269 OA
ATOM      2  N   UNL     1      32.835  -9.096 -22.415  0.00  0.00    -0.233 N 
ATOM      3  C   UNL     1      32.795 -11.582 -22.163  0.00  0.00    +0.046 C 
ATOM      4  C   UNL     1      31.964 -11.455 -21.108  0.00  0.00    -0.016 C 
ATOM      5  C   UNL     1      33.318 -10.347 -22.870  0.00  0.00    +0.256 C 
ATOM      6  C   UNL     1      31.989  -9.044 -21.313  0.00  0.00    +0.072 C 
ATOM      7  C   UNL     1      31.567 -10.136 -20.672  0.00  0.00    +0.012 C 
ATOM      8  C   UNL     1      31.371 -12.580 -20.304  0.00  0.00    +0.031 C 
ENDROOT
BRANCH   3  12
ATOM      9  N   UNL     1      34.456 -16.635 -24.048  0.00  0.00    -0.342 NA
ATOM     10  N   UNL     1      35.264 -17.223 -21.856  0.00  0.00    -0.170 NA
ATOM     11  N   UNL     1      35.443 -18.725 -23.645  0.00  0.00    -0.293 N 
ATOM     12  C   UNL     1      33.232 -12.904 -22.649  0.00  0.00    -0.017 C 
ATOM     13  C   UNL     1      33.836 -13.806 -21.779  0.00  0.00    +0.056 C 
ATOM     14  C   UNL     1      33.042 -13.257 -23.980  0.00  0.00    -0.022 C 
ATOM     15  C   UNL     1      34.249 -15.065 -22.247  0.00  0.00    +0.029 C 
ATOM     16  C   UNL     1      34.063 -15.433 -23.590  0.00  0.00    +0.124 C 
ATOM     17  C   UNL     1      33.456 -14.511 -24.438  0.00  0.00    +0.085 C 
ATOM     18  C   UNL     1      34.860 -16.012 -21.429  0.00  0.00    +0.110 C 
ATOM     19  C   UNL     1      35.034 -17.464 -23.156  0.00  0.00    +0.141 C 
ATOM     20  H   UNL     1      35.299 -18.956 -24.591  0.00  0.00    +0.155 HD
ATOM     21  H   UNL     1      35.870 -19.372 -23.039  0.00  0.00    +0.155 HD
ENDBRANCH   3  12
BRANCH   2  22
ATOM     22  C   UNL     1      33.245  -7.876 -23.083  0.00  0.00    +0.058 C 
ATOM     23  C   UNL     1      32.371  -6.793 -23.156  0.00  0.00    +0.019 C 
ATOM     24  C   UNL     1      34.514  -7.787 -23.655  0.00  0.00    +0.015 C 
ATOM     25  C   UNL     1      32.765  -5.620 -23.799  0.00  0.00    +0.073 C 
ATOM     26  C   UNL     1      34.909  -6.614 -24.298  0.00  0.00    +0.001 C 
ATOM     27  C   UNL     1      34.034  -5.530 -24.371  0.00  0.00    +0.004 C 
BRANCH  25  31
ATOM     28  F   UNL     1      30.531  -4.785 -23.603  0.00  0.00    -0.166 F 
ATOM     29  F   UNL     1      32.136  -3.451 -23.012  0.00  0.00    -0.166 F 
ATOM     30  F   UNL     1      31.809  -3.886 -25.117  0.00  0.00    -0.166 F 
ATOM     31  C   UNL     1      31.829  -4.461 -23.879  0.00  0.00    +0.419 C 
ENDBRANCH  25  31
ENDBRANCH   2  22
TORSDOF 3
ENDMDL
MODEL 7
REMARK VINA RESULT:     -10.1      6.486     10.213
REMARK  Name = 24812719
REMARK  3 active torsions:
REMARK  status: ('A' for Active; 'I' for Inactive)
REMARK    1  A    between atoms: N_2  and  C_22
REMARK    2  A    between atoms: C_3  and  C_12
REMARK    3  A    between atoms: C_25  and  C_31
REMARK                            x       y       z     vdW  Elec       q    Type
REMARK                         _______ _______ _______ _____ _____    ______ ____
ROOT
ATOM      1  O   UNL     1      36.828 -23.091 -16.187  0.00  0.00    -0.269 OA
ATOM      2  N   UNL     1      35.456 -24.031 -14.520  0.00  0.00    -0.233 N 
ATOM      3  C   UNL     1      34.506 -22.915 -16.544  0.00  0.00    +0.046 C 
ATOM      4  C   UNL     1      33.265 -23.261 -16.145  0.00  0.00    -0.016 C 
ATOM      5  C   UNL     1      35.711 -23.338 -15.728  0.00  0.00    +0.256 C 
ATOM      6  C   UNL     1      34.149 -24.364 -14.180  0.00  0.00    +0.072 C 
ATOM      7  C   UNL     1      33.097 -24.021 -14.928  0.00  0.00    +0.012 C 
ATOM      8  C   UNL     1      31.979 -22.922 -16.849  0.00  0.00    +0.031 C 
ENDROOT
BRANCH   3  12
ATOM      9  N   UNL     1      35.407 -19.948 -21.259  0.00  0.00    -0.342 NA
ATOM     10  N   UNL     1      33.034 -19.768 -21.638  0.00  0.00    -0.170 NA
ATOM     11  N   UNL     1      34.565 -18.801 -23.125  0.00  0.00    -0.293 N 
ATOM     12  C   UNL     1      34.734 -22.140 -17.778  0.00  0.00    -0.017 C 
ATOM     13  C   UNL     1      33.656 -21.692 -18.534  0.00  0.00    +0.056 C 
ATOM     14  C   UNL     1      36.030 -21.850 -18.192  0.00  0.00    -0.022 C 
ATOM     15  C   UNL     1      33.879 -20.953 -19.708  0.00  0.00    +0.029 C 
ATOM     16  C   UNL     1      35.182 -20.655 -20.137  0.00  0.00    +0.124 C 
ATOM     17  C   UNL     1      36.243 -21.115 -19.361  0.00  0.00    +0.085 C 
ATOM     18  C   UNL     1      32.844 -20.477 -20.509  0.00  0.00    +0.110 C 
ATOM     19  C   UNL     1      34.321 -19.544 -21.948  0.00  0.00    +0.141 C 
ATOM     20  H   UNL     1      35.489 -18.607 -23.401  0.00  0.00    +0.155 HD
ATOM     21  H   UNL     1      33.810 -18.478 -23.668  0.00  0.00    +0.155 HD
ENDBRANCH   3  12
BRANCH   2  22
ATOM     22  C   UNL     1      36.558 -24.415 -13.658  0.00  0.00    +0.058 C 
ATOM     23  C   UNL     1      37.760 -24.849 -14.214  0.00  0.00    +0.019 C 
ATOM     24  C   UNL     1      36.413 -24.351 -12.272  0.00  0.00    +0.015 C 
ATOM     25  C   UNL     1      38.818 -25.218 -13.385  0.00  0.00    +0.073 C 
ATOM     26  C   UNL     1      37.472 -24.720 -11.443  0.00  0.00    +0.001 C 
ATOM     27  C   UNL     1      38.675 -25.155 -11.999  0.00  0.00    +0.004 C 
BRANCH  25  31
ATOM     28  F   UNL     1      40.804 -26.537 -13.173  0.00  0.00    -0.166 F 
ATOM     29  F   UNL     1      39.950 -26.357 -15.159  0.00  0.00    -0.166 F 
ATOM     30  F   UNL     1      40.959 -24.656 -14.255  0.00  0.00    -0.166 F 
ATOM     31  C   UNL     1      40.105 -25.685 -13.980  0.00  0.00    +0.419 C 
ENDBRANCH  25  31
ENDBRANCH   2  22
TORSDOF 3
ENDMDL
MODEL 8
REMARK VINA RESULT:     -10.1      4.949      9.044
REMARK  Name = 24812719
REMARK  3 active torsions:
REMARK  status: ('A' for Active; 'I' for Inactive)
REMARK    1  A    between atoms: N_2  and  C_22
REMARK    2  A    between atoms: C_3  and  C_12
REMARK    3  A    between atoms: C_25  and  C_31
REMARK                            x       y       z     vdW  Elec       q    Type
REMARK                         _______ _______ _______ _____ _____    ______ ____
ROOT
ATOM      1  O   UNL     1      34.299 -12.502 -22.082  0.00  0.00    -0.269 OA
ATOM      2  N   UNL     1      33.748 -11.573 -24.175  0.00  0.00    -0.233 N 
ATOM      3  C   UNL     1      33.961 -14.039 -23.835  0.00  0.00    +0.046 C 
ATOM      4  C   UNL     1      33.565 -14.242 -25.109  0.00  0.00    -0.016 C 
ATOM      5  C   UNL     1      34.036 -12.631 -23.279  0.00  0.00    +0.256 C 
ATOM      6  C   UNL     1      33.334 -11.860 -25.471  0.00  0.00    +0.072 C 
ATOM      7  C   UNL     1      33.233 -13.107 -25.938  0.00  0.00    +0.012 C 
ATOM      8  C   UNL     1      33.436 -15.574 -25.797  0.00  0.00    +0.031 C 
ENDROOT
BRANCH   3  12
ATOM      9  N   UNL     1      35.304 -18.317 -20.409  0.00  0.00    -0.342 NA
ATOM     10  N   UNL     1      35.553 -19.794 -22.297  0.00  0.00    -0.170 NA
ATOM     11  N   UNL     1      35.906 -20.566 -20.113  0.00  0.00    -0.293 N 
ATOM     12  C   UNL     1      34.312 -15.162 -22.945  0.00  0.00    -0.017 C 
ATOM     13  C   UNL     1      34.598 -16.415 -23.478  0.00  0.00    +0.056 C 
ATOM     14  C   UNL     1      34.360 -14.974 -21.568  0.00  0.00    -0.022 C 
ATOM     15  C   UNL     1      34.933 -17.480 -22.626  0.00  0.00    +0.029 C 
ATOM     16  C   UNL     1      34.985 -17.304 -21.233  0.00  0.00    +0.124 C 
ATOM     17  C   UNL     1      34.694 -16.040 -20.728  0.00  0.00    +0.085 C 
ATOM     18  C   UNL     1      35.230 -18.758 -23.094  0.00  0.00    +0.110 C 
ATOM     19  C   UNL     1      35.570 -19.506 -20.986  0.00  0.00    +0.141 C 
ATOM     20  H   UNL     1      35.935 -20.412 -19.142  0.00  0.00    +0.155 HD
ATOM     21  H   UNL     1      36.112 -21.457 -20.477  0.00  0.00    +0.155 HD
ENDBRANCH   3  12
BRANCH   2  22
ATOM     22  C   UNL     1      33.858 -10.197 -23.729  0.00  0.00    +0.058 C 
ATOM     23  C   UNL     1      32.824  -9.616 -22.996  0.00  0.00    +0.019 C 
ATOM     24  C   UNL     1      34.997  -9.454 -24.036  0.00  0.00    +0.015 C 
ATOM     25  C   UNL     1      32.929  -8.293 -22.568  0.00  0.00    +0.073 C 
ATOM     26  C   UNL     1      35.103  -8.131 -23.608  0.00  0.00    +0.001 C 
ATOM     27  C   UNL     1      34.069  -7.550 -22.875  0.00  0.00    +0.004 C 
BRANCH  25  31
ATOM     28  F   UNL     1      32.142  -6.452 -21.259  0.00  0.00    -0.166 F 
ATOM     29  F   UNL     1      30.689  -7.457 -22.516  0.00  0.00    -0.166 F 
ATOM     30  F   UNL     1      31.435  -8.438 -20.724  0.00  0.00    -0.166 F 
ATOM     31  C   UNL     1      31.823  -7.671 -21.785  0.00  0.00    +0.419 C 
ENDBRANCH  25  31
ENDBRANCH   2  22
TORSDOF 3
ENDMDL
MODEL 9
REMARK VINA RESULT:      -9.9      6.092      9.909
REMARK  Name = 24812719
REMARK  3 active torsions:
REMARK  status: ('A' for Active; 'I' for Inactive)
REMARK    1  A    between atoms: N_2  and  C_22
REMARK    2  A    between atoms: C_3  and  C_12
REMARK    3  A    between atoms: C_25  and  C_31
REMARK                            x       y       z     vdW  Elec       q    Type
REMARK                         _______ _______ _______ _____ _____    ______ ____
ROOT
ATOM      1  O   UNL     1      32.499 -22.562 -17.062  0.00  0.00    -0.269 OA
ATOM      2  N   UNL     1      33.160 -23.751 -15.139  0.00  0.00    -0.233 N 
ATOM      3  C   UNL     1      34.817 -22.652 -16.652  0.00  0.00    +0.046 C 
ATOM      4  C   UNL     1      35.810 -23.003 -15.809  0.00  0.00    -0.016 C 
ATOM      5  C   UNL     1      33.380 -22.996 -16.317  0.00  0.00    +0.256 C 
ATOM      6  C   UNL     1      34.232 -24.067 -14.313  0.00  0.00    +0.072 C 
ATOM      7  C   UNL     1      35.491 -23.722 -14.598  0.00  0.00    +0.012 C 
ATOM      8  C   UNL     1      37.277 -22.727 -16.000  0.00  0.00    +0.031 C 
ENDROOT
BRANCH   3  12
ATOM      9  N   UNL     1      35.877 -19.837 -21.427  0.00  0.00    -0.342 NA
ATOM     10  N   UNL     1      33.517 -19.617 -21.859  0.00  0.00    -0.170 NA
ATOM     11  N   UNL     1      35.098 -18.724 -23.340  0.00  0.00    -0.293 N 
ATOM     12  C   UNL     1      35.087 -21.916 -17.901  0.00  0.00    -0.017 C 
ATOM     13  C   UNL     1      34.034 -21.467 -18.692  0.00  0.00    +0.056 C 
ATOM     14  C   UNL     1      36.397 -21.666 -18.297  0.00  0.00    -0.022 C 
ATOM     15  C   UNL     1      34.297 -20.766 -19.880  0.00  0.00    +0.029 C 
ATOM     16  C   UNL     1      35.615 -20.507 -20.291  0.00  0.00    +0.124 C 
ATOM     17  C   UNL     1      36.649 -20.967 -19.481  0.00  0.00    +0.085 C 
ATOM     18  C   UNL     1      33.289 -20.290 -20.716  0.00  0.00    +0.110 C 
ATOM     19  C   UNL     1      34.814 -19.429 -22.148  0.00  0.00    +0.141 C 
ATOM     20  H   UNL     1      36.031 -18.557 -23.602  0.00  0.00    +0.155 HD
ATOM     21  H   UNL     1      34.361 -18.401 -23.907  0.00  0.00    +0.155 HD
ENDBRANCH   3  12
BRANCH   2  22
ATOM     22  C   UNL     1      31.816 -24.169 -14.788  0.00  0.00    +0.058 C 
ATOM     23  C   UNL     1      30.730 -23.736 -15.547  0.00  0.00    +0.019 C 
ATOM     24  C   UNL     1      31.610 -25.001 -13.688  0.00  0.00    +0.015 C 
ATOM     25  C   UNL     1      29.438 -24.136 -15.208  0.00  0.00    +0.073 C 
ATOM     26  C   UNL     1      30.318 -25.402 -13.348  0.00  0.00    +0.001 C 
ATOM     27  C   UNL     1      29.231 -24.969 -14.108  0.00  0.00    +0.004 C 
BRANCH  25  31
ATOM     28  F   UNL     1      27.231 -23.213 -15.268  0.00  0.00    -0.166 F 
ATOM     29  F   UNL     1      28.577 -22.650 -16.873  0.00  0.00    -0.166 F 
ATOM     30  F   UNL     1      27.755 -24.661 -16.804  0.00  0.00    -0.166 F 
ATOM     31  C   UNL     1      28.275 -23.673 -16.020  0.00  0.00    +0.419 C 
ENDBRANCH  25  31
ENDBRANCH   2  22
TORSDOF 3
ENDMDL
