MODEL 1
REMARK VINA RESULT:     -11.9      0.000      0.000
REMARK  Name = 118161062
REMARK  4 active torsions:
REMARK  status: ('A' for Active; 'I' for Inactive)
REMARK    1  A    between atoms: N_1  and  C_26
REMARK    2  A    between atoms: C_7  and  C_15
REMARK    3  A    between atoms: C_21  and  N_28
REMARK    4  A    between atoms: N_27  and  C_35
REMARK                            x       y       z     vdW  Elec       q    Type
REMARK                         _______ _______ _______ _____ _____    ______ ____
ROOT
ATOM      1  N   UNL     1      36.068 -23.168 -16.063  0.00  0.00    -0.286 N 
ATOM      2  N   UNL     1      34.593 -24.018 -12.776  0.00  0.00    -0.260 N 
ATOM      3  N   UNL     1      33.860 -23.561 -15.406  0.00  0.00    -0.384 NA
ATOM      4  N   UNL     1      36.751 -23.678 -13.224  0.00  0.00    -0.224 NA
ATOM      5  C   UNL     1      35.139 -23.476 -15.097  0.00  0.00    +0.216 C 
ATOM      6  C   UNL     1      35.538 -23.716 -13.722  0.00  0.00    +0.180 C 
ATOM      7  C   UNL     1      32.928 -23.877 -14.419  0.00  0.00    +0.162 C 
ATOM      8  C   UNL     1      33.262 -24.097 -13.128  0.00  0.00    +0.159 C 
ATOM      9  C   UNL     1      35.250 -24.183 -11.589  0.00  0.00    +0.088 C 
ATOM     10  C   UNL     1      36.579 -23.969 -11.892  0.00  0.00    +0.117 C 
ATOM     11  H   UNL     1      36.968 -23.543 -15.935  0.00  0.00    +0.155 HD
ENDROOT
BRANCH   7  15
ATOM     12  N   UNL     1      30.731 -24.844 -14.195  0.00  0.00    -0.386 NA
ATOM     13  N   UNL     1      29.721 -23.165 -16.203  0.00  0.00    -0.257 NA
ATOM     14  N   UNL     1      28.558 -25.807 -13.969  0.00  0.00    -0.335 N 
ATOM     15  C   UNL     1      31.507 -23.943 -14.829  0.00  0.00    +0.178 C 
ATOM     16  C   UNL     1      31.011 -23.118 -15.815  0.00  0.00    +0.128 C 
ATOM     17  C   UNL     1      29.441 -24.891 -14.582  0.00  0.00    +0.179 C 
ATOM     18  C   UNL     1      28.945 -24.066 -15.568  0.00  0.00    +0.199 C 
ATOM     19  H   UNL     1      28.886 -26.409 -13.261  0.00  0.00    +0.144 HD
ATOM     20  H   UNL     1      27.615 -25.845 -14.248  0.00  0.00    +0.144 HD
ENDBRANCH   7  15
BRANCH   1  26
ATOM     21  C   UNL     1      35.512 -20.814 -19.498  0.00  0.00    +0.048 C 
ATOM     22  C   UNL     1      34.486 -21.646 -19.048  0.00  0.00    +0.016 C 
ATOM     23  C   UNL     1      36.723 -20.766 -18.806  0.00  0.00    +0.016 C 
ATOM     24  C   UNL     1      34.670 -22.426 -17.907  0.00  0.00    +0.016 C 
ATOM     25  C   UNL     1      36.907 -21.546 -17.665  0.00  0.00    +0.016 C 
ATOM     26  C   UNL     1      35.881 -22.377 -17.215  0.00  0.00    +0.050 C 
BRANCH  21  28
ATOM     27  N   UNL     1      34.903 -18.232 -22.816  0.00  0.00    +0.394 N 
ATOM     28  N   UNL     1      35.328 -20.032 -20.643  0.00  0.00    -0.312 N 
ATOM     29  C   UNL     1      36.267 -18.560 -22.382  0.00  0.00    -0.055 C 
ATOM     30  C   UNL     1      34.029 -19.397 -22.637  0.00  0.00    -0.055 C 
ATOM     31  C   UNL     1      36.289 -18.952 -20.904  0.00  0.00    +0.068 C 
ATOM     32  C   UNL     1      33.975 -19.819 -21.168  0.00  0.00    +0.068 C 
ATOM     33  H   UNL     1      34.550 -17.458 -22.254  0.00  0.00    -0.079 HD
BRANCH  27  35
ATOM     34  O   UNL     1      33.376 -16.694 -25.146  0.00  0.00    -0.358 OA
ATOM     35  C   UNL     1      34.922 -17.850 -24.238  0.00  0.00    +0.002 C 
ATOM     36  C   UNL     1      33.541 -18.103 -24.844  0.00  0.00    +0.124 C 
ATOM     37  C   UNL     1      34.551 -16.371 -24.360  0.00  0.00    +0.124 C 
ENDBRANCH  27  35
ENDBRANCH  21  28
ENDBRANCH   1  26
TORSDOF 4
ENDMDL
MODEL 2
REMARK VINA RESULT:     -11.6      0.576      1.439
REMARK  Name = 118161062
REMARK  4 active torsions:
REMARK  status: ('A' for Active; 'I' for Inactive)
REMARK    1  A    between atoms: N_1  and  C_26
REMARK    2  A    between atoms: C_7  and  C_15
REMARK    3  A    between atoms: C_21  and  N_28
REMARK    4  A    between atoms: N_27  and  C_35
REMARK                            x       y       z     vdW  Elec       q    Type
REMARK                         _______ _______ _______ _____ _____    ______ ____
ROOT
ATOM      1  N   UNL     1      36.113 -23.217 -15.814  0.00  0.00    -0.286 N 
ATOM      2  N   UNL     1      34.648 -24.050 -12.519  0.00  0.00    -0.260 N 
ATOM      3  N   UNL     1      33.919 -23.689 -15.165  0.00  0.00    -0.384 NA
ATOM      4  N   UNL     1      36.793 -23.629 -12.959  0.00  0.00    -0.224 NA
ATOM      5  C   UNL     1      35.190 -23.541 -14.848  0.00  0.00    +0.216 C 
ATOM      6  C   UNL     1      35.587 -23.731 -13.465  0.00  0.00    +0.180 C 
ATOM      7  C   UNL     1      32.992 -24.020 -14.177  0.00  0.00    +0.162 C 
ATOM      8  C   UNL     1      33.324 -24.195 -12.878  0.00  0.00    +0.159 C 
ATOM      9  C   UNL     1      35.300 -24.158 -11.323  0.00  0.00    +0.088 C 
ATOM     10  C   UNL     1      36.622 -23.895 -11.621  0.00  0.00    +0.117 C 
ATOM     11  H   UNL     1      37.028 -23.550 -15.671  0.00  0.00    +0.155 HD
ENDROOT
BRANCH   7  15
ATOM     12  N   UNL     1      31.098 -23.216 -15.433  0.00  0.00    -0.386 NA
ATOM     13  N   UNL     1      29.511 -25.338 -14.515  0.00  0.00    -0.257 NA
ATOM     14  N   UNL     1      29.226 -22.413 -16.679  0.00  0.00    -0.335 N 
ATOM     15  C   UNL     1      31.579 -24.157 -14.596  0.00  0.00    +0.178 C 
ATOM     16  C   UNL     1      30.800 -25.199 -14.145  0.00  0.00    +0.128 C 
ATOM     17  C   UNL     1      29.810 -23.356 -15.803  0.00  0.00    +0.179 C 
ATOM     18  C   UNL     1      29.030 -24.398 -15.353  0.00  0.00    +0.199 C 
ATOM     19  H   UNL     1      29.761 -21.658 -17.017  0.00  0.00    +0.144 HD
ATOM     20  H   UNL     1      28.286 -22.511 -16.952  0.00  0.00    +0.144 HD
ENDBRANCH   7  15
BRANCH   1  26
ATOM     21  C   UNL     1      35.485 -20.966 -19.305  0.00  0.00    +0.048 C 
ATOM     22  C   UNL     1      36.714 -20.906 -18.648  0.00  0.00    +0.016 C 
ATOM     23  C   UNL     1      34.464 -21.774 -18.802  0.00  0.00    +0.016 C 
ATOM     24  C   UNL     1      36.923 -21.654 -17.490  0.00  0.00    +0.016 C 
ATOM     25  C   UNL     1      34.674 -22.522 -17.643  0.00  0.00    +0.016 C 
ATOM     26  C   UNL     1      35.903 -22.463 -16.987  0.00  0.00    +0.050 C 
BRANCH  21  28
ATOM     27  N   UNL     1      34.802 -18.476 -22.678  0.00  0.00    +0.394 N 
ATOM     28  N   UNL     1      35.275 -20.215 -20.467  0.00  0.00    -0.312 N 
ATOM     29  C   UNL     1      36.176 -18.794 -22.268  0.00  0.00    -0.055 C 
ATOM     30  C   UNL     1      33.932 -19.634 -22.448  0.00  0.00    -0.055 C 
ATOM     31  C   UNL     1      36.231 -19.145 -20.779  0.00  0.00    +0.068 C 
ATOM     32  C   UNL     1      33.911 -20.015 -20.966  0.00  0.00    +0.068 C 
ATOM     33  H   UNL     1      34.463 -17.686 -22.130  0.00  0.00    -0.079 HD
BRANCH  27  35
ATOM     34  O   UNL     1      33.157 -17.125 -25.045  0.00  0.00    -0.358 OA
ATOM     35  C   UNL     1      34.789 -18.134 -24.111  0.00  0.00    +0.002 C 
ATOM     36  C   UNL     1      33.431 -18.508 -24.704  0.00  0.00    +0.124 C 
ATOM     37  C   UNL     1      34.306 -16.691 -24.273  0.00  0.00    +0.124 C 
ENDBRANCH  27  35
ENDBRANCH  21  28
ENDBRANCH   1  26
TORSDOF 4
ENDMDL
MODEL 3
REMARK VINA RESULT:     -10.4      1.455      1.707
REMARK  Name = 118161062
REMARK  4 active torsions:
REMARK  status: ('A' for Active; 'I' for Inactive)
REMARK    1  A    between atoms: N_1  and  C_26
REMARK    2  A    between atoms: C_7  and  C_15
REMARK    3  A    between atoms: C_21  and  N_28
REMARK    4  A    between atoms: N_27  and  C_35
REMARK                            x       y       z     vdW  Elec       q    Type
REMARK                         _______ _______ _______ _____ _____    ______ ____
ROOT
ATOM      1  N   UNL     1      34.868 -23.158 -17.035  0.00  0.00    -0.286 N 
ATOM      2  N   UNL     1      33.350 -24.023 -13.773  0.00  0.00    -0.260 N 
ATOM      3  N   UNL     1      32.647 -23.167 -16.310  0.00  0.00    -0.384 NA
ATOM      4  N   UNL     1      35.518 -24.078 -14.294  0.00  0.00    -0.224 NA
ATOM      5  C   UNL     1      33.926 -23.371 -16.057  0.00  0.00    +0.216 C 
ATOM      6  C   UNL     1      34.308 -23.822 -14.733  0.00  0.00    +0.180 C 
ATOM      7  C   UNL     1      31.700 -23.389 -15.311  0.00  0.00    +0.162 C 
ATOM      8  C   UNL     1      32.021 -23.800 -14.064  0.00  0.00    +0.159 C 
ATOM      9  C   UNL     1      33.994 -24.435 -12.640  0.00  0.00    +0.088 C 
ATOM     10  C   UNL     1      35.330 -24.461 -12.987  0.00  0.00    +0.117 C 
ATOM     11  H   UNL     1      35.677 -23.716 -16.988  0.00  0.00    +0.155 HD
ENDROOT
BRANCH   7  15
ATOM     12  N   UNL     1      29.482 -22.710 -14.656  0.00  0.00    -0.386 NA
ATOM     13  N   UNL     1      28.531 -23.080 -17.269  0.00  0.00    -0.257 NA
ATOM     14  N   UNL     1      27.287 -22.037 -14.000  0.00  0.00    -0.335 N 
ATOM     15  C   UNL     1      30.284 -23.128 -15.655  0.00  0.00    +0.178 C 
ATOM     16  C   UNL     1      29.818 -23.310 -16.938  0.00  0.00    +0.128 C 
ATOM     17  C   UNL     1      28.196 -22.479 -14.987  0.00  0.00    +0.179 C 
ATOM     18  C   UNL     1      27.729 -22.660 -16.270  0.00  0.00    +0.199 C 
ATOM     19  H   UNL     1      27.594 -21.899 -13.074  0.00  0.00    +0.144 HD
ATOM     20  H   UNL     1      26.347 -21.867 -14.237  0.00  0.00    +0.144 HD
ENDBRANCH   7  15
BRANCH   1  26
ATOM     21  C   UNL     1      34.701 -20.407 -20.206  0.00  0.00    +0.048 C 
ATOM     22  C   UNL     1      33.524 -20.953 -19.693  0.00  0.00    +0.016 C 
ATOM     23  C   UNL     1      35.933 -20.776 -19.666  0.00  0.00    +0.016 C 
ATOM     24  C   UNL     1      33.579 -21.865 -18.639  0.00  0.00    +0.016 C 
ATOM     25  C   UNL     1      35.988 -21.688 -18.613  0.00  0.00    +0.016 C 
ATOM     26  C   UNL     1      34.812 -22.233 -18.099  0.00  0.00    +0.050 C 
BRANCH  21  28
ATOM     27  N   UNL     1      34.333 -17.508 -23.289  0.00  0.00    +0.394 N 
ATOM     28  N   UNL     1      34.645 -19.492 -21.263  0.00  0.00    -0.312 N 
ATOM     29  C   UNL     1      35.391 -17.374 -22.279  0.00  0.00    -0.055 C 
ATOM     30  C   UNL     1      34.116 -18.925 -23.601  0.00  0.00    -0.055 C 
ATOM     31  C   UNL     1      35.003 -18.095 -20.986  0.00  0.00    +0.068 C 
ATOM     32  C   UNL     1      33.686 -19.699 -22.353  0.00  0.00    +0.068 C 
ATOM     33  H   UNL     1      33.468 -17.108 -22.924  0.00  0.00    -0.079 HD
BRANCH  27  35
ATOM     34  O   UNL     1      33.803 -14.987 -25.159  0.00  0.00    -0.358 OA
ATOM     35  C   UNL     1      34.735 -16.795 -24.513  0.00  0.00    +0.002 C 
ATOM     36  C   UNL     1      33.484 -16.395 -25.295  0.00  0.00    +0.124 C 
ATOM     37  C   UNL     1      34.849 -15.301 -24.204  0.00  0.00    +0.124 C 
ENDBRANCH  27  35
ENDBRANCH  21  28
ENDBRANCH   1  26
TORSDOF 4
ENDMDL
MODEL 4
REMARK VINA RESULT:      -9.0      1.191      1.855
REMARK  Name = 118161062
REMARK  4 active torsions:
REMARK  status: ('A' for Active; 'I' for Inactive)
REMARK    1  A    between atoms: N_1  and  C_26
REMARK    2  A    between atoms: C_7  and  C_15
REMARK    3  A    between atoms: C_21  and  N_28
REMARK    4  A    between atoms: N_27  and  C_35
REMARK                            x       y       z     vdW  Elec       q    Type
REMARK                         _______ _______ _______ _____ _____    ______ ____
ROOT
ATOM      1  N   UNL     1      35.237 -23.465 -16.422  0.00  0.00    -0.286 N 
ATOM      2  N   UNL     1      33.681 -24.137 -13.132  0.00  0.00    -0.260 N 
ATOM      3  N   UNL     1      33.031 -23.267 -15.678  0.00  0.00    -0.384 NA
ATOM      4  N   UNL     1      35.830 -24.390 -13.670  0.00  0.00    -0.224 NA
ATOM      5  C   UNL     1      34.289 -23.577 -15.433  0.00  0.00    +0.216 C 
ATOM      6  C   UNL     1      34.643 -24.037 -14.103  0.00  0.00    +0.180 C 
ATOM      7  C   UNL     1      32.078 -23.387 -14.667  0.00  0.00    +0.162 C 
ATOM      8  C   UNL     1      32.373 -23.803 -13.416  0.00  0.00    +0.159 C 
ATOM      9  C   UNL     1      34.298 -24.584 -11.997  0.00  0.00    +0.088 C 
ATOM     10  C   UNL     1      35.622 -24.733 -12.354  0.00  0.00    +0.117 C 
ATOM     11  H   UNL     1      35.994 -24.091 -16.371  0.00  0.00    +0.155 HD
ENDROOT
BRANCH   7  15
ATOM     12  N   UNL     1      30.162 -23.550 -16.121  0.00  0.00    -0.386 NA
ATOM     13  N   UNL     1      28.704 -21.786 -14.499  0.00  0.00    -0.257 NA
ATOM     14  N   UNL     1      28.268 -23.715 -17.567  0.00  0.00    -0.335 N 
ATOM     15  C   UNL     1      30.686 -23.009 -15.004  0.00  0.00    +0.178 C 
ATOM     16  C   UNL     1      29.971 -22.143 -14.207  0.00  0.00    +0.128 C 
ATOM     17  C   UNL     1      28.895 -23.194 -16.413  0.00  0.00    +0.179 C 
ATOM     18  C   UNL     1      28.179 -22.328 -15.615  0.00  0.00    +0.199 C 
ATOM     19  H   UNL     1      28.757 -24.336 -18.154  0.00  0.00    +0.144 HD
ATOM     20  H   UNL     1      27.343 -23.458 -17.783  0.00  0.00    +0.144 HD
ENDBRANCH   7  15
BRANCH   1  26
ATOM     21  C   UNL     1      35.279 -20.760 -19.635  0.00  0.00    +0.048 C 
ATOM     22  C   UNL     1      36.447 -21.003 -18.912  0.00  0.00    +0.016 C 
ATOM     23  C   UNL     1      34.097 -21.415 -19.290  0.00  0.00    +0.016 C 
ATOM     24  C   UNL     1      36.434 -21.902 -17.846  0.00  0.00    +0.016 C 
ATOM     25  C   UNL     1      34.084 -22.314 -18.224  0.00  0.00    +0.016 C 
ATOM     26  C   UNL     1      35.251 -22.558 -17.501  0.00  0.00    +0.050 C 
BRANCH  21  28
ATOM     27  N   UNL     1      35.378 -18.222 -23.041  0.00  0.00    +0.394 N 
ATOM     28  N   UNL     1      35.293 -19.857 -20.704  0.00  0.00    -0.312 N 
ATOM     29  C   UNL     1      34.090 -18.681 -22.506  0.00  0.00    -0.055 C 
ATOM     30  C   UNL     1      36.322 -17.992 -21.942  0.00  0.00    -0.055 C 
ATOM     31  C   UNL     1      34.257 -19.993 -21.736  0.00  0.00    +0.068 C 
ATOM     32  C   UNL     1      36.565 -19.280 -21.152  0.00  0.00    +0.068 C 
ATOM     33  H   UNL     1      35.756 -18.936 -23.664  0.00  0.00    -0.079 HD
BRANCH  27  35
ATOM     34  O   UNL     1      33.298 -15.959 -23.866  0.00  0.00    -0.358 OA
ATOM     35  C   UNL     1      35.178 -16.965 -23.782  0.00  0.00    +0.002 C 
ATOM     36  C   UNL     1      33.888 -17.064 -24.597  0.00  0.00    +0.124 C 
ATOM     37  C   UNL     1      34.385 -15.993 -22.907  0.00  0.00    +0.124 C 
ENDBRANCH  27  35
ENDBRANCH  21  28
ENDBRANCH   1  26
TORSDOF 4
ENDMDL
