MODEL 1
REMARK VINA RESULT:     -11.7      0.000      0.000
REMARK  Name = 3351
REMARK  5 active torsions:
REMARK  status: ('A' for Active; 'I' for Inactive)
REMARK    1  A    between atoms: N_2  and  C_10
REMARK    2  A    between atoms: C_8  and  C_20
REMARK    3  A    between atoms: C_10  and  C_13
REMARK    4  A    between atoms: C_20  and  O_21
REMARK    5  A    between atoms: O_21  and  C_23
REMARK                            x       y       z     vdW  Elec       q    Type
REMARK                         _______ _______ _______ _____ _____    ______ ____
ROOT
ATOM      1  O   UNL     1      35.195 -17.126 -23.603  0.00  0.00    -0.271 OA
ATOM      2  N   UNL     1      32.837 -13.090 -21.855  0.00  0.00    +0.392 N 
ATOM      3  N   UNL     1      34.516 -15.380 -22.230  0.00  0.00    -0.281 N 
ATOM      4  C   UNL     1      32.873 -13.783 -23.150  0.00  0.00    -0.055 C 
ATOM      5  C   UNL     1      33.054 -14.041 -20.755  0.00  0.00    -0.055 C 
ATOM      6  C   UNL     1      34.214 -14.488 -23.350  0.00  0.00    +0.071 C 
ATOM      7  C   UNL     1      34.397 -14.758 -20.909  0.00  0.00    +0.071 C 
ATOM      8  C   UNL     1      34.997 -16.665 -22.476  0.00  0.00    +0.270 C 
ATOM      9  H   UNL     1      33.588 -12.400 -21.837  0.00  0.00    -0.079 HD
ENDROOT
BRANCH   2  10
ATOM     10  C   UNL     1      31.566 -12.388 -21.683  0.00  0.00    -0.050 C 
BRANCH  10  13
ATOM     11  O   UNL     1      32.327  -7.510 -21.714  0.00  0.00    -0.435 OA
ATOM     12  O   UNL     1      32.258  -7.367 -19.309  0.00  0.00    -0.435 OA
ATOM     13  C   UNL     1      31.748 -11.054 -21.010  0.00  0.00    -0.040 C 
ATOM     14  C   UNL     1      31.953  -9.921 -21.791  0.00  0.00    +0.034 C 
ATOM     15  C   UNL     1      31.706 -10.982 -19.613  0.00  0.00    -0.003 C 
ATOM     16  C   UNL     1      32.115  -8.720 -21.130  0.00  0.00    +0.176 C 
ATOM     17  C   UNL     1      32.076  -8.639 -19.757  0.00  0.00    +0.176 C 
ATOM     18  C   UNL     1      31.874  -9.753 -18.969  0.00  0.00    +0.040 C 
ATOM     19  C   UNL     1      32.416  -6.657 -20.555  0.00  0.00    +0.429 C 
ENDBRANCH  10  13
ENDBRANCH   2  10
BRANCH   8  20
ATOM     20  C   UNL     1      35.278 -17.523 -21.269  0.00  0.00    +0.290 C 
BRANCH  20  21
ATOM     21  O   UNL     1      35.272 -18.857 -21.712  0.00  0.00    -0.466 OA
BRANCH  21  23
ATOM     22 CL   UNL     1      33.474 -22.949 -17.903  0.00  0.00    -0.082 Cl
ATOM     23  C   UNL     1      34.850 -19.818 -20.821  0.00  0.00    +0.139 C 
ATOM     24  C   UNL     1      33.492 -20.054 -20.665  0.00  0.00    +0.038 C 
ATOM     25  C   UNL     1      35.790 -20.532 -20.092  0.00  0.00    +0.038 C 
ATOM     26  C   UNL     1      33.065 -21.026 -19.760  0.00  0.00    +0.015 C 
ATOM     27  C   UNL     1      35.363 -21.503 -19.187  0.00  0.00    +0.015 C 
ATOM     28  C   UNL     1      34.001 -21.751 -19.021  0.00  0.00    +0.058 C 
ENDBRANCH  21  23
ENDBRANCH  20  21
ENDBRANCH   8  20
TORSDOF 5
ENDMDL
MODEL 2
REMARK VINA RESULT:     -10.8      3.800      6.221
REMARK  Name = 3351
REMARK  5 active torsions:
REMARK  status: ('A' for Active; 'I' for Inactive)
REMARK    1  A    between atoms: N_2  and  C_10
REMARK    2  A    between atoms: C_8  and  C_20
REMARK    3  A    between atoms: C_10  and  C_13
REMARK    4  A    between atoms: C_20  and  O_21
REMARK    5  A    between atoms: O_21  and  C_23
REMARK                            x       y       z     vdW  Elec       q    Type
REMARK                         _______ _______ _______ _____ _____    ______ ____
ROOT
ATOM      1  O   UNL     1      36.834 -21.565 -18.987  0.00  0.00    -0.271 OA
ATOM      2  N   UNL     1      34.966 -18.507 -22.461  0.00  0.00    +0.392 N 
ATOM      3  N   UNL     1      35.374 -20.245 -20.221  0.00  0.00    -0.281 N 
ATOM      4  C   UNL     1      36.314 -18.983 -22.123  0.00  0.00    -0.055 C 
ATOM      5  C   UNL     1      33.960 -19.521 -22.114  0.00  0.00    -0.055 C 
ATOM      6  C   UNL     1      36.417 -19.306 -20.633  0.00  0.00    +0.071 C 
ATOM      7  C   UNL     1      34.018 -19.862 -20.623  0.00  0.00    +0.071 C 
ATOM      8  C   UNL     1      35.697 -21.328 -19.405  0.00  0.00    +0.270 C 
ATOM      9  H   UNL     1      34.775 -17.664 -21.917  0.00  0.00    -0.079 HD
ENDROOT
BRANCH   2  10
ATOM     10  C   UNL     1      34.881 -18.166 -23.880  0.00  0.00    -0.050 C 
BRANCH  10  13
ATOM     11  O   UNL     1      34.414 -13.452 -22.486  0.00  0.00    -0.435 OA
ATOM     12  O   UNL     1      33.300 -12.837 -24.533  0.00  0.00    -0.435 OA
ATOM     13  C   UNL     1      34.442 -16.741 -24.090  0.00  0.00    -0.040 C 
ATOM     14  C   UNL     1      34.689 -15.800 -23.095  0.00  0.00    +0.034 C 
ATOM     15  C   UNL     1      33.796 -16.394 -25.282  0.00  0.00    -0.003 C 
ATOM     16  C   UNL     1      34.267 -14.507 -23.333  0.00  0.00    +0.176 C 
ATOM     17  C   UNL     1      33.631 -14.156 -24.501  0.00  0.00    +0.176 C 
ATOM     18  C   UNL     1      33.380 -15.078 -25.497  0.00  0.00    +0.040 C 
ATOM     19  C   UNL     1      33.799 -12.397 -23.253  0.00  0.00    +0.429 C 
ENDBRANCH  10  13
ENDBRANCH   2  10
BRANCH   8  20
ATOM     20  C   UNL     1      34.566 -22.251 -19.030  0.00  0.00    +0.290 C 
BRANCH  20  21
ATOM     21  O   UNL     1      34.927 -22.857 -17.813  0.00  0.00    -0.466 OA
BRANCH  21  23
ATOM     22 CL   UNL     1      30.725 -23.480 -13.758  0.00  0.00    -0.082 Cl
ATOM     23  C   UNL     1      33.942 -23.001 -16.862  0.00  0.00    +0.139 C 
ATOM     24  C   UNL     1      34.296 -23.300 -15.555  0.00  0.00    +0.038 C 
ATOM     25  C   UNL     1      32.613 -22.846 -17.228  0.00  0.00    +0.038 C 
ATOM     26  C   UNL     1      33.298 -23.449 -14.591  0.00  0.00    +0.015 C 
ATOM     27  C   UNL     1      31.615 -22.995 -16.264  0.00  0.00    +0.015 C 
ATOM     28  C   UNL     1      31.957 -23.296 -14.947  0.00  0.00    +0.058 C 
ENDBRANCH  21  23
ENDBRANCH  20  21
ENDBRANCH   8  20
TORSDOF 5
ENDMDL
MODEL 3
REMARK VINA RESULT:     -10.7      4.126     10.377
REMARK  Name = 3351
REMARK  5 active torsions:
REMARK  status: ('A' for Active; 'I' for Inactive)
REMARK    1  A    between atoms: N_2  and  C_10
REMARK    2  A    between atoms: C_8  and  C_20
REMARK    3  A    between atoms: C_10  and  C_13
REMARK    4  A    between atoms: C_20  and  O_21
REMARK    5  A    between atoms: O_21  and  C_23
REMARK                            x       y       z     vdW  Elec       q    Type
REMARK                         _______ _______ _______ _____ _____    ______ ____
ROOT
ATOM      1  O   UNL     1      33.447 -12.877 -25.369  0.00  0.00    -0.271 OA
ATOM      2  N   UNL     1      34.758 -17.027 -22.926  0.00  0.00    +0.392 N 
ATOM      3  N   UNL     1      33.792 -14.439 -23.685  0.00  0.00    -0.281 N 
ATOM      4  C   UNL     1      34.719 -16.631 -24.341  0.00  0.00    -0.055 C 
ATOM      5  C   UNL     1      35.012 -15.859 -22.071  0.00  0.00    -0.055 C 
ATOM      6  C   UNL     1      33.632 -15.584 -24.581  0.00  0.00    +0.071 C 
ATOM      7  C   UNL     1      33.934 -14.790 -22.269  0.00  0.00    +0.071 C 
ATOM      8  C   UNL     1      33.679 -13.144 -24.187  0.00  0.00    +0.270 C 
ATOM      9  H   UNL     1      33.849 -17.418 -22.675  0.00  0.00    -0.079 HD
ENDROOT
BRANCH   2  10
ATOM     10  C   UNL     1      35.775 -18.054 -22.707  0.00  0.00    -0.050 C 
BRANCH  10  13
ATOM     11  O   UNL     1      36.645 -21.133 -18.947  0.00  0.00    -0.435 OA
ATOM     12  O   UNL     1      34.328 -21.777 -18.787  0.00  0.00    -0.435 OA
ATOM     13  C   UNL     1      35.350 -19.053 -21.664  0.00  0.00    -0.040 C 
ATOM     14  C   UNL     1      36.305 -19.589 -20.807  0.00  0.00    +0.034 C 
ATOM     15  C   UNL     1      34.002 -19.420 -21.580  0.00  0.00    -0.003 C 
ATOM     16  C   UNL     1      35.868 -20.501 -19.867  0.00  0.00    +0.176 C 
ATOM     17  C   UNL     1      34.545 -20.868 -19.776  0.00  0.00    +0.176 C 
ATOM     18  C   UNL     1      33.586 -20.345 -20.619  0.00  0.00    +0.040 C 
ATOM     19  C   UNL     1      35.663 -21.940 -18.265  0.00  0.00    +0.429 C 
ENDBRANCH  10  13
ENDBRANCH   2  10
BRANCH   8  20
ATOM     20  C   UNL     1      33.862 -12.019 -23.199  0.00  0.00    +0.290 C 
BRANCH  20  21
ATOM     21  O   UNL     1      33.792 -10.822 -23.934  0.00  0.00    -0.466 OA
BRANCH  21  23
ATOM     22 CL   UNL     1      32.303  -5.952 -21.011  0.00  0.00    -0.082 Cl
ATOM     23  C   UNL     1      33.442  -9.680 -23.250  0.00  0.00    +0.139 C 
ATOM     24  C   UNL     1      34.245  -8.554 -23.349  0.00  0.00    +0.038 C 
ATOM     25  C   UNL     1      32.293  -9.675 -22.474  0.00  0.00    +0.038 C 
ATOM     26  C   UNL     1      33.892  -7.397 -22.654  0.00  0.00    +0.015 C 
ATOM     27  C   UNL     1      31.940  -8.518 -21.779  0.00  0.00    +0.015 C 
ATOM     28  C   UNL     1      32.738  -7.379 -21.868  0.00  0.00    +0.058 C 
ENDBRANCH  21  23
ENDBRANCH  20  21
ENDBRANCH   8  20
TORSDOF 5
ENDMDL
MODEL 4
REMARK VINA RESULT:     -10.6      5.576      8.173
REMARK  Name = 3351
REMARK  5 active torsions:
REMARK  status: ('A' for Active; 'I' for Inactive)
REMARK    1  A    between atoms: N_2  and  C_10
REMARK    2  A    between atoms: C_8  and  C_20
REMARK    3  A    between atoms: C_10  and  C_13
REMARK    4  A    between atoms: C_20  and  O_21
REMARK    5  A    between atoms: O_21  and  C_23
REMARK                            x       y       z     vdW  Elec       q    Type
REMARK                         _______ _______ _______ _____ _____    ______ ____
ROOT
ATOM      1  O   UNL     1      32.019 -22.382 -17.631  0.00  0.00    -0.271 OA
ATOM      2  N   UNL     1      35.113 -20.132 -20.837  0.00  0.00    +0.392 N 
ATOM      3  N   UNL     1      33.843 -21.920 -18.994  0.00  0.00    -0.281 N 
ATOM      4  C   UNL     1      33.748 -19.865 -20.360  0.00  0.00    -0.055 C 
ATOM      5  C   UNL     1      35.899 -20.808 -19.795  0.00  0.00    -0.055 C 
ATOM      6  C   UNL     1      33.049 -21.165 -19.964  0.00  0.00    +0.071 C 
ATOM      7  C   UNL     1      35.240 -22.126 -19.381  0.00  0.00    +0.071 C 
ATOM      8  C   UNL     1      33.225 -22.477 -17.876  0.00  0.00    +0.270 C 
ATOM      9  H   UNL     1      35.056 -20.747 -21.649  0.00  0.00    -0.079 HD
ENDROOT
BRANCH   2  10
ATOM     10  C   UNL     1      35.766 -18.889 -21.247  0.00  0.00    -0.050 C 
BRANCH  10  13
ATOM     11  O   UNL     1      34.395 -15.102 -24.103  0.00  0.00    -0.435 OA
ATOM     12  O   UNL     1      33.411 -16.555 -25.756  0.00  0.00    -0.435 OA
ATOM     13  C   UNL     1      35.124 -18.296 -22.473  0.00  0.00    -0.040 C 
ATOM     14  C   UNL     1      35.110 -16.914 -22.632  0.00  0.00    +0.034 C 
ATOM     15  C   UNL     1      34.555 -19.149 -23.426  0.00  0.00    -0.003 C 
ATOM     16  C   UNL     1      34.510 -16.416 -23.771  0.00  0.00    +0.176 C 
ATOM     17  C   UNL     1      33.948 -17.246 -24.714  0.00  0.00    +0.176 C 
ATOM     18  C   UNL     1      33.954 -18.618 -24.571  0.00  0.00    +0.040 C 
ATOM     19  C   UNL     1      33.698 -15.197 -25.362  0.00  0.00    +0.429 C 
ENDBRANCH  10  13
ENDBRANCH   2  10
BRANCH   8  20
ATOM     20  C   UNL     1      34.113 -23.234 -16.922  0.00  0.00    +0.290 C 
BRANCH  20  21
ATOM     21  O   UNL     1      33.419 -23.314 -15.701  0.00  0.00    -0.466 OA
BRANCH  21  23
ATOM     22 CL   UNL     1      36.601 -24.114 -10.832  0.00  0.00    -0.082 Cl
ATOM     23  C   UNL     1      34.165 -23.503 -14.560  0.00  0.00    +0.139 C 
ATOM     24  C   UNL     1      33.589 -24.129 -13.465  0.00  0.00    +0.038 C 
ATOM     25  C   UNL     1      35.480 -23.063 -14.525  0.00  0.00    +0.038 C 
ATOM     26  C   UNL     1      34.345 -24.319 -12.308  0.00  0.00    +0.015 C 
ATOM     27  C   UNL     1      36.236 -23.252 -13.368  0.00  0.00    +0.015 C 
ATOM     28  C   UNL     1      35.669 -23.880 -12.260  0.00  0.00    +0.058 C 
ENDBRANCH  21  23
ENDBRANCH  20  21
ENDBRANCH   8  20
TORSDOF 5
ENDMDL
MODEL 5
REMARK VINA RESULT:     -10.4      7.650     11.426
REMARK  Name = 3351
REMARK  5 active torsions:
REMARK  status: ('A' for Active; 'I' for Inactive)
REMARK    1  A    between atoms: N_2  and  C_10
REMARK    2  A    between atoms: C_8  and  C_20
REMARK    3  A    between atoms: C_10  and  C_13
REMARK    4  A    between atoms: C_20  and  O_21
REMARK    5  A    between atoms: O_21  and  C_23
REMARK                            x       y       z     vdW  Elec       q    Type
REMARK                         _______ _______ _______ _____ _____    ______ ____
ROOT
ATOM      1  O   UNL     1      37.335 -21.426 -16.945  0.00  0.00    -0.271 OA
ATOM      2  N   UNL     1      33.504 -23.716 -14.710  0.00  0.00    +0.392 N 
ATOM      3  N   UNL     1      35.459 -22.742 -16.564  0.00  0.00    -0.281 N 
ATOM      4  C   UNL     1      34.633 -22.899 -14.243  0.00  0.00    -0.055 C 
ATOM      5  C   UNL     1      33.107 -23.316 -16.068  0.00  0.00    -0.055 C 
ATOM      6  C   UNL     1      35.830 -23.043 -15.182  0.00  0.00    +0.071 C 
ATOM      7  C   UNL     1      34.275 -23.460 -17.045  0.00  0.00    +0.071 C 
ATOM      8  C   UNL     1      36.281 -21.929 -17.343  0.00  0.00    +0.270 C 
ATOM      9  H   UNL     1      33.800 -24.692 -14.736  0.00  0.00    -0.079 HD
ENDROOT
BRANCH   2  10
ATOM     10  C   UNL     1      32.373 -23.603 -13.790  0.00  0.00    -0.050 C 
BRANCH  10  13
ATOM     11  O   UNL     1      28.628 -22.093 -16.631  0.00  0.00    -0.435 OA
ATOM     12  O   UNL     1      27.486 -24.208 -16.450  0.00  0.00    -0.435 OA
ATOM     13  C   UNL     1      31.056 -23.802 -14.493  0.00  0.00    -0.040 C 
ATOM     14  C   UNL     1      30.519 -22.757 -15.238  0.00  0.00    +0.034 C 
ATOM     15  C   UNL     1      30.401 -25.033 -14.381  0.00  0.00    -0.003 C 
ATOM     16  C   UNL     1      29.310 -22.985 -15.864  0.00  0.00    +0.176 C 
ATOM     17  C   UNL     1      28.659 -24.193 -15.760  0.00  0.00    +0.176 C 
ATOM     18  C   UNL     1      29.178 -25.238 -15.025  0.00  0.00    +0.040 C 
ATOM     19  C   UNL     1      27.473 -22.874 -17.000  0.00  0.00    +0.429 C 
ENDBRANCH  10  13
ENDBRANCH   2  10
BRANCH   8  20
ATOM     20  C   UNL     1      35.824 -21.664 -18.755  0.00  0.00    +0.290 C 
BRANCH  20  21
ATOM     21  O   UNL     1      36.531 -20.533 -19.201  0.00  0.00    -0.466 OA
BRANCH  21  23
ATOM     22 CL   UNL     1      34.473 -17.766 -23.955  0.00  0.00    -0.082 Cl
ATOM     23  C   UNL     1      36.049 -19.885 -20.317  0.00  0.00    +0.139 C 
ATOM     24  C   UNL     1      36.879 -19.021 -21.014  0.00  0.00    +0.038 C 
ATOM     25  C   UNL     1      34.742 -20.109 -20.723  0.00  0.00    +0.038 C 
ATOM     26  C   UNL     1      36.390 -18.363 -22.143  0.00  0.00    +0.015 C 
ATOM     27  C   UNL     1      34.253 -19.451 -21.852  0.00  0.00    +0.015 C 
ATOM     28  C   UNL     1      35.076 -18.578 -22.562  0.00  0.00    +0.058 C 
ENDBRANCH  21  23
ENDBRANCH  20  21
ENDBRANCH   8  20
TORSDOF 5
ENDMDL
MODEL 6
REMARK VINA RESULT:     -10.4      6.487     11.994
REMARK  Name = 3351
REMARK  5 active torsions:
REMARK  status: ('A' for Active; 'I' for Inactive)
REMARK    1  A    between atoms: N_2  and  C_10
REMARK    2  A    between atoms: C_8  and  C_20
REMARK    3  A    between atoms: C_10  and  C_13
REMARK    4  A    between atoms: C_20  and  O_21
REMARK    5  A    between atoms: O_21  and  C_23
REMARK                            x       y       z     vdW  Elec       q    Type
REMARK                         _______ _______ _______ _____ _____    ______ ____
ROOT
ATOM      1  O   UNL     1      36.708 -19.608 -20.146  0.00  0.00    -0.271 OA
ATOM      2  N   UNL     1      34.728 -22.958 -17.020  0.00  0.00    +0.392 N 
ATOM      3  N   UNL     1      35.401 -21.318 -19.270  0.00  0.00    -0.281 N 
ATOM      4  C   UNL     1      35.859 -22.023 -16.949  0.00  0.00    -0.055 C 
ATOM      5  C   UNL     1      33.673 -22.424 -17.893  0.00  0.00    -0.055 C 
ATOM      6  C   UNL     1      36.437 -21.765 -18.340  0.00  0.00    +0.071 C 
ATOM      7  C   UNL     1      34.207 -22.166 -19.304  0.00  0.00    +0.071 C 
ATOM      8  C   UNL     1      35.647 -20.238 -20.117  0.00  0.00    +0.270 C 
ATOM      9  H   UNL     1      35.061 -23.838 -17.418  0.00  0.00    -0.079 HD
ENDROOT
BRANCH   2  10
ATOM     10  C   UNL     1      34.200 -23.230 -15.684  0.00  0.00    -0.050 C 
BRANCH  10  13
ATOM     11  O   UNL     1      37.569 -23.119 -12.076  0.00  0.00    -0.435 OA
ATOM     12  O   UNL     1      38.059 -25.468 -12.304  0.00  0.00    -0.435 OA
ATOM     13  C   UNL     1      35.232 -23.866 -14.791  0.00  0.00    -0.040 C 
ATOM     14  C   UNL     1      35.888 -23.083 -13.846  0.00  0.00    +0.034 C 
ATOM     15  C   UNL     1      35.509 -25.230 -14.932  0.00  0.00    -0.003 C 
ATOM     16  C   UNL     1      36.826 -23.710 -13.051  0.00  0.00    +0.176 C 
ATOM     17  C   UNL     1      37.105 -25.051 -13.181  0.00  0.00    +0.176 C 
ATOM     18  C   UNL     1      36.464 -25.840 -14.114  0.00  0.00    +0.040 C 
ATOM     19  C   UNL     1      38.348 -24.238 -11.607  0.00  0.00    +0.429 C 
ENDBRANCH  10  13
ENDBRANCH   2  10
BRANCH   8  20
ATOM     20  C   UNL     1      34.526 -19.836 -21.041  0.00  0.00    +0.290 C 
BRANCH  20  21
ATOM     21  O   UNL     1      35.083 -19.732 -22.328  0.00  0.00    -0.466 OA
BRANCH  21  23
ATOM     22 CL   UNL     1      33.618 -15.027 -25.522  0.00  0.00    -0.082 Cl
ATOM     23  C   UNL     1      34.741 -18.629 -23.078  0.00  0.00    +0.139 C 
ATOM     24  C   UNL     1      35.226 -17.381 -22.715  0.00  0.00    +0.038 C 
ATOM     25  C   UNL     1      33.917 -18.784 -24.183  0.00  0.00    +0.038 C 
ATOM     26  C   UNL     1      34.877 -16.263 -23.473  0.00  0.00    +0.015 C 
ATOM     27  C   UNL     1      33.568 -17.666 -24.941  0.00  0.00    +0.015 C 
ATOM     28  C   UNL     1      34.048 -16.406 -24.587  0.00  0.00    +0.058 C 
ENDBRANCH  21  23
ENDBRANCH  20  21
ENDBRANCH   8  20
TORSDOF 5
ENDMDL
MODEL 7
REMARK VINA RESULT:     -10.4      4.591      6.650
REMARK  Name = 3351
REMARK  5 active torsions:
REMARK  status: ('A' for Active; 'I' for Inactive)
REMARK    1  A    between atoms: N_2  and  C_10
REMARK    2  A    between atoms: C_8  and  C_20
REMARK    3  A    between atoms: C_10  and  C_13
REMARK    4  A    between atoms: C_20  and  O_21
REMARK    5  A    between atoms: O_21  and  C_23
REMARK                            x       y       z     vdW  Elec       q    Type
REMARK                         _______ _______ _______ _____ _____    ______ ____
ROOT
ATOM      1  O   UNL     1      36.825 -21.822 -18.423  0.00  0.00    -0.271 OA
ATOM      2  N   UNL     1      35.366 -18.724 -22.055  0.00  0.00    +0.392 N 
ATOM      3  N   UNL     1      35.516 -20.485 -19.800  0.00  0.00    -0.281 N 
ATOM      4  C   UNL     1      36.667 -19.207 -21.572  0.00  0.00    -0.055 C 
ATOM      5  C   UNL     1      34.325 -19.738 -21.833  0.00  0.00    -0.055 C 
ATOM      6  C   UNL     1      36.600 -19.545 -20.083  0.00  0.00    +0.071 C 
ATOM      7  C   UNL     1      34.214 -20.094 -20.349  0.00  0.00    +0.071 C 
ATOM      8  C   UNL     1      35.743 -21.577 -18.964  0.00  0.00    +0.270 C 
ATOM      9  H   UNL     1      35.117 -17.886 -21.528  0.00  0.00    -0.079 HD
ENDROOT
BRANCH   2  10
ATOM     10  C   UNL     1      35.443 -18.369 -23.471  0.00  0.00    -0.050 C 
BRANCH  10  13
ATOM     11  O   UNL     1      33.442 -14.925 -26.390  0.00  0.00    -0.435 OA
ATOM     12  O   UNL     1      33.317 -13.316 -24.600  0.00  0.00    -0.435 OA
ATOM     13  C   UNL     1      34.876 -17.000 -23.738  0.00  0.00    -0.040 C 
ATOM     14  C   UNL     1      34.432 -16.686 -25.019  0.00  0.00    +0.034 C 
ATOM     15  C   UNL     1      34.808 -16.073 -22.692  0.00  0.00    -0.003 C 
ATOM     16  C   UNL     1      33.922 -15.419 -25.216  0.00  0.00    +0.176 C 
ATOM     17  C   UNL     1      33.851 -14.500 -24.194  0.00  0.00    +0.176 C 
ATOM     18  C   UNL     1      34.286 -14.797 -22.919  0.00  0.00    +0.040 C 
ATOM     19  C   UNL     1      33.060 -13.593 -25.992  0.00  0.00    +0.429 C 
ENDBRANCH  10  13
ENDBRANCH   2  10
BRANCH   8  20
ATOM     20  C   UNL     1      34.575 -22.500 -18.728  0.00  0.00    +0.290 C 
BRANCH  20  21
ATOM     21  O   UNL     1      34.764 -23.072 -17.457  0.00  0.00    -0.466 OA
BRANCH  21  23
ATOM     22 CL   UNL     1      30.100 -23.342 -13.900  0.00  0.00    -0.082 Cl
ATOM     23  C   UNL     1      33.671 -23.133 -16.622  0.00  0.00    +0.139 C 
ATOM     24  C   UNL     1      33.846 -23.501 -15.297  0.00  0.00    +0.038 C 
ATOM     25  C   UNL     1      32.414 -22.828 -17.122  0.00  0.00    +0.038 C 
ATOM     26  C   UNL     1      32.738 -23.566 -14.451  0.00  0.00    +0.015 C 
ATOM     27  C   UNL     1      31.306 -22.893 -16.277  0.00  0.00    +0.015 C 
ATOM     28  C   UNL     1      31.467 -23.261 -14.942  0.00  0.00    +0.058 C 
ENDBRANCH  21  23
ENDBRANCH  20  21
ENDBRANCH   8  20
TORSDOF 5
ENDMDL
MODEL 8
REMARK VINA RESULT:     -10.3      8.197     13.432
REMARK  Name = 3351
REMARK  5 active torsions:
REMARK  status: ('A' for Active; 'I' for Inactive)
REMARK    1  A    between atoms: N_2  and  C_10
REMARK    2  A    between atoms: C_8  and  C_20
REMARK    3  A    between atoms: C_10  and  C_13
REMARK    4  A    between atoms: C_20  and  O_21
REMARK    5  A    between atoms: O_21  and  C_23
REMARK                            x       y       z     vdW  Elec       q    Type
REMARK                         _______ _______ _______ _____ _____    ______ ____
ROOT
ATOM      1  O   UNL     1      31.036 -23.387 -16.636  0.00  0.00    -0.271 OA
ATOM      2  N   UNL     1      34.378 -23.798 -12.952  0.00  0.00    +0.392 N 
ATOM      3  N   UNL     1      32.965 -23.161 -15.360  0.00  0.00    -0.281 N 
ATOM      4  C   UNL     1      32.979 -24.212 -13.126  0.00  0.00    -0.055 C 
ATOM      5  C   UNL     1      35.078 -23.790 -14.245  0.00  0.00    -0.055 C 
ATOM      6  C   UNL     1      32.252 -23.272 -14.087  0.00  0.00    +0.071 C 
ATOM      7  C   UNL     1      34.390 -22.846 -15.233  0.00  0.00    +0.071 C 
ATOM      8  C   UNL     1      32.258 -23.232 -16.560  0.00  0.00    +0.270 C 
ATOM      9  H   UNL     1      34.390 -22.851 -12.573  0.00  0.00    -0.079 HD
ENDROOT
BRANCH   2  10
ATOM     10  C   UNL     1      35.061 -24.679 -12.005  0.00  0.00    -0.050 C 
BRANCH  10  13
ATOM     11  O   UNL     1      38.900 -26.715 -14.350  0.00  0.00    -0.435 OA
ATOM     12  O   UNL     1      40.485 -25.269 -13.252  0.00  0.00    -0.435 OA
ATOM     13  C   UNL     1      36.528 -24.809 -12.316  0.00  0.00    -0.040 C 
ATOM     14  C   UNL     1      36.945 -25.766 -13.237  0.00  0.00    +0.034 C 
ATOM     15  C   UNL     1      37.440 -23.965 -11.673  0.00  0.00    -0.003 C 
ATOM     16  C   UNL     1      38.300 -25.848 -13.489  0.00  0.00    +0.176 C 
ATOM     17  C   UNL     1      39.204 -25.023 -12.862  0.00  0.00    +0.176 C 
ATOM     18  C   UNL     1      38.806 -24.070 -11.947  0.00  0.00    +0.040 C 
ATOM     19  C   UNL     1      40.284 -26.342 -14.195  0.00  0.00    +0.429 C 
ENDBRANCH  10  13
ENDBRANCH   2  10
BRANCH   8  20
ATOM     20  C   UNL     1      33.066 -23.114 -17.827  0.00  0.00    +0.290 C 
BRANCH  20  21
ATOM     21  O   UNL     1      32.549 -22.013 -18.533  0.00  0.00    -0.466 OA
BRANCH  21  23
ATOM     22 CL   UNL     1      36.268 -18.990 -21.926  0.00  0.00    -0.082 Cl
ATOM     23  C   UNL     1      33.421 -21.306 -19.330  0.00  0.00    +0.139 C 
ATOM     24  C   UNL     1      34.787 -21.488 -19.174  0.00  0.00    +0.038 C 
ATOM     25  C   UNL     1      32.918 -20.423 -20.274  0.00  0.00    +0.038 C 
ATOM     26  C   UNL     1      35.671 -20.769 -19.979  0.00  0.00    +0.015 C 
ATOM     27  C   UNL     1      33.802 -19.704 -21.079  0.00  0.00    +0.015 C 
ATOM     28  C   UNL     1      35.177 -19.877 -20.933  0.00  0.00    +0.058 C 
ENDBRANCH  21  23
ENDBRANCH  20  21
ENDBRANCH   8  20
TORSDOF 5
ENDMDL
MODEL 9
REMARK VINA RESULT:     -10.1      4.290      7.094
REMARK  Name = 3351
REMARK  5 active torsions:
REMARK  status: ('A' for Active; 'I' for Inactive)
REMARK    1  A    between atoms: N_2  and  C_10
REMARK    2  A    between atoms: C_8  and  C_20
REMARK    3  A    between atoms: C_10  and  C_13
REMARK    4  A    between atoms: C_20  and  O_21
REMARK    5  A    between atoms: O_21  and  C_23
REMARK                            x       y       z     vdW  Elec       q    Type
REMARK                         _______ _______ _______ _____ _____    ______ ____
ROOT
ATOM      1  O   UNL     1      31.746 -10.712 -18.644  0.00  0.00    -0.271 OA
ATOM      2  N   UNL     1      32.691  -7.410 -22.266  0.00  0.00    +0.392 N 
ATOM      3  N   UNL     1      31.745  -9.605 -20.686  0.00  0.00    -0.281 N 
ATOM      4  C   UNL     1      33.016  -7.493 -20.835  0.00  0.00    -0.055 C 
ATOM      5  C   UNL     1      32.587  -8.756 -22.849  0.00  0.00    -0.055 C 
ATOM      6  C   UNL     1      31.949  -8.288 -20.083  0.00  0.00    +0.071 C 
ATOM      7  C   UNL     1      31.515  -9.581 -22.133  0.00  0.00    +0.071 C 
ATOM      8  C   UNL     1      31.660 -10.735 -19.875  0.00  0.00    +0.270 C 
ATOM      9  H   UNL     1      31.788  -6.945 -22.366  0.00  0.00    -0.079 HD
ENDROOT
BRANCH   2  10
ATOM     10  C   UNL     1      33.696  -6.620 -22.976  0.00  0.00    -0.050 C 
BRANCH  10  13
ATOM     11  O   UNL     1      30.319  -3.098 -23.732  0.00  0.00    -0.435 OA
ATOM     12  O   UNL     1      31.278  -2.472 -25.852  0.00  0.00    -0.435 OA
ATOM     13  C   UNL     1      33.072  -5.508 -23.777  0.00  0.00    -0.040 C 
ATOM     14  C   UNL     1      31.948  -4.858 -23.277  0.00  0.00    +0.034 C 
ATOM     15  C   UNL     1      33.637  -5.153 -25.007  0.00  0.00    -0.003 C 
ATOM     16  C   UNL     1      31.411  -3.846 -24.046  0.00  0.00    +0.176 C 
ATOM     17  C   UNL     1      31.959  -3.489 -25.257  0.00  0.00    +0.176 C 
ATOM     18  C   UNL     1      33.073  -4.124 -25.766  0.00  0.00    +0.040 C 
ATOM     19  C   UNL     1      30.241  -2.229 -24.880  0.00  0.00    +0.429 C 
ENDBRANCH  10  13
ENDBRANCH   2  10
BRANCH   8  20
ATOM     20  C   UNL     1      31.454 -12.054 -20.574  0.00  0.00    +0.290 C 
BRANCH  20  21
ATOM     21  O   UNL     1      32.563 -12.858 -20.253  0.00  0.00    -0.466 OA
BRANCH  21  23
ATOM     22 CL   UNL     1      34.904 -16.077 -24.570  0.00  0.00    -0.082 Cl
ATOM     23  C   UNL     1      33.111 -13.614 -21.265  0.00  0.00    +0.139 C 
ATOM     24  C   UNL     1      34.051 -14.585 -20.957  0.00  0.00    +0.038 C 
ATOM     25  C   UNL     1      32.713 -13.390 -22.575  0.00  0.00    +0.038 C 
ATOM     26  C   UNL     1      34.608 -15.350 -21.982  0.00  0.00    +0.015 C 
ATOM     27  C   UNL     1      33.270 -14.154 -23.600  0.00  0.00    +0.015 C 
ATOM     28  C   UNL     1      34.217 -15.134 -23.305  0.00  0.00    +0.058 C 
ENDBRANCH  21  23
ENDBRANCH  20  21
ENDBRANCH   8  20
TORSDOF 5
ENDMDL
