MODEL 1
REMARK VINA RESULT:     -12.8      0.000      0.000
REMARK  Name = 25049750
REMARK  7 active torsions:
REMARK  status: ('A' for Active; 'I' for Inactive)
REMARK    1  A    between atoms: C_1  and  C_14
REMARK    2  A    between atoms: C_6  and  O_20
REMARK    3  A    between atoms: C_10  and  C_17
REMARK    4  A    between atoms: C_17  and  O_18
REMARK    5  A    between atoms: O_20  and  C_21
REMARK    6  A    between atoms: C_21  and  C_23
REMARK    7  A    between atoms: C_27  and  C_32
REMARK                            x       y       z     vdW  Elec       q    Type
REMARK                         _______ _______ _______ _____ _____    ______ ____
ROOT
ATOM      1  C   UNL     1      34.884 -19.945 -21.415  0.00  0.00    -0.004 C 
ATOM      2  C   UNL     1      33.499 -19.885 -21.258  0.00  0.00    +0.000 C 
ATOM      3  C   UNL     1      35.663 -20.631 -20.483  0.00  0.00    +0.000 C 
ATOM      4  C   UNL     1      32.894 -20.511 -20.168  0.00  0.00    +0.037 C 
ATOM      5  C   UNL     1      35.056 -21.257 -19.394  0.00  0.00    +0.037 C 
ATOM      6  C   UNL     1      33.672 -21.198 -19.237  0.00  0.00    +0.139 C 
ENDROOT
BRANCH   1  14
ATOM      7  O   UNL     1      33.513 -17.633 -25.016  0.00  0.00    -0.275 OA
ATOM      8  N   UNL     1      34.665 -19.236 -23.758  0.00  0.00    -0.302 N 
ATOM      9  C   UNL     1      34.931 -17.053 -23.195  0.00  0.00    +0.081 C 
ATOM     10  C   UNL     1      34.151 -15.936 -22.592  0.00  0.00    +0.108 C 
ATOM     11  C   UNL     1      35.237 -15.655 -23.597  0.00  0.00    +0.021 C 
ATOM     12  C   UNL     1      35.901 -17.787 -22.344  0.00  0.00    +0.033 C 
ATOM     13  C   UNL     1      34.268 -17.962 -24.114  0.00  0.00    +0.222 C 
ATOM     14  C   UNL     1      35.540 -19.267 -22.597  0.00  0.00    +0.095 C 
ATOM     15  H   UNL     1      34.383 -20.045 -24.243  0.00  0.00    +0.150 HD
BRANCH  10  17
ATOM     16  O   UNL     1      34.717 -16.225 -20.335  0.00  0.00    -0.250 OA
ATOM     17  C   UNL     1      34.451 -15.467 -21.256  0.00  0.00    +0.314 C 
BRANCH  17  18
ATOM     18  O   UNL     1      34.403 -14.116 -21.154  0.00  0.00    -0.480 OA
ATOM     19  H   UNL     1      33.796 -13.712 -20.567  0.00  0.00    +0.295 HD
ENDBRANCH  17  18
ENDBRANCH  10  17
ENDBRANCH   1  14
BRANCH   6  20
ATOM     20  O   UNL     1      33.077 -21.813 -18.166  0.00  0.00    -0.471 OA
BRANCH  20  21
ATOM     21  C   UNL     1      33.490 -23.142 -17.880  0.00  0.00    +0.229 C 
BRANCH  21  23
ATOM     22  N   UNL     1      33.567 -23.756 -13.646  0.00  0.00    -0.406 NA
ATOM     23  C   UNL     1      33.480 -23.352 -16.397  0.00  0.00    +0.012 C 
ATOM     24  C   UNL     1      32.298 -23.304 -15.644  0.00  0.00    +0.096 C 
ATOM     25  C   UNL     1      34.695 -23.600 -15.775  0.00  0.00    +0.028 C 
ATOM     26  C   UNL     1      32.389 -23.515 -14.252  0.00  0.00    +0.117 C 
ATOM     27  C   UNL     1      34.683 -23.794 -14.408  0.00  0.00    +0.130 C 
ATOM     28  C   UNL     1      31.052 -23.056 -16.246  0.00  0.00    -0.015 C 
ATOM     29  C   UNL     1      31.216 -23.467 -13.506  0.00  0.00    +0.028 C 
ATOM     30  C   UNL     1      29.895 -23.013 -15.474  0.00  0.00    -0.004 C 
ATOM     31  C   UNL     1      29.977 -23.220 -14.102  0.00  0.00    +0.002 C 
BRANCH  27  32
ATOM     32  C   UNL     1      35.904 -24.057 -13.684  0.00  0.00    +0.030 C 
ATOM     33  C   UNL     1      36.862 -24.918 -14.221  0.00  0.00    +0.003 C 
ATOM     34  C   UNL     1      36.127 -23.451 -12.448  0.00  0.00    +0.003 C 
ATOM     35  C   UNL     1      38.042 -25.172 -13.522  0.00  0.00    +0.000 C 
ATOM     36  C   UNL     1      37.307 -23.704 -11.749  0.00  0.00    +0.000 C 
ATOM     37  C   UNL     1      38.264 -24.566 -12.286  0.00  0.00    +0.000 C 
ENDBRANCH  27  32
ENDBRANCH  21  23
ENDBRANCH  20  21
ENDBRANCH   6  20
TORSDOF 7
ENDMDL
MODEL 2
REMARK VINA RESULT:     -12.6      1.583      4.377
REMARK  Name = 25049750
REMARK  7 active torsions:
REMARK  status: ('A' for Active; 'I' for Inactive)
REMARK    1  A    between atoms: C_1  and  C_14
REMARK    2  A    between atoms: C_6  and  O_20
REMARK    3  A    between atoms: C_10  and  C_17
REMARK    4  A    between atoms: C_17  and  O_18
REMARK    5  A    between atoms: O_20  and  C_21
REMARK    6  A    between atoms: C_21  and  C_23
REMARK    7  A    between atoms: C_27  and  C_32
REMARK                            x       y       z     vdW  Elec       q    Type
REMARK                         _______ _______ _______ _____ _____    ______ ____
ROOT
ATOM      1  C   UNL     1      35.202 -18.669 -22.798  0.00  0.00    -0.004 C 
ATOM      2  C   UNL     1      36.359 -18.702 -22.018  0.00  0.00    +0.000 C 
ATOM      3  C   UNL     1      34.049 -19.322 -22.362  0.00  0.00    +0.000 C 
ATOM      4  C   UNL     1      36.362 -19.388 -20.804  0.00  0.00    +0.037 C 
ATOM      5  C   UNL     1      34.053 -20.008 -21.147  0.00  0.00    +0.037 C 
ATOM      6  C   UNL     1      35.209 -20.040 -20.367  0.00  0.00    +0.139 C 
ENDROOT
BRANCH   1  14
ATOM      7  O   UNL     1      32.112 -16.803 -25.474  0.00  0.00    -0.275 OA
ATOM      8  N   UNL     1      33.949 -18.107 -24.835  0.00  0.00    -0.302 N 
ATOM      9  C   UNL     1      33.992 -15.892 -24.334  0.00  0.00    +0.081 C 
ATOM     10  C   UNL     1      33.314 -14.923 -23.429  0.00  0.00    +0.108 C 
ATOM     11  C   UNL     1      33.842 -14.478 -24.767  0.00  0.00    +0.021 C 
ATOM     12  C   UNL     1      35.339 -16.395 -23.963  0.00  0.00    +0.033 C 
ATOM     13  C   UNL     1      33.208 -16.947 -24.955  0.00  0.00    +0.222 C 
ATOM     14  C   UNL     1      35.198 -17.925 -24.114  0.00  0.00    +0.095 C 
ATOM     15  H   UNL     1      33.660 -18.973 -25.204  0.00  0.00    +0.150 HD
BRANCH  10  17
ATOM     16  O   UNL     1      34.189 -14.963 -21.254  0.00  0.00    -0.250 OA
ATOM     17  C   UNL     1      34.018 -14.354 -22.300  0.00  0.00    +0.314 C 
BRANCH  17  18
ATOM     18  O   UNL     1      34.457 -13.094 -22.539  0.00  0.00    -0.480 OA
ATOM     19  H   UNL     1      34.196 -12.393 -21.977  0.00  0.00    +0.295 HD
ENDBRANCH  17  18
ENDBRANCH  10  17
ENDBRANCH   1  14
BRANCH   6  20
ATOM     20  O   UNL     1      35.212 -20.714 -19.174  0.00  0.00    -0.471 OA
BRANCH  20  21
ATOM     21  C   UNL     1      34.681 -22.032 -19.181  0.00  0.00    +0.229 C 
BRANCH  21  23
ATOM     22  N   UNL     1      33.617 -23.190 -15.201  0.00  0.00    -0.406 NA
ATOM     23  C   UNL     1      34.345 -22.434 -17.778  0.00  0.00    +0.012 C 
ATOM     24  C   UNL     1      35.319 -22.533 -16.776  0.00  0.00    +0.096 C 
ATOM     25  C   UNL     1      33.016 -22.711 -17.490  0.00  0.00    +0.028 C 
ATOM     26  C   UNL     1      34.906 -22.919 -15.484  0.00  0.00    +0.117 C 
ATOM     27  C   UNL     1      32.708 -23.082 -16.197  0.00  0.00    +0.130 C 
ATOM     28  C   UNL     1      36.673 -22.258 -17.036  0.00  0.00    -0.015 C 
ATOM     29  C   UNL     1      35.874 -23.018 -14.489  0.00  0.00    +0.028 C 
ATOM     30  C   UNL     1      37.620 -22.365 -16.022  0.00  0.00    -0.004 C 
ATOM     31  C   UNL     1      37.220 -22.745 -14.747  0.00  0.00    +0.002 C 
BRANCH  27  32
ATOM     32  C   UNL     1      31.350 -23.388 -15.814  0.00  0.00    +0.030 C 
ATOM     33  C   UNL     1      30.288 -22.696 -16.398  0.00  0.00    +0.003 C 
ATOM     34  C   UNL     1      31.099 -24.374 -14.861  0.00  0.00    +0.003 C 
ATOM     35  C   UNL     1      28.976 -22.992 -16.029  0.00  0.00    +0.000 C 
ATOM     36  C   UNL     1      29.787 -24.670 -14.492  0.00  0.00    +0.000 C 
ATOM     37  C   UNL     1      28.725 -23.978 -15.076  0.00  0.00    +0.000 C 
ENDBRANCH  27  32
ENDBRANCH  21  23
ENDBRANCH  20  21
ENDBRANCH   6  20
TORSDOF 7
ENDMDL
MODEL 3
REMARK VINA RESULT:     -12.1      0.999      4.067
REMARK  Name = 25049750
REMARK  7 active torsions:
REMARK  status: ('A' for Active; 'I' for Inactive)
REMARK    1  A    between atoms: C_1  and  C_14
REMARK    2  A    between atoms: C_6  and  O_20
REMARK    3  A    between atoms: C_10  and  C_17
REMARK    4  A    between atoms: C_17  and  O_18
REMARK    5  A    between atoms: O_20  and  C_21
REMARK    6  A    between atoms: C_21  and  C_23
REMARK    7  A    between atoms: C_27  and  C_32
REMARK                            x       y       z     vdW  Elec       q    Type
REMARK                         _______ _______ _______ _____ _____    ______ ____
ROOT
ATOM      1  C   UNL     1      35.232 -19.601 -21.762  0.00  0.00    -0.004 C 
ATOM      2  C   UNL     1      33.870 -19.719 -21.483  0.00  0.00    +0.000 C 
ATOM      3  C   UNL     1      36.170 -20.205 -20.924  0.00  0.00    +0.000 C 
ATOM      4  C   UNL     1      33.447 -20.440 -20.366  0.00  0.00    +0.037 C 
ATOM      5  C   UNL     1      35.746 -20.925 -19.808  0.00  0.00    +0.037 C 
ATOM      6  C   UNL     1      34.385 -21.044 -19.529  0.00  0.00    +0.139 C 
ENDROOT
BRANCH   1  14
ATOM      7  O   UNL     1      33.269 -17.320 -25.098  0.00  0.00    -0.275 OA
ATOM      8  N   UNL     1      34.698 -18.840 -24.036  0.00  0.00    -0.302 N 
ATOM      9  C   UNL     1      34.808 -16.661 -23.408  0.00  0.00    +0.081 C 
ATOM     10  C   UNL     1      33.992 -15.649 -22.680  0.00  0.00    +0.108 C 
ATOM     11  C   UNL     1      34.932 -15.226 -23.777  0.00  0.00    +0.021 C 
ATOM     12  C   UNL     1      35.930 -17.322 -22.693  0.00  0.00    +0.033 C 
ATOM     13  C   UNL     1      34.143 -17.601 -24.293  0.00  0.00    +0.222 C 
ATOM     14  C   UNL     1      35.690 -18.821 -22.973  0.00  0.00    +0.095 C 
ATOM     15  H   UNL     1      34.446 -19.656 -24.526  0.00  0.00    +0.150 HD
BRANCH  10  17
ATOM     16  O   UNL     1      34.622 -15.969 -20.444  0.00  0.00    -0.250 OA
ATOM     17  C   UNL     1      34.384 -15.198 -21.362  0.00  0.00    +0.314 C 
BRANCH  17  18
ATOM     18  O   UNL     1      34.456 -13.847 -21.272  0.00  0.00    -0.480 OA
ATOM     19  H   UNL     1      33.991 -13.312 -21.884  0.00  0.00    +0.295 HD
ENDBRANCH  17  18
ENDBRANCH  10  17
ENDBRANCH   1  14
BRANCH   6  20
ATOM     20  O   UNL     1      33.969 -21.752 -18.431  0.00  0.00    -0.471 OA
BRANCH  20  21
ATOM     21  C   UNL     1      34.980 -22.371 -17.647  0.00  0.00    +0.229 C 
BRANCH  21  23
ATOM     22  N   UNL     1      33.102 -24.079 -14.203  0.00  0.00    -0.406 NA
ATOM     23  C   UNL     1      34.356 -22.971 -16.426  0.00  0.00    +0.012 C 
ATOM     24  C   UNL     1      35.115 -23.354 -15.312  0.00  0.00    +0.096 C 
ATOM     25  C   UNL     1      32.979 -23.142 -16.425  0.00  0.00    +0.028 C 
ATOM     26  C   UNL     1      34.438 -23.911 -14.207  0.00  0.00    +0.117 C 
ATOM     27  C   UNL     1      32.406 -23.696 -15.298  0.00  0.00    +0.130 C 
ATOM     28  C   UNL     1      36.511 -23.194 -15.282  0.00  0.00    -0.015 C 
ATOM     29  C   UNL     1      35.192 -24.292 -13.101  0.00  0.00    +0.028 C 
ATOM     30  C   UNL     1      37.241 -23.583 -14.163  0.00  0.00    -0.004 C 
ATOM     31  C   UNL     1      36.580 -24.133 -13.071  0.00  0.00    +0.002 C 
BRANCH  27  32
ATOM     32  C   UNL     1      30.981 -23.908 -15.216  0.00  0.00    +0.030 C 
ATOM     33  C   UNL     1      30.108 -23.042 -15.875  0.00  0.00    +0.003 C 
ATOM     34  C   UNL     1      30.476 -24.979 -14.479  0.00  0.00    +0.003 C 
ATOM     35  C   UNL     1      28.730 -23.247 -15.797  0.00  0.00    +0.000 C 
ATOM     36  C   UNL     1      29.098 -25.184 -14.401  0.00  0.00    +0.000 C 
ATOM     37  C   UNL     1      28.226 -24.317 -15.059  0.00  0.00    +0.000 C 
ENDBRANCH  27  32
ENDBRANCH  21  23
ENDBRANCH  20  21
ENDBRANCH   6  20
TORSDOF 7
ENDMDL
MODEL 4
REMARK VINA RESULT:     -12.1      5.298     10.086
REMARK  Name = 25049750
REMARK  7 active torsions:
REMARK  status: ('A' for Active; 'I' for Inactive)
REMARK    1  A    between atoms: C_1  and  C_14
REMARK    2  A    between atoms: C_6  and  O_20
REMARK    3  A    between atoms: C_10  and  C_17
REMARK    4  A    between atoms: C_17  and  O_18
REMARK    5  A    between atoms: O_20  and  C_21
REMARK    6  A    between atoms: C_21  and  C_23
REMARK    7  A    between atoms: C_27  and  C_32
REMARK                            x       y       z     vdW  Elec       q    Type
REMARK                         _______ _______ _______ _____ _____    ______ ____
ROOT
ATOM      1  C   UNL     1      31.758 -10.269 -21.735  0.00  0.00    -0.004 C 
ATOM      2  C   UNL     1      32.667 -10.911 -22.577  0.00  0.00    +0.000 C 
ATOM      3  C   UNL     1      31.328 -10.896 -20.566  0.00  0.00    +0.000 C 
ATOM      4  C   UNL     1      33.145 -12.180 -22.249  0.00  0.00    +0.037 C 
ATOM      5  C   UNL     1      31.806 -12.165 -20.238  0.00  0.00    +0.037 C 
ATOM      6  C   UNL     1      32.715 -12.807 -21.079  0.00  0.00    +0.139 C 
ENDROOT
BRANCH   1  14
ATOM      7  O   UNL     1      32.520  -6.054 -20.378  0.00  0.00    -0.275 OA
ATOM      8  N   UNL     1      31.321  -7.977 -20.964  0.00  0.00    -0.302 N 
ATOM      9  C   UNL     1      32.758  -7.113 -22.495  0.00  0.00    +0.081 C 
ATOM     10  C   UNL     1      34.224  -6.958 -22.710  0.00  0.00    +0.108 C 
ATOM     11  C   UNL     1      33.258  -5.945 -23.266  0.00  0.00    +0.021 C 
ATOM     12  C   UNL     1      32.042  -8.198 -23.212  0.00  0.00    +0.033 C 
ATOM     13  C   UNL     1      32.219  -6.945 -21.156  0.00  0.00    +0.222 C 
ATOM     14  C   UNL     1      31.241  -8.893 -22.090  0.00  0.00    +0.095 C 
ATOM     15  H   UNL     1      30.786  -8.082 -20.144  0.00  0.00    +0.150 HD
BRANCH  10  17
ATOM     16  O   UNL     1      35.307  -8.873 -23.519  0.00  0.00    -0.250 OA
ATOM     17  C   UNL     1      34.906  -7.737 -23.721  0.00  0.00    +0.314 C 
BRANCH  17  18
ATOM     18  O   UNL     1      35.040  -7.069 -24.893  0.00  0.00    -0.480 OA
ATOM     19  H   UNL     1      34.876  -7.507 -25.704  0.00  0.00    +0.295 HD
ENDBRANCH  17  18
ENDBRANCH  10  17
ENDBRANCH   1  14
BRANCH   6  20
ATOM     20  O   UNL     1      33.185 -14.053 -20.757  0.00  0.00    -0.471 OA
BRANCH  20  21
ATOM     21  C   UNL     1      34.511 -14.363 -21.161  0.00  0.00    +0.229 C 
BRANCH  21  23
ATOM     22  N   UNL     1      34.595 -18.283 -22.872  0.00  0.00    -0.406 NA
ATOM     23  C   UNL     1      34.529 -15.720 -21.793  0.00  0.00    +0.012 C 
ATOM     24  C   UNL     1      34.198 -15.922 -23.139  0.00  0.00    +0.096 C 
ATOM     25  C   UNL     1      34.891 -16.795 -20.994  0.00  0.00    +0.028 C 
ATOM     26  C   UNL     1      34.244 -17.238 -23.645  0.00  0.00    +0.117 C 
ATOM     27  C   UNL     1      34.907 -18.046 -21.578  0.00  0.00    +0.130 C 
ATOM     28  C   UNL     1      33.828 -14.853 -23.974  0.00  0.00    -0.015 C 
ATOM     29  C   UNL     1      33.914 -17.437 -24.982  0.00  0.00    +0.028 C 
ATOM     30  C   UNL     1      33.503 -15.081 -25.307  0.00  0.00    -0.004 C 
ATOM     31  C   UNL     1      33.547 -16.375 -25.812  0.00  0.00    +0.002 C 
BRANCH  27  32
ATOM     32  C   UNL     1      35.272 -19.217 -20.817  0.00  0.00    +0.030 C 
ATOM     33  C   UNL     1      34.293 -20.140 -20.445  0.00  0.00    +0.003 C 
ATOM     34  C   UNL     1      36.602 -19.427 -20.453  0.00  0.00    +0.003 C 
ATOM     35  C   UNL     1      34.645 -21.272 -19.710  0.00  0.00    +0.000 C 
ATOM     36  C   UNL     1      36.953 -20.560 -19.719  0.00  0.00    +0.000 C 
ATOM     37  C   UNL     1      35.975 -21.481 -19.346  0.00  0.00    +0.000 C 
ENDBRANCH  27  32
ENDBRANCH  21  23
ENDBRANCH  20  21
ENDBRANCH   6  20
TORSDOF 7
ENDMDL
MODEL 5
REMARK VINA RESULT:     -10.9      4.893      9.607
REMARK  Name = 25049750
REMARK  7 active torsions:
REMARK  status: ('A' for Active; 'I' for Inactive)
REMARK    1  A    between atoms: C_1  and  C_14
REMARK    2  A    between atoms: C_6  and  O_20
REMARK    3  A    between atoms: C_10  and  C_17
REMARK    4  A    between atoms: C_17  and  O_18
REMARK    5  A    between atoms: O_20  and  C_21
REMARK    6  A    between atoms: C_21  and  C_23
REMARK    7  A    between atoms: C_27  and  C_32
REMARK                            x       y       z     vdW  Elec       q    Type
REMARK                         _______ _______ _______ _____ _____    ______ ____
ROOT
ATOM      1  C   UNL     1      32.306 -11.160 -22.123  0.00  0.00    -0.004 C 
ATOM      2  C   UNL     1      33.198 -11.047 -23.190  0.00  0.00    +0.000 C 
ATOM      3  C   UNL     1      32.225 -12.353 -21.406  0.00  0.00    +0.000 C 
ATOM      4  C   UNL     1      34.008 -12.128 -23.539  0.00  0.00    +0.037 C 
ATOM      5  C   UNL     1      33.035 -13.433 -21.755  0.00  0.00    +0.037 C 
ATOM      6  C   UNL     1      33.927 -13.321 -22.821  0.00  0.00    +0.139 C 
ENDROOT
BRANCH   1  14
ATOM      7  O   UNL     1      32.448  -7.827 -19.113  0.00  0.00    -0.275 OA
ATOM      8  N   UNL     1      31.589  -9.622 -20.346  0.00  0.00    -0.302 N 
ATOM      9  C   UNL     1      32.371  -7.823 -21.491  0.00  0.00    +0.081 C 
ATOM     10  C   UNL     1      33.664  -7.154 -21.801  0.00  0.00    +0.108 C 
ATOM     11  C   UNL     1      32.393  -6.352 -21.705  0.00  0.00    +0.021 C 
ATOM     12  C   UNL     1      31.751  -8.693 -22.522  0.00  0.00    +0.033 C 
ATOM     13  C   UNL     1      32.162  -8.378 -20.164  0.00  0.00    +0.222 C 
ATOM     14  C   UNL     1      31.429  -9.987 -21.744  0.00  0.00    +0.095 C 
ATOM     15  H   UNL     1      31.314 -10.204 -19.601  0.00  0.00    +0.150 HD
BRANCH  10  17
ATOM     16  O   UNL     1      33.902  -6.433 -24.020  0.00  0.00    -0.250 OA
ATOM     17  C   UNL     1      34.222  -7.214 -23.135  0.00  0.00    +0.314 C 
BRANCH  17  18
ATOM     18  O   UNL     1      35.123  -8.215 -23.280  0.00  0.00    -0.480 OA
ATOM     19  H   UNL     1      35.782  -8.351 -22.628  0.00  0.00    +0.295 HD
ENDBRANCH  17  18
ENDBRANCH  10  17
ENDBRANCH   1  14
BRANCH   6  20
ATOM     20  O   UNL     1      34.723 -14.383 -23.164  0.00  0.00    -0.471 OA
BRANCH  20  21
ATOM     21  C   UNL     1      35.197 -15.198 -22.102  0.00  0.00    +0.229 C 
BRANCH  21  23
ATOM     22  N   UNL     1      34.035 -19.273 -22.695  0.00  0.00    -0.406 NA
ATOM     23  C   UNL     1      34.775 -16.614 -22.342  0.00  0.00    +0.012 C 
ATOM     24  C   UNL     1      34.075 -17.000 -23.494  0.00  0.00    +0.096 C 
ATOM     25  C   UNL     1      35.101 -17.554 -21.375  0.00  0.00    +0.028 C 
ATOM     26  C   UNL     1      33.721 -18.358 -23.631  0.00  0.00    +0.117 C 
ATOM     27  C   UNL     1      34.710 -18.860 -21.598  0.00  0.00    +0.130 C 
ATOM     28  C   UNL     1      33.731 -16.071 -24.491  0.00  0.00    -0.015 C 
ATOM     29  C   UNL     1      33.026 -18.740 -24.775  0.00  0.00    +0.028 C 
ATOM     30  C   UNL     1      33.036 -16.481 -25.624  0.00  0.00    -0.004 C 
ATOM     31  C   UNL     1      32.683 -17.818 -25.767  0.00  0.00    +0.002 C 
BRANCH  27  32
ATOM     32  C   UNL     1      35.010 -19.899 -20.642  0.00  0.00    +0.030 C 
ATOM     33  C   UNL     1      33.979 -20.673 -20.107  0.00  0.00    +0.003 C 
ATOM     34  C   UNL     1      36.329 -20.130 -20.252  0.00  0.00    +0.003 C 
ATOM     35  C   UNL     1      34.268 -21.678 -19.184  0.00  0.00    +0.000 C 
ATOM     36  C   UNL     1      36.617 -21.135 -19.329  0.00  0.00    +0.000 C 
ATOM     37  C   UNL     1      35.587 -21.908 -18.794  0.00  0.00    +0.000 C 
ENDBRANCH  27  32
ENDBRANCH  21  23
ENDBRANCH  20  21
ENDBRANCH   6  20
TORSDOF 7
ENDMDL
MODEL 6
REMARK VINA RESULT:     -10.7      5.267     12.554
REMARK  Name = 25049750
REMARK  7 active torsions:
REMARK  status: ('A' for Active; 'I' for Inactive)
REMARK    1  A    between atoms: C_1  and  C_14
REMARK    2  A    between atoms: C_6  and  O_20
REMARK    3  A    between atoms: C_10  and  C_17
REMARK    4  A    between atoms: C_17  and  O_18
REMARK    5  A    between atoms: O_20  and  C_21
REMARK    6  A    between atoms: C_21  and  C_23
REMARK    7  A    between atoms: C_27  and  C_32
REMARK                            x       y       z     vdW  Elec       q    Type
REMARK                         _______ _______ _______ _____ _____    ______ ____
ROOT
ATOM      1  C   UNL     1      35.275 -17.271 -22.967  0.00  0.00    -0.004 C 
ATOM      2  C   UNL     1      35.220 -16.335 -21.933  0.00  0.00    +0.000 C 
ATOM      3  C   UNL     1      34.602 -17.026 -24.164  0.00  0.00    +0.000 C 
ATOM      4  C   UNL     1      34.492 -15.157 -22.096  0.00  0.00    +0.037 C 
ATOM      5  C   UNL     1      33.874 -15.847 -24.327  0.00  0.00    +0.037 C 
ATOM      6  C   UNL     1      33.819 -14.912 -23.294  0.00  0.00    +0.139 C 
ENDROOT
BRANCH   1  14
ATOM      7  O   UNL     1      37.405 -19.340 -19.595  0.00  0.00    -0.275 OA
ATOM      8  N   UNL     1      37.047 -18.433 -21.724  0.00  0.00    -0.302 N 
ATOM      9  C   UNL     1      35.589 -20.007 -20.981  0.00  0.00    +0.081 C 
ATOM     10  C   UNL     1      34.516 -20.165 -19.960  0.00  0.00    +0.108 C 
ATOM     11  C   UNL     1      35.346 -21.347 -20.385  0.00  0.00    +0.021 C 
ATOM     12  C   UNL     1      35.202 -19.764 -22.393  0.00  0.00    +0.033 C 
ATOM     13  C   UNL     1      36.781 -19.249 -20.641  0.00  0.00    +0.222 C 
ATOM     14  C   UNL     1      36.066 -18.547 -22.790  0.00  0.00    +0.095 C 
ATOM     15  H   UNL     1      37.826 -17.832 -21.769  0.00  0.00    +0.150 HD
BRANCH  10  17
ATOM     16  O   UNL     1      32.717 -19.790 -21.417  0.00  0.00    -0.250 OA
ATOM     17  C   UNL     1      33.127 -20.246 -20.360  0.00  0.00    +0.314 C 
BRANCH  17  18
ATOM     18  O   UNL     1      32.356 -20.877 -19.441  0.00  0.00    -0.480 OA
ATOM     19  H   UNL     1      31.426 -20.903 -19.549  0.00  0.00    +0.295 HD
ENDBRANCH  17  18
ENDBRANCH  10  17
ENDBRANCH   1  14
BRANCH   6  20
ATOM     20  O   UNL     1      33.104 -13.754 -23.454  0.00  0.00    -0.471 OA
BRANCH  20  21
ATOM     21  C   UNL     1      33.818 -12.620 -23.924  0.00  0.00    +0.229 C 
BRANCH  21  23
ATOM     22  N   UNL     1      32.503  -9.079 -21.912  0.00  0.00    -0.406 NA
ATOM     23  C   UNL     1      33.343 -11.402 -23.193  0.00  0.00    +0.012 C 
ATOM     24  C   UNL     1      32.643 -11.484 -21.982  0.00  0.00    +0.096 C 
ATOM     25  C   UNL     1      33.620 -10.165 -23.758  0.00  0.00    +0.028 C 
ATOM     26  C   UNL     1      32.237 -10.281 -21.367  0.00  0.00    +0.117 C 
ATOM     27  C   UNL     1      33.181  -9.044 -23.082  0.00  0.00    +0.130 C 
ATOM     28  C   UNL     1      32.348 -12.722 -21.384  0.00  0.00    -0.015 C 
ATOM     29  C   UNL     1      31.541 -10.363 -20.164  0.00  0.00    +0.028 C 
ATOM     30  C   UNL     1      31.651 -12.774 -20.181  0.00  0.00    -0.004 C 
ATOM     31  C   UNL     1      31.248 -11.593 -19.570  0.00  0.00    +0.002 C 
BRANCH  27  32
ATOM     32  C   UNL     1      33.427  -7.720 -23.602  0.00  0.00    +0.030 C 
ATOM     33  C   UNL     1      34.707  -7.365 -24.030  0.00  0.00    +0.003 C 
ATOM     34  C   UNL     1      32.386  -6.794 -23.675  0.00  0.00    +0.003 C 
ATOM     35  C   UNL     1      34.945  -6.085 -24.532  0.00  0.00    +0.000 C 
ATOM     36  C   UNL     1      32.624  -5.515 -24.178  0.00  0.00    +0.000 C 
ATOM     37  C   UNL     1      33.903  -5.161 -24.605  0.00  0.00    +0.000 C 
ENDBRANCH  27  32
ENDBRANCH  21  23
ENDBRANCH  20  21
ENDBRANCH   6  20
TORSDOF 7
ENDMDL
MODEL 7
REMARK VINA RESULT:     -10.5      6.481     13.494
REMARK  Name = 25049750
REMARK  7 active torsions:
REMARK  status: ('A' for Active; 'I' for Inactive)
REMARK    1  A    between atoms: C_1  and  C_14
REMARK    2  A    between atoms: C_6  and  O_20
REMARK    3  A    between atoms: C_10  and  C_17
REMARK    4  A    between atoms: C_17  and  O_18
REMARK    5  A    between atoms: O_20  and  C_21
REMARK    6  A    between atoms: C_21  and  C_23
REMARK    7  A    between atoms: C_27  and  C_32
REMARK                            x       y       z     vdW  Elec       q    Type
REMARK                         _______ _______ _______ _____ _____    ______ ____
ROOT
ATOM      1  C   UNL     1      34.705 -15.431 -21.781  0.00  0.00    -0.004 C 
ATOM      2  C   UNL     1      34.158 -14.951 -20.590  0.00  0.00    +0.000 C 
ATOM      3  C   UNL     1      34.435 -14.780 -22.984  0.00  0.00    +0.000 C 
ATOM      4  C   UNL     1      33.342 -13.820 -20.604  0.00  0.00    +0.037 C 
ATOM      5  C   UNL     1      33.618 -13.650 -22.997  0.00  0.00    +0.037 C 
ATOM      6  C   UNL     1      33.072 -13.169 -21.808  0.00  0.00    +0.139 C 
ENDROOT
BRANCH   1  14
ATOM      7  O   UNL     1      34.273 -19.748 -20.612  0.00  0.00    -0.275 OA
ATOM      8  N   UNL     1      35.193 -17.599 -20.733  0.00  0.00    -0.302 N 
ATOM      9  C   UNL     1      34.817 -18.705 -22.680  0.00  0.00    +0.081 C 
ATOM     10  C   UNL     1      33.675 -19.161 -23.520  0.00  0.00    +0.108 C 
ATOM     11  C   UNL     1      34.969 -19.931 -23.506  0.00  0.00    +0.021 C 
ATOM     12  C   UNL     1      35.547 -17.473 -23.074  0.00  0.00    +0.033 C 
ATOM     13  C   UNL     1      34.709 -18.792 -21.234  0.00  0.00    +0.222 C 
ATOM     14  C   UNL     1      35.591 -16.656 -21.765  0.00  0.00    +0.095 C 
ATOM     15  H   UNL     1      35.263 -17.407 -19.769  0.00  0.00    +0.150 HD
BRANCH  10  17
ATOM     16  O   UNL     1      34.189 -17.787 -25.350  0.00  0.00    -0.250 OA
ATOM     17  C   UNL     1      33.387 -18.516 -24.784  0.00  0.00    +0.314 C 
BRANCH  17  18
ATOM     18  O   UNL     1      32.151 -18.813 -25.252  0.00  0.00    -0.480 OA
ATOM     19  H   UNL     1      31.403 -18.352 -24.928  0.00  0.00    +0.295 HD
ENDBRANCH  17  18
ENDBRANCH  10  17
ENDBRANCH   1  14
BRANCH   6  20
ATOM     20  O   UNL     1      32.269 -12.058 -21.821  0.00  0.00    -0.471 OA
BRANCH  20  21
ATOM     21  C   UNL     1      32.344 -11.227 -22.971  0.00  0.00    +0.229 C 
BRANCH  21  23
ATOM     22  N   UNL     1      32.781  -7.125 -21.834  0.00  0.00    -0.406 NA
ATOM     23  C   UNL     1      32.485  -9.801 -22.539  0.00  0.00    +0.012 C 
ATOM     24  C   UNL     1      32.171  -9.380 -21.239  0.00  0.00    +0.096 C 
ATOM     25  C   UNL     1      32.944  -8.887 -23.477  0.00  0.00    +0.028 C 
ATOM     26  C   UNL     1      32.336  -8.014 -20.926  0.00  0.00    +0.117 C 
ATOM     27  C   UNL     1      33.073  -7.572 -23.077  0.00  0.00    +0.130 C 
ATOM     28  C   UNL     1      31.705 -10.281 -20.266  0.00  0.00    -0.015 C 
ATOM     29  C   UNL     1      32.024  -7.597 -19.635  0.00  0.00    +0.028 C 
ATOM     30  C   UNL     1      31.400  -9.836 -18.984  0.00  0.00    -0.004 C 
ATOM     31  C   UNL     1      31.561  -8.492 -18.668  0.00  0.00    +0.002 C 
BRANCH  27  32
ATOM     32  C   UNL     1      33.542  -6.559 -23.991  0.00  0.00    +0.030 C 
ATOM     33  C   UNL     1      32.654  -5.609 -24.497  0.00  0.00    +0.003 C 
ATOM     34  C   UNL     1      34.884  -6.529 -24.370  0.00  0.00    +0.003 C 
ATOM     35  C   UNL     1      33.108  -4.630 -25.380  0.00  0.00    +0.000 C 
ATOM     36  C   UNL     1      35.338  -5.550 -25.254  0.00  0.00    +0.000 C 
ATOM     37  C   UNL     1      34.450  -4.601 -25.759  0.00  0.00    +0.000 C 
ENDBRANCH  27  32
ENDBRANCH  21  23
ENDBRANCH  20  21
ENDBRANCH   6  20
TORSDOF 7
ENDMDL
MODEL 8
REMARK VINA RESULT:     -10.5      1.420      2.183
REMARK  Name = 25049750
REMARK  7 active torsions:
REMARK  status: ('A' for Active; 'I' for Inactive)
REMARK    1  A    between atoms: C_1  and  C_14
REMARK    2  A    between atoms: C_6  and  O_20
REMARK    3  A    between atoms: C_10  and  C_17
REMARK    4  A    between atoms: C_17  and  O_18
REMARK    5  A    between atoms: O_20  and  C_21
REMARK    6  A    between atoms: C_21  and  C_23
REMARK    7  A    between atoms: C_27  and  C_32
REMARK                            x       y       z     vdW  Elec       q    Type
REMARK                         _______ _______ _______ _____ _____    ______ ____
ROOT
ATOM      1  C   UNL     1      35.369 -18.874 -22.613  0.00  0.00    -0.004 C 
ATOM      2  C   UNL     1      34.259 -19.454 -21.997  0.00  0.00    +0.000 C 
ATOM      3  C   UNL     1      36.594 -18.835 -21.948  0.00  0.00    +0.000 C 
ATOM      4  C   UNL     1      34.375 -19.994 -20.717  0.00  0.00    +0.037 C 
ATOM      5  C   UNL     1      36.710 -19.376 -20.667  0.00  0.00    +0.037 C 
ATOM      6  C   UNL     1      35.601 -19.956 -20.052  0.00  0.00    +0.139 C 
ENDROOT
BRANCH   1  14
ATOM      7  O   UNL     1      32.033 -17.380 -25.226  0.00  0.00    -0.275 OA
ATOM      8  N   UNL     1      33.945 -18.573 -24.593  0.00  0.00    -0.302 N 
ATOM      9  C   UNL     1      33.975 -16.315 -24.358  0.00  0.00    +0.081 C 
ATOM     10  C   UNL     1      33.349 -15.255 -23.520  0.00  0.00    +0.108 C 
ATOM     11  C   UNL     1      33.758 -14.964 -24.939  0.00  0.00    +0.021 C 
ATOM     12  C   UNL     1      35.359 -16.751 -24.042  0.00  0.00    +0.033 C 
ATOM     13  C   UNL     1      33.170 -17.446 -24.786  0.00  0.00    +0.222 C 
ATOM     14  C   UNL     1      35.243 -18.290 -24.002  0.00  0.00    +0.095 C 
ATOM     15  H   UNL     1      33.647 -19.481 -24.833  0.00  0.00    +0.150 HD
BRANCH  10  17
ATOM     16  O   UNL     1      34.440 -15.046 -21.455  0.00  0.00    -0.250 OA
ATOM     17  C   UNL     1      34.128 -14.547 -22.526  0.00  0.00    +0.314 C 
BRANCH  17  18
ATOM     18  O   UNL     1      34.462 -13.295 -22.920  0.00  0.00    -0.480 OA
ATOM     19  H   UNL     1      33.870 -12.794 -23.445  0.00  0.00    +0.295 HD
ENDBRANCH  17  18
ENDBRANCH  10  17
ENDBRANCH   1  14
BRANCH   6  20
ATOM     20  O   UNL     1      35.715 -20.486 -18.793  0.00  0.00    -0.471 OA
BRANCH  20  21
ATOM     21  C   UNL     1      36.102 -21.850 -18.705  0.00  0.00    +0.229 C 
BRANCH  21  23
ATOM     22  N   UNL     1      34.752 -23.503 -14.996  0.00  0.00    -0.406 NA
ATOM     23  C   UNL     1      35.594 -22.424 -17.419  0.00  0.00    +0.012 C 
ATOM     24  C   UNL     1      34.226 -22.574 -17.157  0.00  0.00    +0.096 C 
ATOM     25  C   UNL     1      36.533 -22.813 -16.474  0.00  0.00    +0.028 C 
ATOM     26  C   UNL     1      33.844 -23.125 -15.915  0.00  0.00    +0.117 C 
ATOM     27  C   UNL     1      36.063 -23.342 -15.289  0.00  0.00    +0.130 C 
ATOM     28  C   UNL     1      33.251 -22.190 -18.094  0.00  0.00    -0.015 C 
ATOM     29  C   UNL     1      32.485 -23.273 -15.656  0.00  0.00    +0.028 C 
ATOM     30  C   UNL     1      31.898 -22.349 -17.807  0.00  0.00    -0.004 C 
ATOM     31  C   UNL     1      31.515 -22.891 -16.587  0.00  0.00    +0.002 C 
BRANCH  27  32
ATOM     32  C   UNL     1      36.973 -23.771 -14.253  0.00  0.00    +0.030 C 
ATOM     33  C   UNL     1      36.789 -23.337 -12.940  0.00  0.00    +0.003 C 
ATOM     34  C   UNL     1      38.036 -24.618 -14.565  0.00  0.00    +0.003 C 
ATOM     35  C   UNL     1      37.667 -23.751 -11.939  0.00  0.00    +0.000 C 
ATOM     36  C   UNL     1      38.915 -25.032 -13.564  0.00  0.00    +0.000 C 
ATOM     37  C   UNL     1      38.731 -24.598 -12.251  0.00  0.00    +0.000 C 
ENDBRANCH  27  32
ENDBRANCH  21  23
ENDBRANCH  20  21
ENDBRANCH   6  20
TORSDOF 7
ENDMDL
MODEL 9
REMARK VINA RESULT:     -10.5      5.335      9.952
REMARK  Name = 25049750
REMARK  7 active torsions:
REMARK  status: ('A' for Active; 'I' for Inactive)
REMARK    1  A    between atoms: C_1  and  C_14
REMARK    2  A    between atoms: C_6  and  O_20
REMARK    3  A    between atoms: C_10  and  C_17
REMARK    4  A    between atoms: C_17  and  O_18
REMARK    5  A    between atoms: O_20  and  C_21
REMARK    6  A    between atoms: C_21  and  C_23
REMARK    7  A    between atoms: C_27  and  C_32
REMARK                            x       y       z     vdW  Elec       q    Type
REMARK                         _______ _______ _______ _____ _____    ______ ____
ROOT
ATOM      1  C   UNL     1      32.950 -10.167 -22.863  0.00  0.00    -0.004 C 
ATOM      2  C   UNL     1      32.167 -10.593 -21.788  0.00  0.00    +0.000 C 
ATOM      3  C   UNL     1      33.828 -11.057 -23.481  0.00  0.00    +0.000 C 
ATOM      4  C   UNL     1      32.264 -11.907 -21.333  0.00  0.00    +0.037 C 
ATOM      5  C   UNL     1      33.924 -12.372 -23.025  0.00  0.00    +0.037 C 
ATOM      6  C   UNL     1      33.142 -12.798 -21.952  0.00  0.00    +0.139 C 
ENDROOT
BRANCH   1  14
ATOM      7  O   UNL     1      29.808  -6.955 -22.885  0.00  0.00    -0.275 OA
ATOM      8  N   UNL     1      31.475  -8.386 -23.694  0.00  0.00    -0.302 N 
ATOM      9  C   UNL     1      31.988  -7.045 -21.936  0.00  0.00    +0.081 C 
ATOM     10  C   UNL     1      31.658  -6.896 -20.491  0.00  0.00    +0.108 C 
ATOM     11  C   UNL     1      32.012  -5.691 -21.322  0.00  0.00    +0.021 C 
ATOM     12  C   UNL     1      33.272  -7.688 -22.313  0.00  0.00    +0.033 C 
ATOM     13  C   UNL     1      30.937  -7.421 -22.865  0.00  0.00    +0.222 C 
ATOM     14  C   UNL     1      32.844  -8.742 -23.357  0.00  0.00    +0.095 C 
ATOM     15  H   UNL     1      30.979  -8.794 -24.441  0.00  0.00    +0.150 HD
BRANCH  10  17
ATOM     16  O   UNL     1      33.375  -6.378 -18.980  0.00  0.00    -0.250 OA
ATOM     17  C   UNL     1      32.638  -7.218 -19.476  0.00  0.00    +0.314 C 
BRANCH  17  18
ATOM     18  O   UNL     1      32.638  -8.533 -19.148  0.00  0.00    -0.480 OA
ATOM     19  H   UNL     1      33.121  -9.145 -19.666  0.00  0.00    +0.295 HD
ENDBRANCH  17  18
ENDBRANCH  10  17
ENDBRANCH   1  14
BRANCH   6  20
ATOM     20  O   UNL     1      33.237 -14.090 -21.505  0.00  0.00    -0.471 OA
BRANCH  20  21
ATOM     21  C   UNL     1      34.543 -14.639 -21.406  0.00  0.00    +0.229 C 
BRANCH  21  23
ATOM     22  N   UNL     1      34.533 -18.687 -22.793  0.00  0.00    -0.406 NA
ATOM     23  C   UNL     1      34.527 -16.043 -21.924  0.00  0.00    +0.012 C 
ATOM     24  C   UNL     1      34.129 -16.352 -23.232  0.00  0.00    +0.096 C 
ATOM     25  C   UNL     1      34.925 -17.052 -21.059  0.00  0.00    +0.028 C 
ATOM     26  C   UNL     1      34.148 -17.706 -23.630  0.00  0.00    +0.117 C 
ATOM     27  C   UNL     1      34.910 -18.347 -21.539  0.00  0.00    +0.130 C 
ATOM     28  C   UNL     1      33.722 -15.353 -24.133  0.00  0.00    -0.015 C 
ATOM     29  C   UNL     1      33.752 -18.011 -24.929  0.00  0.00    +0.028 C 
ATOM     30  C   UNL     1      33.331 -15.687 -25.425  0.00  0.00    -0.004 C 
ATOM     31  C   UNL     1      33.346 -17.018 -25.824  0.00  0.00    +0.002 C 
BRANCH  27  32
ATOM     32  C   UNL     1      35.308 -19.454 -20.703  0.00  0.00    +0.030 C 
ATOM     33  C   UNL     1      36.650 -19.621 -20.358  0.00  0.00    +0.003 C 
ATOM     34  C   UNL     1      34.352 -20.358 -20.240  0.00  0.00    +0.003 C 
ATOM     35  C   UNL     1      37.035 -20.691 -19.550  0.00  0.00    +0.000 C 
ATOM     36  C   UNL     1      34.737 -21.428 -19.432  0.00  0.00    +0.000 C 
ATOM     37  C   UNL     1      36.079 -21.595 -19.088  0.00  0.00    +0.000 C 
ENDBRANCH  27  32
ENDBRANCH  21  23
ENDBRANCH  20  21
ENDBRANCH   6  20
TORSDOF 7
ENDMDL
