MODEL 1
REMARK VINA RESULT:     -11.8      0.000      0.000
REMARK  Name = 24941254
REMARK  6 active torsions:
REMARK  status: ('A' for Active; 'I' for Inactive)
REMARK    1  A    between atoms: C_1  and  S_21
REMARK    2  A    between atoms: C_4  and  C_9
REMARK    3  A    between atoms: N_8  and  C_11
REMARK    4  A    between atoms: C_12  and  C_18
REMARK    5  A    between atoms: C_18  and  O_19
REMARK    6  A    between atoms: S_21  and  N_24
REMARK                            x       y       z     vdW  Elec       q    Type
REMARK                         _______ _______ _______ _____ _____    ______ ____
ROOT
ATOM      1  C   UNL     1      35.126 -19.808 -20.589  0.00  0.00    +0.122 C 
ATOM      2  C   UNL     1      35.250 -20.829 -19.647  0.00  0.00    +0.024 C 
ATOM      3  C   UNL     1      33.875 -19.509 -21.131  0.00  0.00    +0.020 C 
ATOM      4  C   UNL     1      34.126 -21.551 -19.248  0.00  0.00    +0.055 C 
ATOM      5  C   UNL     1      32.751 -20.231 -20.732  0.00  0.00    +0.002 C 
ATOM      6  C   UNL     1      32.877 -21.252 -19.790  0.00  0.00    +0.005 C 
ENDROOT
BRANCH   4   9
ATOM      7  O   UNL     1      33.882 -23.762 -18.565  0.00  0.00    -0.270 OA
ATOM      8  N   UNL     1      34.831 -22.252 -17.040  0.00  0.00    -0.280 N 
ATOM      9  C   UNL     1      34.256 -22.616 -18.266  0.00  0.00    +0.250 C 
ATOM     10  H   UNL     1      35.078 -21.303 -16.949  0.00  0.00    +0.155 HD
BRANCH   8  11
ATOM     11  C   UNL     1      35.105 -23.069 -15.917  0.00  0.00    +0.057 C 
ATOM     12  C   UNL     1      36.397 -23.174 -15.403  0.00  0.00    +0.089 C 
ATOM     13  C   UNL     1      34.058 -23.775 -15.323  0.00  0.00    +0.015 C 
ATOM     14  C   UNL     1      36.642 -23.986 -14.294  0.00  0.00    +0.008 C 
ATOM     15  C   UNL     1      34.304 -24.588 -14.216  0.00  0.00    +0.001 C 
ATOM     16  C   UNL     1      35.596 -24.693 -13.702  0.00  0.00    +0.000 C 
BRANCH  12  18
ATOM     17  O   UNL     1      37.437 -21.346 -16.541  0.00  0.00    -0.245 OA
ATOM     18  C   UNL     1      37.513 -22.450 -15.998  0.00  0.00    +0.339 C 
BRANCH  18  19
ATOM     19  O   UNL     1      38.686 -23.131 -15.893  0.00  0.00    -0.477 OA
ATOM     20  H   UNL     1      38.747 -24.010 -16.212  0.00  0.00    +0.295 HD
ENDBRANCH  18  19
ENDBRANCH  12  18
ENDBRANCH   8  11
ENDBRANCH   4   9
BRANCH   1  21
ATOM     21  S   UNL     1      36.549 -18.895 -21.097  0.00  0.00    +0.064 S 
ATOM     22  O   UNL     1      37.305 -18.559 -19.909  0.00  0.00    -0.153 OA
ATOM     23  O   UNL     1      37.166 -19.607 -22.196  0.00  0.00    -0.153 OA
BRANCH  21  24
ATOM     24  N   UNL     1      35.797 -17.480 -21.701  0.00  0.00    -0.151 NA
ATOM     25  C   UNL     1      34.857 -16.797 -20.773  0.00  0.00    +0.101 C 
ATOM     26  C   UNL     1      35.236 -17.593 -23.082  0.00  0.00    +0.122 C 
ATOM     27  C   UNL     1      34.665 -15.358 -21.242  0.00  0.00    +0.045 C 
ATOM     28  C   UNL     1      34.569 -16.331 -23.576  0.00  0.00    -0.008 C 
ATOM     29  C   UNL     1      34.267 -15.280 -22.694  0.00  0.00    -0.023 C 
ATOM     30  C   UNL     1      34.210 -16.225 -24.927  0.00  0.00    -0.003 C 
ATOM     31  C   UNL     1      33.642 -14.125 -23.184  0.00  0.00    -0.004 C 
ATOM     32  C   UNL     1      33.578 -15.076 -25.402  0.00  0.00    -0.000 C 
ATOM     33  C   UNL     1      33.296 -14.026 -24.531  0.00  0.00    -0.000 C 
ENDBRANCH  21  24
ENDBRANCH   1  21
TORSDOF 6
ENDMDL
MODEL 2
REMARK VINA RESULT:     -11.6      7.320     11.457
REMARK  Name = 24941254
REMARK  6 active torsions:
REMARK  status: ('A' for Active; 'I' for Inactive)
REMARK    1  A    between atoms: C_1  and  S_21
REMARK    2  A    between atoms: C_4  and  C_9
REMARK    3  A    between atoms: N_8  and  C_11
REMARK    4  A    between atoms: C_12  and  C_18
REMARK    5  A    between atoms: C_18  and  O_19
REMARK    6  A    between atoms: S_21  and  N_24
REMARK                            x       y       z     vdW  Elec       q    Type
REMARK                         _______ _______ _______ _____ _____    ______ ____
ROOT
ATOM      1  C   UNL     1      31.618  -8.792 -21.419  0.00  0.00    +0.122 C 
ATOM      2  C   UNL     1      32.221  -9.640 -22.347  0.00  0.00    +0.024 C 
ATOM      3  C   UNL     1      31.306  -9.264 -20.143  0.00  0.00    +0.020 C 
ATOM      4  C   UNL     1      32.511 -10.960 -22.001  0.00  0.00    +0.055 C 
ATOM      5  C   UNL     1      31.596 -10.584 -19.797  0.00  0.00    +0.002 C 
ATOM      6  C   UNL     1      32.199 -11.431 -20.726  0.00  0.00    +0.005 C 
ENDROOT
BRANCH   4   9
ATOM      7  O   UNL     1      33.791 -11.350 -23.904  0.00  0.00    -0.270 OA
ATOM      8  N   UNL     1      32.975 -13.218 -22.742  0.00  0.00    -0.280 N 
ATOM      9  C   UNL     1      33.141 -11.844 -22.969  0.00  0.00    +0.250 C 
ATOM     10  H   UNL     1      32.432 -13.459 -21.957  0.00  0.00    +0.155 HD
BRANCH   8  11
ATOM     11  C   UNL     1      33.488 -14.304 -23.491  0.00  0.00    +0.057 C 
ATOM     12  C   UNL     1      34.258 -15.297 -22.884  0.00  0.00    +0.089 C 
ATOM     13  C   UNL     1      33.213 -14.372 -24.857  0.00  0.00    +0.015 C 
ATOM     14  C   UNL     1      34.752 -16.357 -23.644  0.00  0.00    +0.008 C 
ATOM     15  C   UNL     1      33.709 -15.432 -25.617  0.00  0.00    +0.001 C 
ATOM     16  C   UNL     1      34.478 -16.424 -25.010  0.00  0.00    +0.000 C 
BRANCH  12  18
ATOM     17  O   UNL     1      34.508 -14.251 -20.748  0.00  0.00    -0.245 OA
ATOM     18  C   UNL     1      34.564 -15.256 -21.460  0.00  0.00    +0.339 C 
BRANCH  18  19
ATOM     19  O   UNL     1      34.928 -16.474 -20.975  0.00  0.00    -0.477 OA
ATOM     20  H   UNL     1      35.484 -16.531 -20.223  0.00  0.00    +0.295 HD
ENDBRANCH  18  19
ENDBRANCH  12  18
ENDBRANCH   8  11
ENDBRANCH   4   9
BRANCH   1  21
ATOM     21  S   UNL     1      31.247  -7.122 -21.856  0.00  0.00    +0.064 S 
ATOM     22  O   UNL     1      29.999  -7.124 -22.589  0.00  0.00    -0.153 OA
ATOM     23  O   UNL     1      31.415  -6.304 -20.673  0.00  0.00    -0.153 OA
BRANCH  21  24
ATOM     24  N   UNL     1      32.534  -6.804 -22.940  0.00  0.00    -0.151 NA
ATOM     25  C   UNL     1      33.900  -6.839 -22.354  0.00  0.00    +0.101 C 
ATOM     26  C   UNL     1      32.340  -5.623 -23.836  0.00  0.00    +0.122 C 
ATOM     27  C   UNL     1      34.912  -7.025 -23.481  0.00  0.00    +0.045 C 
ATOM     28  C   UNL     1      33.500  -5.365 -24.768  0.00  0.00    -0.008 C 
ATOM     29  C   UNL     1      34.736  -6.008 -24.579  0.00  0.00    -0.023 C 
ATOM     30  C   UNL     1      33.354  -4.441 -25.811  0.00  0.00    -0.003 C 
ATOM     31  C   UNL     1      35.794  -5.741 -25.458  0.00  0.00    -0.004 C 
ATOM     32  C   UNL     1      34.418  -4.174 -26.673  0.00  0.00    -0.000 C 
ATOM     33  C   UNL     1      35.636  -4.826 -26.498  0.00  0.00    -0.000 C 
ENDBRANCH  21  24
ENDBRANCH   1  21
TORSDOF 6
ENDMDL
MODEL 3
REMARK VINA RESULT:     -11.4      3.714      9.329
REMARK  Name = 24941254
REMARK  6 active torsions:
REMARK  status: ('A' for Active; 'I' for Inactive)
REMARK    1  A    between atoms: C_1  and  S_21
REMARK    2  A    between atoms: C_4  and  C_9
REMARK    3  A    between atoms: N_8  and  C_11
REMARK    4  A    between atoms: C_12  and  C_18
REMARK    5  A    between atoms: C_18  and  O_19
REMARK    6  A    between atoms: S_21  and  N_24
REMARK                            x       y       z     vdW  Elec       q    Type
REMARK                         _______ _______ _______ _____ _____    ______ ____
ROOT
ATOM      1  C   UNL     1      36.660 -23.917 -13.990  0.00  0.00    +0.122 C 
ATOM      2  C   UNL     1      36.396 -22.917 -14.927  0.00  0.00    +0.024 C 
ATOM      3  C   UNL     1      37.881 -24.592 -14.018  0.00  0.00    +0.020 C 
ATOM      4  C   UNL     1      37.352 -22.593 -15.890  0.00  0.00    +0.055 C 
ATOM      5  C   UNL     1      38.836 -24.268 -14.981  0.00  0.00    +0.002 C 
ATOM      6  C   UNL     1      38.571 -23.269 -15.917  0.00  0.00    +0.005 C 
ENDROOT
BRANCH   4   9
ATOM      7  O   UNL     1      37.565 -20.422 -16.697  0.00  0.00    -0.270 OA
ATOM      8  N   UNL     1      36.281 -21.927 -17.957  0.00  0.00    -0.280 N 
ATOM      9  C   UNL     1      37.077 -21.550 -16.866  0.00  0.00    +0.250 C 
ATOM     10  H   UNL     1      35.965 -22.860 -17.954  0.00  0.00    +0.155 HD
BRANCH   8  11
ATOM     11  C   UNL     1      35.873 -21.144 -19.064  0.00  0.00    +0.057 C 
ATOM     12  C   UNL     1      34.577 -21.236 -19.571  0.00  0.00    +0.089 C 
ATOM     13  C   UNL     1      36.790 -20.270 -19.648  0.00  0.00    +0.015 C 
ATOM     14  C   UNL     1      34.198 -20.453 -20.662  0.00  0.00    +0.008 C 
ATOM     15  C   UNL     1      36.412 -19.489 -20.740  0.00  0.00    +0.001 C 
ATOM     16  C   UNL     1      35.116 -19.580 -21.246  0.00  0.00    +0.000 C 
BRANCH  12  18
ATOM     17  O   UNL     1      33.743 -23.352 -18.831  0.00  0.00    -0.245 OA
ATOM     18  C   UNL     1      33.594 -22.138 -18.984  0.00  0.00    +0.339 C 
BRANCH  18  19
ATOM     19  O   UNL     1      32.458 -21.490 -18.609  0.00  0.00    -0.477 OA
ATOM     20  H   UNL     1      32.513 -20.695 -18.116  0.00  0.00    +0.295 HD
ENDBRANCH  18  19
ENDBRANCH  12  18
ENDBRANCH   8  11
ENDBRANCH   4   9
BRANCH   1  21
ATOM     21  S   UNL     1      35.451 -24.329 -12.772  0.00  0.00    +0.064 S 
ATOM     22  O   UNL     1      35.656 -25.711 -12.395  0.00  0.00    -0.153 OA
ATOM     23  O   UNL     1      35.447 -23.278 -11.776  0.00  0.00    -0.153 OA
BRANCH  21  24
ATOM     24  N   UNL     1      34.025 -24.209 -13.712  0.00  0.00    -0.151 NA
ATOM     25  C   UNL     1      33.771 -22.885 -14.341  0.00  0.00    +0.101 C 
ATOM     26  C   UNL     1      32.793 -24.775 -13.083  0.00  0.00    +0.122 C 
ATOM     27  C   UNL     1      32.786 -23.070 -15.492  0.00  0.00    +0.045 C 
ATOM     28  C   UNL     1      31.553 -24.640 -13.935  0.00  0.00    -0.008 C 
ATOM     29  C   UNL     1      31.540 -23.801 -15.064  0.00  0.00    -0.023 C 
ATOM     30  C   UNL     1      30.388 -25.328 -13.571  0.00  0.00    -0.003 C 
ATOM     31  C   UNL     1      30.371 -23.693 -15.829  0.00  0.00    -0.004 C 
ATOM     32  C   UNL     1      29.226 -25.204 -14.333  0.00  0.00    -0.000 C 
ATOM     33  C   UNL     1      29.219 -24.389 -15.463  0.00  0.00    -0.000 C 
ENDBRANCH  21  24
ENDBRANCH   1  21
TORSDOF 6
ENDMDL
MODEL 4
REMARK VINA RESULT:     -11.3      6.369     10.035
REMARK  Name = 24941254
REMARK  6 active torsions:
REMARK  status: ('A' for Active; 'I' for Inactive)
REMARK    1  A    between atoms: C_1  and  S_21
REMARK    2  A    between atoms: C_4  and  C_9
REMARK    3  A    between atoms: N_8  and  C_11
REMARK    4  A    between atoms: C_12  and  C_18
REMARK    5  A    between atoms: C_18  and  O_19
REMARK    6  A    between atoms: S_21  and  N_24
REMARK                            x       y       z     vdW  Elec       q    Type
REMARK                         _______ _______ _______ _____ _____    ______ ____
ROOT
ATOM      1  C   UNL     1      32.681 -10.979 -22.360  0.00  0.00    +0.122 C 
ATOM      2  C   UNL     1      32.943 -12.235 -21.812  0.00  0.00    +0.024 C 
ATOM      3  C   UNL     1      33.180 -10.651 -23.621  0.00  0.00    +0.020 C 
ATOM      4  C   UNL     1      33.704 -13.162 -22.524  0.00  0.00    +0.055 C 
ATOM      5  C   UNL     1      33.942 -11.578 -24.332  0.00  0.00    +0.002 C 
ATOM      6  C   UNL     1      34.203 -12.834 -23.783  0.00  0.00    +0.005 C 
ENDROOT
BRANCH   4   9
ATOM      7  O   UNL     1      33.792 -14.650 -20.738  0.00  0.00    -0.270 OA
ATOM      8  N   UNL     1      34.415 -15.453 -22.853  0.00  0.00    -0.280 N 
ATOM      9  C   UNL     1      33.977 -14.471 -21.952  0.00  0.00    +0.250 C 
ATOM     10  H   UNL     1      34.516 -15.161 -23.788  0.00  0.00    +0.155 HD
BRANCH   8  11
ATOM     11  C   UNL     1      34.730 -16.809 -22.595  0.00  0.00    +0.057 C 
ATOM     12  C   UNL     1      34.458 -17.802 -23.536  0.00  0.00    +0.089 C 
ATOM     13  C   UNL     1      35.321 -17.146 -21.377  0.00  0.00    +0.015 C 
ATOM     14  C   UNL     1      34.778 -19.132 -23.259  0.00  0.00    +0.008 C 
ATOM     15  C   UNL     1      35.639 -18.476 -21.099  0.00  0.00    +0.001 C 
ATOM     16  C   UNL     1      35.367 -19.468 -22.041  0.00  0.00    +0.000 C 
BRANCH  12  18
ATOM     17  O   UNL     1      32.767 -17.933 -25.222  0.00  0.00    -0.245 OA
ATOM     18  C   UNL     1      33.842 -17.485 -24.819  0.00  0.00    +0.339 C 
BRANCH  18  19
ATOM     19  O   UNL     1      34.592 -16.619 -25.552  0.00  0.00    -0.477 OA
ATOM     20  H   UNL     1      34.790 -16.812 -26.447  0.00  0.00    +0.295 HD
ENDBRANCH  18  19
ENDBRANCH  12  18
ENDBRANCH   8  11
ENDBRANCH   4   9
BRANCH   1  21
ATOM     21  S   UNL     1      31.719  -9.805 -21.459  0.00  0.00    +0.064 S 
ATOM     22  O   UNL     1      30.324 -10.153 -21.628  0.00  0.00    -0.153 OA
ATOM     23  O   UNL     1      32.299  -9.673 -20.138  0.00  0.00    -0.153 OA
BRANCH  21  24
ATOM     24  N   UNL     1      32.056  -8.388 -22.358  0.00  0.00    -0.151 NA
ATOM     25  C   UNL     1      33.485  -7.976 -22.408  0.00  0.00    +0.101 C 
ATOM     26  C   UNL     1      31.150  -7.229 -22.094  0.00  0.00    +0.122 C 
ATOM     27  C   UNL     1      33.683  -7.038 -23.595  0.00  0.00    +0.045 C 
ATOM     28  C   UNL     1      31.486  -5.993 -22.894  0.00  0.00    -0.008 C 
ATOM     29  C   UNL     1      32.707  -5.888 -23.583  0.00  0.00    -0.023 C 
ATOM     30  C   UNL     1      30.585  -4.920 -22.918  0.00  0.00    -0.003 C 
ATOM     31  C   UNL     1      32.991  -4.725 -24.311  0.00  0.00    -0.004 C 
ATOM     32  C   UNL     1      30.883  -3.762 -23.636  0.00  0.00    -0.000 C 
ATOM     33  C   UNL     1      32.085  -3.666 -24.334  0.00  0.00    -0.000 C 
ENDBRANCH  21  24
ENDBRANCH   1  21
TORSDOF 6
ENDMDL
MODEL 5
REMARK VINA RESULT:     -11.3      1.551      2.892
REMARK  Name = 24941254
REMARK  6 active torsions:
REMARK  status: ('A' for Active; 'I' for Inactive)
REMARK    1  A    between atoms: C_1  and  S_21
REMARK    2  A    between atoms: C_4  and  C_9
REMARK    3  A    between atoms: N_8  and  C_11
REMARK    4  A    between atoms: C_12  and  C_18
REMARK    5  A    between atoms: C_18  and  O_19
REMARK    6  A    between atoms: S_21  and  N_24
REMARK                            x       y       z     vdW  Elec       q    Type
REMARK                         _______ _______ _______ _____ _____    ______ ____
ROOT
ATOM      1  C   UNL     1      34.975 -19.737 -21.050  0.00  0.00    +0.122 C 
ATOM      2  C   UNL     1      35.442 -20.507 -19.985  0.00  0.00    +0.024 C 
ATOM      3  C   UNL     1      33.610 -19.700 -21.337  0.00  0.00    +0.020 C 
ATOM      4  C   UNL     1      34.544 -21.239 -19.207  0.00  0.00    +0.055 C 
ATOM      5  C   UNL     1      32.713 -20.432 -20.560  0.00  0.00    +0.002 C 
ATOM      6  C   UNL     1      33.181 -21.202 -19.495  0.00  0.00    +0.005 C 
ENDROOT
BRANCH   4   9
ATOM      7  O   UNL     1      36.245 -22.288 -18.016  0.00  0.00    -0.270 OA
ATOM      8  N   UNL     1      34.063 -22.459 -17.172  0.00  0.00    -0.280 N 
ATOM      9  C   UNL     1      35.031 -22.042 -18.096  0.00  0.00    +0.250 C 
ATOM     10  H   UNL     1      33.138 -22.185 -17.369  0.00  0.00    +0.155 HD
BRANCH   8  11
ATOM     11  C   UNL     1      34.240 -23.219 -15.990  0.00  0.00    +0.057 C 
ATOM     12  C   UNL     1      33.157 -23.540 -15.172  0.00  0.00    +0.089 C 
ATOM     13  C   UNL     1      35.523 -23.649 -15.650  0.00  0.00    +0.015 C 
ATOM     14  C   UNL     1      33.357 -24.291 -14.013  0.00  0.00    +0.008 C 
ATOM     15  C   UNL     1      35.723 -24.399 -14.491  0.00  0.00    +0.001 C 
ATOM     16  C   UNL     1      34.640 -24.720 -13.673  0.00  0.00    +0.000 C 
BRANCH  12  18
ATOM     17  O   UNL     1      31.360 -22.956 -16.638  0.00  0.00    -0.245 OA
ATOM     18  C   UNL     1      31.804 -23.107 -15.498  0.00  0.00    +0.339 C 
BRANCH  18  19
ATOM     19  O   UNL     1      31.053 -22.877 -14.388  0.00  0.00    -0.477 OA
ATOM     20  H   UNL     1      30.175 -22.563 -14.473  0.00  0.00    +0.295 HD
ENDBRANCH  18  19
ENDBRANCH  12  18
ENDBRANCH   8  11
ENDBRANCH   4   9
BRANCH   1  21
ATOM     21  S   UNL     1      36.110 -18.812 -22.036  0.00  0.00    +0.064 S 
ATOM     22  O   UNL     1      37.221 -18.429 -21.190  0.00  0.00    -0.153 OA
ATOM     23  O   UNL     1      36.328 -19.542 -23.267  0.00  0.00    -0.153 OA
BRANCH  21  24
ATOM     24  N   UNL     1      35.158 -17.429 -22.371  0.00  0.00    -0.151 NA
ATOM     25  C   UNL     1      35.402 -16.776 -23.685  0.00  0.00    +0.101 C 
ATOM     26  C   UNL     1      35.061 -16.433 -21.261  0.00  0.00    +0.122 C 
ATOM     27  C   UNL     1      34.195 -15.909 -24.033  0.00  0.00    +0.045 C 
ATOM     28  C   UNL     1      34.226 -15.221 -21.597  0.00  0.00    -0.008 C 
ATOM     29  C   UNL     1      33.841 -14.953 -22.923  0.00  0.00    -0.023 C 
ATOM     30  C   UNL     1      33.864 -14.329 -20.579  0.00  0.00    -0.003 C 
ATOM     31  C   UNL     1      33.071 -13.816 -23.202  0.00  0.00    -0.004 C 
ATOM     32  C   UNL     1      33.107 -13.193 -20.869  0.00  0.00    -0.000 C 
ATOM     33  C   UNL     1      32.709 -12.939 -22.180  0.00  0.00    -0.000 C 
ENDBRANCH  21  24
ENDBRANCH   1  21
TORSDOF 6
ENDMDL
MODEL 6
REMARK VINA RESULT:     -11.2      2.201      9.763
REMARK  Name = 24941254
REMARK  6 active torsions:
REMARK  status: ('A' for Active; 'I' for Inactive)
REMARK    1  A    between atoms: C_1  and  S_21
REMARK    2  A    between atoms: C_4  and  C_9
REMARK    3  A    between atoms: N_8  and  C_11
REMARK    4  A    between atoms: C_12  and  C_18
REMARK    5  A    between atoms: C_18  and  O_19
REMARK    6  A    between atoms: S_21  and  N_24
REMARK                            x       y       z     vdW  Elec       q    Type
REMARK                         _______ _______ _______ _____ _____    ______ ____
ROOT
ATOM      1  C   UNL     1      34.916 -20.916 -19.821  0.00  0.00    +0.122 C 
ATOM      2  C   UNL     1      34.334 -20.146 -20.828  0.00  0.00    +0.024 C 
ATOM      3  C   UNL     1      36.257 -20.727 -19.488  0.00  0.00    +0.020 C 
ATOM      4  C   UNL     1      35.092 -19.189 -21.501  0.00  0.00    +0.055 C 
ATOM      5  C   UNL     1      37.016 -19.770 -20.161  0.00  0.00    +0.002 C 
ATOM      6  C   UNL     1      36.432 -19.001 -21.168  0.00  0.00    +0.005 C 
ENDROOT
BRANCH   4   9
ATOM      7  O   UNL     1      33.746 -18.937 -23.382  0.00  0.00    -0.270 OA
ATOM      8  N   UNL     1      34.775 -17.014 -22.518  0.00  0.00    -0.280 N 
ATOM      9  C   UNL     1      34.485 -18.385 -22.551  0.00  0.00    +0.250 C 
ATOM     10  H   UNL     1      35.379 -16.722 -21.797  0.00  0.00    +0.155 HD
BRANCH   8  11
ATOM     11  C   UNL     1      34.312 -15.994 -23.383  0.00  0.00    +0.057 C 
ATOM     12  C   UNL     1      33.857 -14.775 -22.879  0.00  0.00    +0.089 C 
ATOM     13  C   UNL     1      34.315 -16.222 -24.760  0.00  0.00    +0.015 C 
ATOM     14  C   UNL     1      33.406 -13.784 -23.753  0.00  0.00    +0.008 C 
ATOM     15  C   UNL     1      33.862 -15.231 -25.632  0.00  0.00    +0.001 C 
ATOM     16  C   UNL     1      33.408 -14.013 -25.128  0.00  0.00    +0.000 C 
BRANCH  12  18
ATOM     17  O   UNL     1      34.598 -15.012 -20.618  0.00  0.00    -0.245 OA
ATOM     18  C   UNL     1      33.841 -14.504 -21.447  0.00  0.00    +0.339 C 
BRANCH  18  19
ATOM     19  O   UNL     1      32.878 -13.607 -21.102  0.00  0.00    -0.477 OA
ATOM     20  H   UNL     1      32.707 -13.427 -20.199  0.00  0.00    +0.295 HD
ENDBRANCH  18  19
ENDBRANCH  12  18
ENDBRANCH   8  11
ENDBRANCH   4   9
BRANCH   1  21
ATOM     21  S   UNL     1      33.957 -22.130 -18.970  0.00  0.00    +0.064 S 
ATOM     22  O   UNL     1      32.647 -21.566 -18.723  0.00  0.00    -0.153 OA
ATOM     23  O   UNL     1      34.106 -23.388 -19.673  0.00  0.00    -0.153 OA
BRANCH  21  24
ATOM     24  N   UNL     1      34.820 -22.213 -17.494  0.00  0.00    -0.151 NA
ATOM     25  C   UNL     1      36.298 -22.338 -17.612  0.00  0.00    +0.101 C 
ATOM     26  C   UNL     1      34.260 -23.151 -16.475  0.00  0.00    +0.122 C 
ATOM     27  C   UNL     1      36.932 -21.915 -16.291  0.00  0.00    +0.045 C 
ATOM     28  C   UNL     1      35.054 -23.208 -15.192  0.00  0.00    -0.008 C 
ATOM     29  C   UNL     1      36.341 -22.648 -15.113  0.00  0.00    -0.023 C 
ATOM     30  C   UNL     1      34.516 -23.863 -14.076  0.00  0.00    -0.003 C 
ATOM     31  C   UNL     1      37.055 -22.723 -13.909  0.00  0.00    -0.004 C 
ATOM     32  C   UNL     1      35.240 -23.943 -12.886  0.00  0.00    -0.000 C 
ATOM     33  C   UNL     1      36.507 -23.371 -12.803  0.00  0.00    -0.000 C 
ENDBRANCH  21  24
ENDBRANCH   1  21
TORSDOF 6
ENDMDL
MODEL 7
REMARK VINA RESULT:     -11.2      3.135      9.137
REMARK  Name = 24941254
REMARK  6 active torsions:
REMARK  status: ('A' for Active; 'I' for Inactive)
REMARK    1  A    between atoms: C_1  and  S_21
REMARK    2  A    between atoms: C_4  and  C_9
REMARK    3  A    between atoms: N_8  and  C_11
REMARK    4  A    between atoms: C_12  and  C_18
REMARK    5  A    between atoms: C_18  and  O_19
REMARK    6  A    between atoms: S_21  and  N_24
REMARK                            x       y       z     vdW  Elec       q    Type
REMARK                         _______ _______ _______ _____ _____    ______ ____
ROOT
ATOM      1  C   UNL     1      35.909 -23.214 -15.432  0.00  0.00    +0.122 C 
ATOM      2  C   UNL     1      35.278 -22.865 -16.626  0.00  0.00    +0.024 C 
ATOM      3  C   UNL     1      37.166 -22.688 -15.129  0.00  0.00    +0.020 C 
ATOM      4  C   UNL     1      35.902 -21.991 -17.516  0.00  0.00    +0.055 C 
ATOM      5  C   UNL     1      37.790 -21.815 -16.020  0.00  0.00    +0.002 C 
ATOM      6  C   UNL     1      37.158 -21.467 -17.214  0.00  0.00    +0.005 C 
ENDROOT
BRANCH   4   9
ATOM      7  O   UNL     1      34.274 -22.298 -19.149  0.00  0.00    -0.270 OA
ATOM      8  N   UNL     1      35.759 -20.503 -19.421  0.00  0.00    -0.280 N 
ATOM      9  C   UNL     1      35.243 -21.627 -18.761  0.00  0.00    +0.250 C 
ATOM     10  H   UNL     1      36.533 -20.073 -18.991  0.00  0.00    +0.155 HD
BRANCH   8  11
ATOM     11  C   UNL     1      35.313 -19.904 -20.624  0.00  0.00    +0.057 C 
ATOM     12  C   UNL     1      36.117 -19.001 -21.319  0.00  0.00    +0.089 C 
ATOM     13  C   UNL     1      34.047 -20.229 -21.111  0.00  0.00    +0.015 C 
ATOM     14  C   UNL     1      35.655 -18.424 -22.502  0.00  0.00    +0.008 C 
ATOM     15  C   UNL     1      33.585 -19.651 -22.294  0.00  0.00    +0.001 C 
ATOM     16  C   UNL     1      34.389 -18.748 -22.989  0.00  0.00    +0.000 C 
BRANCH  12  18
ATOM     17  O   UNL     1      37.760 -18.503 -19.654  0.00  0.00    -0.245 OA
ATOM     18  C   UNL     1      37.445 -18.640 -20.838  0.00  0.00    +0.339 C 
BRANCH  18  19
ATOM     19  O   UNL     1      38.332 -18.462 -21.853  0.00  0.00    -0.477 OA
ATOM     20  H   UNL     1      38.650 -19.202 -22.332  0.00  0.00    +0.295 HD
ENDBRANCH  18  19
ENDBRANCH  12  18
ENDBRANCH   8  11
ENDBRANCH   4   9
BRANCH   1  21
ATOM     21  S   UNL     1      35.121 -24.320 -14.305  0.00  0.00    +0.064 S 
ATOM     22  O   UNL     1      35.570 -25.661 -14.615  0.00  0.00    -0.153 OA
ATOM     23  O   UNL     1      35.267 -23.776 -12.971  0.00  0.00    -0.153 OA
BRANCH  21  24
ATOM     24  N   UNL     1      33.492 -24.145 -14.802  0.00  0.00    -0.151 NA
ATOM     25  C   UNL     1      33.058 -22.760 -15.125  0.00  0.00    +0.101 C 
ATOM     26  C   UNL     1      32.485 -24.866 -13.966  0.00  0.00    +0.122 C 
ATOM     27  C   UNL     1      31.801 -22.829 -15.988  0.00  0.00    +0.045 C 
ATOM     28  C   UNL     1      31.059 -24.678 -14.426  0.00  0.00    -0.008 C 
ATOM     29  C   UNL     1      30.728 -23.685 -15.364  0.00  0.00    -0.023 C 
ATOM     30  C   UNL     1      30.047 -25.477 -13.879  0.00  0.00    -0.003 C 
ATOM     31  C   UNL     1      29.394 -23.532 -15.766  0.00  0.00    -0.004 C 
ATOM     32  C   UNL     1      28.720 -25.308 -14.276  0.00  0.00    -0.000 C 
ATOM     33  C   UNL     1      28.395 -24.338 -15.221  0.00  0.00    -0.000 C 
ENDBRANCH  21  24
ENDBRANCH   1  21
TORSDOF 6
ENDMDL
MODEL 8
REMARK VINA RESULT:     -11.1      6.878     10.819
REMARK  Name = 24941254
REMARK  6 active torsions:
REMARK  status: ('A' for Active; 'I' for Inactive)
REMARK    1  A    between atoms: C_1  and  S_21
REMARK    2  A    between atoms: C_4  and  C_9
REMARK    3  A    between atoms: N_8  and  C_11
REMARK    4  A    between atoms: C_12  and  C_18
REMARK    5  A    between atoms: C_18  and  O_19
REMARK    6  A    between atoms: S_21  and  N_24
REMARK                            x       y       z     vdW  Elec       q    Type
REMARK                         _______ _______ _______ _____ _____    ______ ____
ROOT
ATOM      1  C   UNL     1      32.872 -10.261 -22.699  0.00  0.00    +0.122 C 
ATOM      2  C   UNL     1      32.898 -11.595 -22.291  0.00  0.00    +0.024 C 
ATOM      3  C   UNL     1      33.549  -9.873 -23.855  0.00  0.00    +0.020 C 
ATOM      4  C   UNL     1      33.601 -12.539 -23.039  0.00  0.00    +0.055 C 
ATOM      5  C   UNL     1      34.252 -10.817 -24.603  0.00  0.00    +0.002 C 
ATOM      6  C   UNL     1      34.278 -12.151 -24.194  0.00  0.00    +0.005 C 
ENDROOT
BRANCH   4   9
ATOM      7  O   UNL     1      33.059 -14.249 -21.558  0.00  0.00    -0.270 OA
ATOM      8  N   UNL     1      34.292 -14.819 -23.470  0.00  0.00    -0.280 N 
ATOM      9  C   UNL     1      33.628 -13.930 -22.614  0.00  0.00    +0.250 C 
ATOM     10  H   UNL     1      34.696 -14.418 -24.273  0.00  0.00    +0.155 HD
BRANCH   8  11
ATOM     11  C   UNL     1      34.457 -16.219 -23.333  0.00  0.00    +0.057 C 
ATOM     12  C   UNL     1      33.918 -17.101 -24.270  0.00  0.00    +0.089 C 
ATOM     13  C   UNL     1      35.170 -16.712 -22.241  0.00  0.00    +0.015 C 
ATOM     14  C   UNL     1      34.094 -18.477 -24.113  0.00  0.00    +0.008 C 
ATOM     15  C   UNL     1      35.344 -18.087 -22.084  0.00  0.00    +0.001 C 
ATOM     16  C   UNL     1      34.806 -18.969 -23.020  0.00  0.00    +0.000 C 
BRANCH  12  18
ATOM     17  O   UNL     1      33.514 -15.696 -26.163  0.00  0.00    -0.245 OA
ATOM     18  C   UNL     1      33.168 -16.620 -25.423  0.00  0.00    +0.339 C 
BRANCH  18  19
ATOM     19  O   UNL     1      32.011 -17.310 -25.612  0.00  0.00    -0.477 OA
ATOM     20  H   UNL     1      31.192 -16.856 -25.626  0.00  0.00    +0.295 HD
ENDBRANCH  18  19
ENDBRANCH  12  18
ENDBRANCH   8  11
ENDBRANCH   4   9
BRANCH   1  21
ATOM     21  S   UNL     1      31.984  -9.064 -21.752  0.00  0.00    +0.064 S 
ATOM     22  O   UNL     1      30.580  -9.411 -21.806  0.00  0.00    -0.153 OA
ATOM     23  O   UNL     1      32.664  -8.907 -20.484  0.00  0.00    -0.153 OA
BRANCH  21  24
ATOM     24  N   UNL     1      32.253  -7.668 -22.706  0.00  0.00    -0.151 NA
ATOM     25  C   UNL     1      33.662  -7.195 -22.780  0.00  0.00    +0.101 C 
ATOM     26  C   UNL     1      31.297  -6.542 -22.479  0.00  0.00    +0.122 C 
ATOM     27  C   UNL     1      33.812  -6.293 -24.002  0.00  0.00    +0.045 C 
ATOM     28  C   UNL     1      31.573  -5.324 -23.327  0.00  0.00    -0.008 C 
ATOM     29  C   UNL     1      32.786  -5.189 -24.026  0.00  0.00    -0.023 C 
ATOM     30  C   UNL     1      30.625  -4.294 -23.384  0.00  0.00    -0.003 C 
ATOM     31  C   UNL     1      33.014  -4.043 -24.798  0.00  0.00    -0.004 C 
ATOM     32  C   UNL     1      30.867  -3.151 -24.146  0.00  0.00    -0.000 C 
ATOM     33  C   UNL     1      32.060  -3.027 -24.855  0.00  0.00    -0.000 C 
ENDBRANCH  21  24
ENDBRANCH   1  21
TORSDOF 6
ENDMDL
MODEL 9
REMARK VINA RESULT:     -11.0      2.311      9.471
REMARK  Name = 24941254
REMARK  6 active torsions:
REMARK  status: ('A' for Active; 'I' for Inactive)
REMARK    1  A    between atoms: C_1  and  S_21
REMARK    2  A    between atoms: C_4  and  C_9
REMARK    3  A    between atoms: N_8  and  C_11
REMARK    4  A    between atoms: C_12  and  C_18
REMARK    5  A    between atoms: C_18  and  O_19
REMARK    6  A    between atoms: S_21  and  N_24
REMARK                            x       y       z     vdW  Elec       q    Type
REMARK                         _______ _______ _______ _____ _____    ______ ____
ROOT
ATOM      1  C   UNL     1      34.985 -21.667 -19.177  0.00  0.00    +0.122 C 
ATOM      2  C   UNL     1      35.038 -20.679 -20.160  0.00  0.00    +0.024 C 
ATOM      3  C   UNL     1      36.028 -21.792 -18.258  0.00  0.00    +0.020 C 
ATOM      4  C   UNL     1      36.133 -19.817 -20.225  0.00  0.00    +0.055 C 
ATOM      5  C   UNL     1      37.122 -20.929 -18.322  0.00  0.00    +0.002 C 
ATOM      6  C   UNL     1      37.174 -19.941 -19.306  0.00  0.00    +0.005 C 
ENDROOT
BRANCH   4   9
ATOM      7  O   UNL     1      37.281 -18.506 -21.766  0.00  0.00    -0.270 OA
ATOM      8  N   UNL     1      34.961 -18.199 -21.593  0.00  0.00    -0.280 N 
ATOM      9  C   UNL     1      36.187 -18.786 -21.250  0.00  0.00    +0.250 C 
ATOM     10  H   UNL     1      34.177 -18.525 -21.096  0.00  0.00    +0.155 HD
BRANCH   8  11
ATOM     11  C   UNL     1      34.703 -17.199 -22.563  0.00  0.00    +0.057 C 
ATOM     12  C   UNL     1      34.227 -17.534 -23.831  0.00  0.00    +0.089 C 
ATOM     13  C   UNL     1      34.933 -15.863 -22.234  0.00  0.00    +0.015 C 
ATOM     14  C   UNL     1      33.980 -16.531 -24.769  0.00  0.00    +0.008 C 
ATOM     15  C   UNL     1      34.687 -14.862 -23.174  0.00  0.00    +0.001 C 
ATOM     16  C   UNL     1      34.211 -15.196 -24.440  0.00  0.00    +0.000 C 
BRANCH  12  18
ATOM     17  O   UNL     1      34.764 -19.855 -24.047  0.00  0.00    -0.245 OA
ATOM     18  C   UNL     1      33.976 -18.920 -24.207  0.00  0.00    +0.339 C 
BRANCH  18  19
ATOM     19  O   UNL     1      32.750 -19.088 -24.770  0.00  0.00    -0.477 OA
ATOM     20  H   UNL     1      32.393 -18.422 -25.323  0.00  0.00    +0.295 HD
ENDBRANCH  18  19
ENDBRANCH  12  18
ENDBRANCH   8  11
ENDBRANCH   4   9
BRANCH   1  21
ATOM     21  S   UNL     1      33.602 -22.761 -19.096  0.00  0.00    +0.064 S 
ATOM     22  O   UNL     1      32.462 -22.076 -19.667  0.00  0.00    -0.153 OA
ATOM     23  O   UNL     1      34.025 -24.051 -19.601  0.00  0.00    -0.153 OA
BRANCH  21  24
ATOM     24  N   UNL     1      33.402 -22.866 -17.399  0.00  0.00    -0.151 NA
ATOM     25  C   UNL     1      34.347 -23.768 -16.689  0.00  0.00    +0.101 C 
ATOM     26  C   UNL     1      31.995 -23.050 -16.930  0.00  0.00    +0.122 C 
ATOM     27  C   UNL     1      34.369 -23.389 -15.211  0.00  0.00    +0.045 C 
ATOM     28  C   UNL     1      31.858 -23.152 -15.429  0.00  0.00    -0.008 C 
ATOM     29  C   UNL     1      32.985 -23.347 -14.612  0.00  0.00    -0.023 C 
ATOM     30  C   UNL     1      30.585 -23.092 -14.847  0.00  0.00    -0.003 C 
ATOM     31  C   UNL     1      32.823 -23.444 -13.224  0.00  0.00    -0.004 C 
ATOM     32  C   UNL     1      30.434 -23.202 -13.465  0.00  0.00    -0.000 C 
ATOM     33  C   UNL     1      31.553 -23.375 -12.654  0.00  0.00    -0.000 C 
ENDBRANCH  21  24
ENDBRANCH   1  21
TORSDOF 6
ENDMDL
