MODEL 1
REMARK VINA RESULT:     -11.8      0.000      0.000
REMARK  Name = 15985904
REMARK  7 active torsions:
REMARK  status: ('A' for Active; 'I' for Inactive)
REMARK    1  A    between atoms: N_1  and  S_6
REMARK    2  A    between atoms: C_4  and  C_21
REMARK    3  A    between atoms: S_6  and  C_9
REMARK    4  A    between atoms: C_10  and  C_17
REMARK    5  A    between atoms: C_22  and  C_25
REMARK    6  A    between atoms: N_24  and  C_27
REMARK    7  A    between atoms: C_28  and  N_33
REMARK                            x       y       z     vdW  Elec       q    Type
REMARK                         _______ _______ _______ _____ _____    ______ ____
ROOT
ATOM      1  N   UNL     1      35.037 -17.325 -21.990  0.00  0.00    -0.167 N 
ATOM      2  C   UNL     1      34.891 -16.340 -22.876  0.00  0.00    +0.089 C 
ATOM      3  C   UNL     1      34.848 -16.955 -20.723  0.00  0.00    +0.089 C 
ATOM      4  C   UNL     1      34.579 -15.222 -22.135  0.00  0.00    +0.018 C 
ATOM      5  C   UNL     1      34.551 -15.611 -20.772  0.00  0.00    +0.019 C 
ENDROOT
BRANCH   1   6
ATOM      6  S   UNL     1      35.437 -18.945 -22.444  0.00  0.00    +0.080 S 
ATOM      7  O   UNL     1      36.882 -18.898 -22.569  0.00  0.00    -0.149 OA
ATOM      8  O   UNL     1      34.569 -19.269 -23.562  0.00  0.00    -0.149 OA
BRANCH   6   9
ATOM      9  C   UNL     1      34.975 -19.941 -21.087  0.00  0.00    +0.126 C 
ATOM     10  C   UNL     1      34.237 -21.535 -18.920  0.00  0.00    +0.003 C 
ATOM     11  C   UNL     1      35.955 -20.550 -20.304  0.00  0.00    +0.020 C 
ATOM     12  C   UNL     1      33.626 -20.129 -20.786  0.00  0.00    +0.020 C 
ATOM     13  C   UNL     1      35.586 -21.347 -19.221  0.00  0.00    +0.001 C 
ATOM     14  C   UNL     1      33.257 -20.926 -19.703  0.00  0.00    +0.001 C 
BRANCH  10  17
ATOM     15  N   UNL     1      33.989 -23.565 -15.997  0.00  0.00    -0.208 N 
ATOM     16  N   UNL     1      32.677 -23.576 -16.285  0.00  0.00    -0.176 NA
ATOM     17  C   UNL     1      33.858 -22.355 -17.804  0.00  0.00    +0.037 C 
ATOM     18  C   UNL     1      34.742 -22.846 -16.878  0.00  0.00    +0.086 C 
ATOM     19  C   UNL     1      32.604 -22.833 -17.392  0.00  0.00    +0.119 C 
ATOM     20  C   UNL     1      34.474 -24.277 -14.839  0.00  0.00    +0.140 C 
ENDBRANCH  10  17
ENDBRANCH   6   9
ENDBRANCH   1   6
BRANCH   4  21
ATOM     21  C   UNL     1      34.336 -13.939 -22.667  0.00  0.00    +0.006 C 
ATOM     22  C   UNL     1      34.074 -13.595 -23.961  0.00  0.00    +0.058 C 
BRANCH  22  25
ATOM     23  O   UNL     1      33.467 -11.878 -25.490  0.00  0.00    -0.270 OA
ATOM     24  N   UNL     1      34.091 -11.310 -23.300  0.00  0.00    -0.279 N 
ATOM     25  C   UNL     1      33.837 -12.171 -24.359  0.00  0.00    +0.250 C 
ATOM     26  H   UNL     1      34.384 -11.728 -22.457  0.00  0.00    +0.155 HD
BRANCH  24  27
ATOM     27  C   UNL     1      33.979  -9.898 -23.295  0.00  0.00    +0.064 C 
ATOM     28  C   UNL     1      32.877  -9.285 -22.721  0.00  0.00    +0.055 C 
ATOM     29  C   UNL     1      34.995  -9.156 -23.876  0.00  0.00    +0.016 C 
ATOM     30  C   UNL     1      32.789  -7.893 -22.728  0.00  0.00    +0.015 C 
ATOM     31  C   UNL     1      34.907  -7.764 -23.883  0.00  0.00    +0.001 C 
ATOM     32  C   UNL     1      33.804  -7.132 -23.310  0.00  0.00    +0.001 C 
BRANCH  28  33
ATOM     33  N   UNL     1      31.839 -10.034 -22.125  0.00  0.00    -0.356 N 
ATOM     34  H   UNL     1      31.130 -10.424 -22.686  0.00  0.00    +0.142 HD
ATOM     35  H   UNL     1      31.824 -10.167 -21.150  0.00  0.00    +0.142 HD
ENDBRANCH  28  33
ENDBRANCH  24  27
ENDBRANCH  22  25
ENDBRANCH   4  21
TORSDOF 7
ENDMDL
MODEL 2
REMARK VINA RESULT:     -11.4      2.708     12.022
REMARK  Name = 15985904
REMARK  7 active torsions:
REMARK  status: ('A' for Active; 'I' for Inactive)
REMARK    1  A    between atoms: N_1  and  S_6
REMARK    2  A    between atoms: C_4  and  C_21
REMARK    3  A    between atoms: S_6  and  C_9
REMARK    4  A    between atoms: C_10  and  C_17
REMARK    5  A    between atoms: C_22  and  C_25
REMARK    6  A    between atoms: N_24  and  C_27
REMARK    7  A    between atoms: C_28  and  N_33
REMARK                            x       y       z     vdW  Elec       q    Type
REMARK                         _______ _______ _______ _____ _____    ______ ____
ROOT
ATOM      1  N   UNL     1      35.199 -19.811 -21.002  0.00  0.00    -0.167 N 
ATOM      2  C   UNL     1      35.775 -20.574 -20.073  0.00  0.00    +0.089 C 
ATOM      3  C   UNL     1      33.867 -19.865 -21.006  0.00  0.00    +0.089 C 
ATOM      4  C   UNL     1      34.738 -21.184 -19.402  0.00  0.00    +0.018 C 
ATOM      5  C   UNL     1      33.530 -20.735 -19.993  0.00  0.00    +0.019 C 
ENDROOT
BRANCH   1   6
ATOM      6  S   UNL     1      36.101 -18.837 -22.109  0.00  0.00    +0.080 S 
ATOM      7  O   UNL     1      35.900 -19.516 -23.377  0.00  0.00    -0.149 OA
ATOM      8  O   UNL     1      37.415 -18.674 -21.514  0.00  0.00    -0.149 OA
BRANCH   6   9
ATOM      9  C   UNL     1      35.309 -17.282 -22.120  0.00  0.00    +0.126 C 
ATOM     10  C   UNL     1      34.045 -14.795 -22.136  0.00  0.00    +0.003 C 
ATOM     11  C   UNL     1      34.981 -16.674 -23.332  0.00  0.00    +0.020 C 
ATOM     12  C   UNL     1      35.005 -16.645 -20.916  0.00  0.00    +0.020 C 
ATOM     13  C   UNL     1      34.349 -15.431 -23.340  0.00  0.00    +0.001 C 
ATOM     14  C   UNL     1      34.373 -15.402 -20.925  0.00  0.00    +0.001 C 
BRANCH  10  17
ATOM     15  N   UNL     1      32.073 -11.871 -21.599  0.00  0.00    -0.208 N 
ATOM     16  N   UNL     1      32.750 -11.390 -22.656  0.00  0.00    -0.176 NA
ATOM     17  C   UNL     1      33.394 -13.515 -22.145  0.00  0.00    +0.037 C 
ATOM     18  C   UNL     1      32.423 -13.143 -21.252  0.00  0.00    +0.086 C 
ATOM     19  C   UNL     1      33.557 -12.402 -22.984  0.00  0.00    +0.119 C 
ATOM     20  C   UNL     1      31.082 -11.048 -20.948  0.00  0.00    +0.140 C 
ENDBRANCH  10  17
ENDBRANCH   6   9
ENDBRANCH   1   6
BRANCH   4  21
ATOM     21  C   UNL     1      34.887 -22.085 -18.328  0.00  0.00    +0.006 C 
ATOM     22  C   UNL     1      35.785 -22.039 -17.303  0.00  0.00    +0.058 C 
BRANCH  22  25
ATOM     23  O   UNL     1      34.866 -23.859 -16.079  0.00  0.00    -0.270 OA
ATOM     24  N   UNL     1      36.988 -23.033 -15.507  0.00  0.00    -0.279 N 
ATOM     25  C   UNL     1      35.806 -23.087 -16.234  0.00  0.00    +0.250 C 
ATOM     26  H   UNL     1      37.635 -22.340 -15.777  0.00  0.00    +0.155 HD
BRANCH  24  27
ATOM     27  C   UNL     1      37.368 -23.860 -14.422  0.00  0.00    +0.064 C 
ATOM     28  C   UNL     1      36.616 -23.878 -13.258  0.00  0.00    +0.055 C 
ATOM     29  C   UNL     1      38.503 -24.643 -14.559  0.00  0.00    +0.016 C 
ATOM     30  C   UNL     1      37.011 -24.700 -12.203  0.00  0.00    +0.015 C 
ATOM     31  C   UNL     1      38.897 -25.465 -13.504  0.00  0.00    +0.001 C 
ATOM     32  C   UNL     1      38.152 -25.494 -12.326  0.00  0.00    +0.001 C 
BRANCH  28  33
ATOM     33  N   UNL     1      35.457 -23.084 -13.112  0.00  0.00    -0.356 N 
ATOM     34  H   UNL     1      35.490 -22.123 -13.323  0.00  0.00    +0.142 HD
ATOM     35  H   UNL     1      34.618 -23.491 -12.800  0.00  0.00    +0.142 HD
ENDBRANCH  28  33
ENDBRANCH  24  27
ENDBRANCH  22  25
ENDBRANCH   4  21
TORSDOF 7
ENDMDL
MODEL 3
REMARK VINA RESULT:     -10.9      2.118     11.678
REMARK  Name = 15985904
REMARK  7 active torsions:
REMARK  status: ('A' for Active; 'I' for Inactive)
REMARK    1  A    between atoms: N_1  and  S_6
REMARK    2  A    between atoms: C_4  and  C_21
REMARK    3  A    between atoms: S_6  and  C_9
REMARK    4  A    between atoms: C_10  and  C_17
REMARK    5  A    between atoms: C_22  and  C_25
REMARK    6  A    between atoms: N_24  and  C_27
REMARK    7  A    between atoms: C_28  and  N_33
REMARK                            x       y       z     vdW  Elec       q    Type
REMARK                         _______ _______ _______ _____ _____    ______ ____
ROOT
ATOM      1  N   UNL     1      34.737 -18.068 -23.081  0.00  0.00    -0.167 N 
ATOM      2  C   UNL     1      34.154 -19.091 -22.456  0.00  0.00    +0.089 C 
ATOM      3  C   UNL     1      35.849 -17.629 -22.491  0.00  0.00    +0.089 C 
ATOM      4  C   UNL     1      34.945 -19.353 -21.360  0.00  0.00    +0.018 C 
ATOM      5  C   UNL     1      36.018 -18.427 -21.382  0.00  0.00    +0.019 C 
ENDROOT
BRANCH   1   6
ATOM      6  S   UNL     1      34.106 -17.371 -24.531  0.00  0.00    +0.080 S 
ATOM      7  O   UNL     1      32.800 -17.995 -24.649  0.00  0.00    -0.149 OA
ATOM      8  O   UNL     1      35.141 -17.538 -25.535  0.00  0.00    -0.149 OA
BRANCH   6   9
ATOM      9  C   UNL     1      33.938 -15.666 -24.198  0.00  0.00    +0.126 C 
ATOM     10  C   UNL     1      33.668 -12.941 -23.665  0.00  0.00    +0.003 C 
ATOM     11  C   UNL     1      34.324 -15.156 -22.959  0.00  0.00    +0.020 C 
ATOM     12  C   UNL     1      33.417 -14.812 -25.171  0.00  0.00    +0.020 C 
ATOM     13  C   UNL     1      34.189 -13.794 -22.692  0.00  0.00    +0.001 C 
ATOM     14  C   UNL     1      33.281 -13.450 -24.904  0.00  0.00    +0.001 C 
BRANCH  10  17
ATOM     15  N   UNL     1      32.783  -9.664 -22.567  0.00  0.00    -0.208 N 
ATOM     16  N   UNL     1      33.804  -9.277 -23.351  0.00  0.00    -0.176 NA
ATOM     17  C   UNL     1      33.529 -11.538 -23.390  0.00  0.00    +0.037 C 
ATOM     18  C   UNL     1      32.577 -11.012 -22.555  0.00  0.00    +0.086 C 
ATOM     19  C   UNL     1      34.255 -10.430 -23.851  0.00  0.00    +0.119 C 
ATOM     20  C   UNL     1      32.027  -8.675 -21.836  0.00  0.00    +0.140 C 
ENDBRANCH  10  17
ENDBRANCH   6   9
ENDBRANCH   1   6
BRANCH   4  21
ATOM     21  C   UNL     1      34.703 -20.366 -20.409  0.00  0.00    +0.006 C 
ATOM     22  C   UNL     1      35.611 -21.102 -19.707  0.00  0.00    +0.058 C 
BRANCH  22  25
ATOM     23  O   UNL     1      34.406 -23.043 -19.048  0.00  0.00    -0.270 OA
ATOM     24  N   UNL     1      35.764 -21.938 -17.485  0.00  0.00    -0.279 N 
ATOM     25  C   UNL     1      35.179 -22.148 -18.726  0.00  0.00    +0.250 C 
ATOM     26  H   UNL     1      36.364 -21.160 -17.411  0.00  0.00    +0.155 HD
BRANCH  24  27
ATOM     27  C   UNL     1      35.596 -22.715 -16.313  0.00  0.00    +0.064 C 
ATOM     28  C   UNL     1      36.699 -23.137 -15.588  0.00  0.00    +0.055 C 
ATOM     29  C   UNL     1      34.308 -23.037 -15.917  0.00  0.00    +0.016 C 
ATOM     30  C   UNL     1      36.508 -23.902 -14.437  0.00  0.00    +0.015 C 
ATOM     31  C   UNL     1      34.117 -23.802 -14.767  0.00  0.00    +0.001 C 
ATOM     32  C   UNL     1      35.217 -24.235 -14.027  0.00  0.00    +0.001 C 
BRANCH  28  33
ATOM     33  N   UNL     1      38.015 -22.811 -15.983  0.00  0.00    -0.356 N 
ATOM     34  H   UNL     1      38.754 -23.433 -15.793  0.00  0.00    +0.142 HD
ATOM     35  H   UNL     1      38.194 -21.963 -16.450  0.00  0.00    +0.142 HD
ENDBRANCH  28  33
ENDBRANCH  24  27
ENDBRANCH  22  25
ENDBRANCH   4  21
TORSDOF 7
ENDMDL
MODEL 4
REMARK VINA RESULT:     -10.9      2.612      4.039
REMARK  Name = 15985904
REMARK  7 active torsions:
REMARK  status: ('A' for Active; 'I' for Inactive)
REMARK    1  A    between atoms: N_1  and  S_6
REMARK    2  A    between atoms: C_4  and  C_21
REMARK    3  A    between atoms: S_6  and  C_9
REMARK    4  A    between atoms: C_10  and  C_17
REMARK    5  A    between atoms: C_22  and  C_25
REMARK    6  A    between atoms: N_24  and  C_27
REMARK    7  A    between atoms: C_28  and  N_33
REMARK                            x       y       z     vdW  Elec       q    Type
REMARK                         _______ _______ _______ _____ _____    ______ ____
ROOT
ATOM      1  N   UNL     1      33.768 -14.460 -24.086  0.00  0.00    -0.167 N 
ATOM      2  C   UNL     1      34.125 -13.267 -24.560  0.00  0.00    +0.089 C 
ATOM      3  C   UNL     1      33.124 -14.416 -22.920  0.00  0.00    +0.089 C 
ATOM      4  C   UNL     1      33.680 -12.353 -23.630  0.00  0.00    +0.018 C 
ATOM      5  C   UNL     1      33.047 -13.080 -22.592  0.00  0.00    +0.019 C 
ENDROOT
BRANCH   1   6
ATOM      6  S   UNL     1      34.111 -15.939 -24.913  0.00  0.00    +0.080 S 
ATOM      7  O   UNL     1      35.332 -15.631 -25.635  0.00  0.00    -0.149 OA
ATOM      8  O   UNL     1      32.881 -16.311 -25.587  0.00  0.00    -0.149 OA
BRANCH   6   9
ATOM      9  C   UNL     1      34.424 -17.115 -23.661  0.00  0.00    +0.126 C 
ATOM     10  C   UNL     1      34.925 -18.993 -21.660  0.00  0.00    +0.003 C 
ATOM     11  C   UNL     1      34.036 -18.443 -23.838  0.00  0.00    +0.020 C 
ATOM     12  C   UNL     1      35.063 -16.727 -22.483  0.00  0.00    +0.020 C 
ATOM     13  C   UNL     1      34.286 -19.382 -22.838  0.00  0.00    +0.001 C 
ATOM     14  C   UNL     1      35.313 -17.666 -21.483  0.00  0.00    +0.001 C 
BRANCH  10  17
ATOM     15  N   UNL     1      34.860 -21.502 -19.124  0.00  0.00    -0.208 N 
ATOM     16  N   UNL     1      36.189 -21.300 -19.087  0.00  0.00    -0.176 NA
ATOM     17  C   UNL     1      35.182 -19.961 -20.630  0.00  0.00    +0.037 C 
ATOM     18  C   UNL     1      34.209 -20.722 -20.035  0.00  0.00    +0.086 C 
ATOM     19  C   UNL     1      36.377 -20.356 -20.011  0.00  0.00    +0.119 C 
ATOM     20  C   UNL     1      34.259 -22.476 -18.245  0.00  0.00    +0.140 C 
ENDBRANCH  10  17
ENDBRANCH   6   9
ENDBRANCH   1   6
BRANCH   4  21
ATOM     21  C   UNL     1      33.842 -10.955 -23.726  0.00  0.00    +0.006 C 
ATOM     22  C   UNL     1      33.199  -9.979 -23.024  0.00  0.00    +0.058 C 
BRANCH  22  25
ATOM     23  O   UNL     1      34.646  -8.120 -23.348  0.00  0.00    -0.270 OA
ATOM     24  N   UNL     1      32.322  -7.788 -23.329  0.00  0.00    -0.279 N 
ATOM     25  C   UNL     1      33.494  -8.529 -23.252  0.00  0.00    +0.250 C 
ATOM     26  H   UNL     1      31.481  -8.291 -23.228  0.00  0.00    +0.155 HD
BRANCH  24  27
ATOM     27  C   UNL     1      32.199  -6.392 -23.535  0.00  0.00    +0.064 C 
ATOM     28  C   UNL     1      31.503  -5.609 -22.629  0.00  0.00    +0.055 C 
ATOM     29  C   UNL     1      32.792  -5.840 -24.659  0.00  0.00    +0.016 C 
ATOM     30  C   UNL     1      31.395  -4.237 -22.854  0.00  0.00    +0.015 C 
ATOM     31  C   UNL     1      32.685  -4.468 -24.884  0.00  0.00    +0.001 C 
ATOM     32  C   UNL     1      31.986  -3.666 -23.981  0.00  0.00    +0.001 C 
BRANCH  28  33
ATOM     33  N   UNL     1      30.898  -6.165 -21.480  0.00  0.00    -0.356 N 
ATOM     34  H   UNL     1      30.354  -6.982 -21.557  0.00  0.00    +0.142 HD
ATOM     35  H   UNL     1      31.020  -5.736 -20.603  0.00  0.00    +0.142 HD
ENDBRANCH  28  33
ENDBRANCH  24  27
ENDBRANCH  22  25
ENDBRANCH   4  21
TORSDOF 7
ENDMDL
MODEL 5
REMARK VINA RESULT:     -10.6      2.451     11.893
REMARK  Name = 15985904
REMARK  7 active torsions:
REMARK  status: ('A' for Active; 'I' for Inactive)
REMARK    1  A    between atoms: N_1  and  S_6
REMARK    2  A    between atoms: C_4  and  C_21
REMARK    3  A    between atoms: S_6  and  C_9
REMARK    4  A    between atoms: C_10  and  C_17
REMARK    5  A    between atoms: C_22  and  C_25
REMARK    6  A    between atoms: N_24  and  C_27
REMARK    7  A    between atoms: C_28  and  N_33
REMARK                            x       y       z     vdW  Elec       q    Type
REMARK                         _______ _______ _______ _____ _____    ______ ____
ROOT
ATOM      1  N   UNL     1      34.912 -19.498 -21.284  0.00  0.00    -0.167 N 
ATOM      2  C   UNL     1      35.233 -20.306 -20.273  0.00  0.00    +0.089 C 
ATOM      3  C   UNL     1      33.624 -19.533 -21.626  0.00  0.00    +0.089 C 
ATOM      4  C   UNL     1      34.058 -20.928 -19.913  0.00  0.00    +0.018 C 
ATOM      5  C   UNL     1      33.040 -20.439 -20.769  0.00  0.00    +0.019 C 
ENDROOT
BRANCH   1   6
ATOM      6  S   UNL     1      36.068 -18.493 -22.085  0.00  0.00    +0.080 S 
ATOM      7  O   UNL     1      36.167 -19.098 -23.401  0.00  0.00    -0.149 OA
ATOM      8  O   UNL     1      37.202 -18.398 -21.185  0.00  0.00    -0.149 OA
BRANCH   6   9
ATOM      9  C   UNL     1      35.324 -16.917 -22.195  0.00  0.00    +0.126 C 
ATOM     10  C   UNL     1      34.136 -14.399 -22.370  0.00  0.00    +0.003 C 
ATOM     11  C   UNL     1      35.147 -16.315 -23.440  0.00  0.00    +0.020 C 
ATOM     12  C   UNL     1      34.906 -16.260 -21.037  0.00  0.00    +0.020 C 
ATOM     13  C   UNL     1      34.554 -15.056 -23.527  0.00  0.00    +0.001 C 
ATOM     14  C   UNL     1      34.313 -15.001 -21.124  0.00  0.00    +0.001 C 
BRANCH  10  17
ATOM     15  N   UNL     1      32.241 -11.396 -22.033  0.00  0.00    -0.208 N 
ATOM     16  N   UNL     1      32.958 -10.989 -23.094  0.00  0.00    -0.176 NA
ATOM     17  C   UNL     1      33.525 -13.103 -22.460  0.00  0.00    +0.037 C 
ATOM     18  C   UNL     1      32.543 -12.658 -21.613  0.00  0.00    +0.086 C 
ATOM     19  C   UNL     1      33.742 -12.039 -23.349  0.00  0.00    +0.119 C 
ATOM     20  C   UNL     1      31.259 -10.512 -21.450  0.00  0.00    +0.140 C 
ENDBRANCH  10  17
ENDBRANCH   6   9
ENDBRANCH   1   6
BRANCH   4  21
ATOM     21  C   UNL     1      33.928 -21.875 -18.875  0.00  0.00    +0.006 C 
ATOM     22  C   UNL     1      32.858 -22.094 -18.059  0.00  0.00    +0.058 C 
BRANCH  22  25
ATOM     23  O   UNL     1      33.775 -23.995 -16.963  0.00  0.00    -0.270 OA
ATOM     24  N   UNL     1      31.812 -23.013 -16.130  0.00  0.00    -0.279 N 
ATOM     25  C   UNL     1      32.887 -23.151 -16.998  0.00  0.00    +0.250 C 
ATOM     26  H   UNL     1      31.193 -22.269 -16.316  0.00  0.00    +0.155 HD
BRANCH  24  27
ATOM     27  C   UNL     1      31.504 -23.822 -15.009  0.00  0.00    +0.064 C 
ATOM     28  C   UNL     1      30.243 -24.379 -14.872  0.00  0.00    +0.055 C 
ATOM     29  C   UNL     1      32.494 -24.038 -14.063  0.00  0.00    +0.016 C 
ATOM     30  C   UNL     1      29.964 -25.172 -13.759  0.00  0.00    +0.015 C 
ATOM     31  C   UNL     1      32.215 -24.831 -12.950  0.00  0.00    +0.001 C 
ATOM     32  C   UNL     1      30.949 -25.398 -12.798  0.00  0.00    +0.001 C 
BRANCH  28  33
ATOM     33  N   UNL     1      29.230 -24.166 -15.833  0.00  0.00    -0.356 N 
ATOM     34  H   UNL     1      29.166 -23.298 -16.295  0.00  0.00    +0.142 HD
ATOM     35  H   UNL     1      28.589 -24.883 -16.041  0.00  0.00    +0.142 HD
ENDBRANCH  28  33
ENDBRANCH  24  27
ENDBRANCH  22  25
ENDBRANCH   4  21
TORSDOF 7
ENDMDL
MODEL 6
REMARK VINA RESULT:     -10.1      2.854      4.547
REMARK  Name = 15985904
REMARK  7 active torsions:
REMARK  status: ('A' for Active; 'I' for Inactive)
REMARK    1  A    between atoms: N_1  and  S_6
REMARK    2  A    between atoms: C_4  and  C_21
REMARK    3  A    between atoms: S_6  and  C_9
REMARK    4  A    between atoms: C_10  and  C_17
REMARK    5  A    between atoms: C_22  and  C_25
REMARK    6  A    between atoms: N_24  and  C_27
REMARK    7  A    between atoms: C_28  and  N_33
REMARK                            x       y       z     vdW  Elec       q    Type
REMARK                         _______ _______ _______ _____ _____    ______ ____
ROOT
ATOM      1  N   UNL     1      35.175 -20.597 -19.908  0.00  0.00    -0.167 N 
ATOM      2  C   UNL     1      35.670 -19.632 -20.683  0.00  0.00    +0.089 C 
ATOM      3  C   UNL     1      33.859 -20.776 -20.027  0.00  0.00    +0.089 C 
ATOM      4  C   UNL     1      34.591 -19.128 -21.376  0.00  0.00    +0.018 C 
ATOM      5  C   UNL     1      33.445 -19.852 -20.961  0.00  0.00    +0.019 C 
ENDROOT
BRANCH   1   6
ATOM      6  S   UNL     1      36.156 -21.536 -18.838  0.00  0.00    +0.080 S 
ATOM      7  O   UNL     1      36.983 -20.533 -18.193  0.00  0.00    -0.149 OA
ATOM      8  O   UNL     1      36.714 -22.604 -19.646  0.00  0.00    -0.149 OA
BRANCH   6   9
ATOM      9  C   UNL     1      35.050 -22.244 -17.686  0.00  0.00    +0.126 C 
ATOM     10  C   UNL     1      33.283 -23.373 -15.846  0.00  0.00    +0.003 C 
ATOM     11  C   UNL     1      33.745 -22.551 -18.071  0.00  0.00    +0.020 C 
ATOM     12  C   UNL     1      35.472 -22.502 -16.382  0.00  0.00    +0.020 C 
ATOM     13  C   UNL     1      32.862 -23.115 -17.151  0.00  0.00    +0.001 C 
ATOM     14  C   UNL     1      34.588 -23.066 -15.462  0.00  0.00    +0.001 C 
BRANCH  10  17
ATOM     15  N   UNL     1      30.559 -24.791 -14.032  0.00  0.00    -0.208 N 
ATOM     16  N   UNL     1      31.440 -24.838 -13.018  0.00  0.00    -0.176 NA
ATOM     17  C   UNL     1      32.373 -23.954 -14.899  0.00  0.00    +0.037 C 
ATOM     18  C   UNL     1      31.070 -24.269 -15.184  0.00  0.00    +0.086 C 
ATOM     19  C   UNL     1      32.548 -24.324 -13.557  0.00  0.00    +0.119 C 
ATOM     20  C   UNL     1      29.213 -25.273 -13.833  0.00  0.00    +0.140 C 
ENDBRANCH  10  17
ENDBRANCH   6   9
ENDBRANCH   1   6
BRANCH   4  21
ATOM     21  C   UNL     1      34.652 -18.082 -22.320  0.00  0.00    +0.006 C 
ATOM     22  C   UNL     1      34.213 -18.081 -23.612  0.00  0.00    +0.058 C 
BRANCH  22  25
ATOM     23  O   UNL     1      34.937 -16.931 -25.563  0.00  0.00    -0.270 OA
ATOM     24  N   UNL     1      33.761 -15.764 -23.901  0.00  0.00    -0.279 N 
ATOM     25  C   UNL     1      34.356 -16.873 -24.485  0.00  0.00    +0.250 C 
ATOM     26  H   UNL     1      33.337 -15.907 -23.023  0.00  0.00    +0.155 HD
BRANCH  24  27
ATOM     27  C   UNL     1      33.693 -14.449 -24.424  0.00  0.00    +0.064 C 
ATOM     28  C   UNL     1      34.008 -13.361 -23.627  0.00  0.00    +0.055 C 
ATOM     29  C   UNL     1      33.307 -14.287 -25.745  0.00  0.00    +0.016 C 
ATOM     30  C   UNL     1      33.934 -12.076 -24.165  0.00  0.00    +0.015 C 
ATOM     31  C   UNL     1      33.233 -13.003 -26.283  0.00  0.00    +0.001 C 
ATOM     32  C   UNL     1      33.546 -11.897 -25.493  0.00  0.00    +0.001 C 
BRANCH  28  33
ATOM     33  N   UNL     1      34.404 -13.518 -22.280  0.00  0.00    -0.356 N 
ATOM     34  H   UNL     1      34.229 -12.800 -21.629  0.00  0.00    +0.142 HD
ATOM     35  H   UNL     1      34.854 -14.345 -21.992  0.00  0.00    +0.142 HD
ENDBRANCH  28  33
ENDBRANCH  24  27
ENDBRANCH  22  25
ENDBRANCH   4  21
TORSDOF 7
ENDMDL
MODEL 7
REMARK VINA RESULT:     -10.0      2.516     11.637
REMARK  Name = 15985904
REMARK  7 active torsions:
REMARK  status: ('A' for Active; 'I' for Inactive)
REMARK    1  A    between atoms: N_1  and  S_6
REMARK    2  A    between atoms: C_4  and  C_21
REMARK    3  A    between atoms: S_6  and  C_9
REMARK    4  A    between atoms: C_10  and  C_17
REMARK    5  A    between atoms: C_22  and  C_25
REMARK    6  A    between atoms: N_24  and  C_27
REMARK    7  A    between atoms: C_28  and  N_33
REMARK                            x       y       z     vdW  Elec       q    Type
REMARK                         _______ _______ _______ _____ _____    ______ ____
ROOT
ATOM      1  N   UNL     1      35.123 -19.728 -21.277  0.00  0.00    -0.167 N 
ATOM      2  C   UNL     1      35.858 -20.123 -20.236  0.00  0.00    +0.089 C 
ATOM      3  C   UNL     1      33.840 -20.081 -21.207  0.00  0.00    +0.089 C 
ATOM      4  C   UNL     1      34.987 -20.794 -19.406  0.00  0.00    +0.018 C 
ATOM      5  C   UNL     1      33.710 -20.767 -20.020  0.00  0.00    +0.019 C 
ENDROOT
BRANCH   1   6
ATOM      6  S   UNL     1      35.780 -18.835 -22.603  0.00  0.00    +0.080 S 
ATOM      7  O   UNL     1      35.267 -19.548 -23.759  0.00  0.00    -0.149 OA
ATOM      8  O   UNL     1      37.201 -18.711 -22.333  0.00  0.00    -0.149 OA
BRANCH   6   9
ATOM      9  C   UNL     1      35.064 -17.246 -22.501  0.00  0.00    +0.126 C 
ATOM     10  C   UNL     1      33.917 -14.709 -22.338  0.00  0.00    +0.003 C 
ATOM     11  C   UNL     1      34.981 -16.597 -21.270  0.00  0.00    +0.020 C 
ATOM     12  C   UNL     1      34.574 -16.627 -23.651  0.00  0.00    +0.020 C 
ATOM     13  C   UNL     1      34.407 -15.328 -21.188  0.00  0.00    +0.001 C 
ATOM     14  C   UNL     1      34.000 -15.358 -23.569  0.00  0.00    +0.001 C 
BRANCH  10  17
ATOM     15  N   UNL     1      32.098 -11.736 -21.574  0.00  0.00    -0.208 N 
ATOM     16  N   UNL     1      32.769 -11.224 -22.620  0.00  0.00    -0.176 NA
ATOM     17  C   UNL     1      33.327 -13.402 -22.253  0.00  0.00    +0.037 C 
ATOM     18  C   UNL     1      32.398 -13.041 -21.312  0.00  0.00    +0.086 C 
ATOM     19  C   UNL     1      33.519 -12.250 -23.030  0.00  0.00    +0.119 C 
ATOM     20  C   UNL     1      31.164 -10.910 -20.848  0.00  0.00    +0.140 C 
ENDBRANCH  10  17
ENDBRANCH   6   9
ENDBRANCH   1   6
BRANCH   4  21
ATOM     21  C   UNL     1      35.337 -21.387 -18.174  0.00  0.00    +0.006 C 
ATOM     22  C   UNL     1      36.566 -21.801 -17.753  0.00  0.00    +0.058 C 
BRANCH  22  25
ATOM     23  O   UNL     1      37.885 -22.612 -15.949  0.00  0.00    -0.270 OA
ATOM     24  N   UNL     1      35.544 -22.700 -15.802  0.00  0.00    -0.279 N 
ATOM     25  C   UNL     1      36.763 -22.415 -16.402  0.00  0.00    +0.250 C 
ATOM     26  H   UNL     1      34.738 -22.471 -16.321  0.00  0.00    +0.155 HD
BRANCH  24  27
ATOM     27  C   UNL     1      35.328 -23.283 -14.529  0.00  0.00    +0.064 C 
ATOM     28  C   UNL     1      34.099 -23.838 -14.213  0.00  0.00    +0.055 C 
ATOM     29  C   UNL     1      36.374 -23.281 -13.620  0.00  0.00    +0.016 C 
ATOM     30  C   UNL     1      33.911 -24.406 -12.953  0.00  0.00    +0.015 C 
ATOM     31  C   UNL     1      36.185 -23.848 -12.360  0.00  0.00    +0.001 C 
ATOM     32  C   UNL     1      34.953 -24.411 -12.026  0.00  0.00    +0.001 C 
BRANCH  28  33
ATOM     33  N   UNL     1      33.030 -23.846 -15.135  0.00  0.00    -0.356 N 
ATOM     34  H   UNL     1      32.596 -24.696 -15.378  0.00  0.00    +0.142 HD
ATOM     35  H   UNL     1      32.717 -23.002 -15.535  0.00  0.00    +0.142 HD
ENDBRANCH  28  33
ENDBRANCH  24  27
ENDBRANCH  22  25
ENDBRANCH   4  21
TORSDOF 7
ENDMDL
MODEL 8
REMARK VINA RESULT:      -9.9      3.448     12.836
REMARK  Name = 15985904
REMARK  7 active torsions:
REMARK  status: ('A' for Active; 'I' for Inactive)
REMARK    1  A    between atoms: N_1  and  S_6
REMARK    2  A    between atoms: C_4  and  C_21
REMARK    3  A    between atoms: S_6  and  C_9
REMARK    4  A    between atoms: C_10  and  C_17
REMARK    5  A    between atoms: C_22  and  C_25
REMARK    6  A    between atoms: N_24  and  C_27
REMARK    7  A    between atoms: C_28  and  N_33
REMARK                            x       y       z     vdW  Elec       q    Type
REMARK                         _______ _______ _______ _____ _____    ______ ____
ROOT
ATOM      1  N   UNL     1      32.544 -11.756 -21.801  0.00  0.00    -0.167 N 
ATOM      2  C   UNL     1      32.649 -13.019 -21.387  0.00  0.00    +0.089 C 
ATOM      3  C   UNL     1      33.240 -11.481 -22.904  0.00  0.00    +0.089 C 
ATOM      4  C   UNL     1      33.486 -13.634 -22.293  0.00  0.00    +0.018 C 
ATOM      5  C   UNL     1      33.860 -12.661 -23.253  0.00  0.00    +0.019 C 
ENDROOT
BRANCH   1   6
ATOM      6  S   UNL     1      31.587 -10.576 -20.977  0.00  0.00    +0.080 S 
ATOM      7  O   UNL     1      32.210 -10.510 -19.668  0.00  0.00    -0.149 OA
ATOM      8  O   UNL     1      30.207 -10.985 -21.162  0.00  0.00    -0.149 OA
BRANCH   6   9
ATOM      9  C   UNL     1      31.835  -9.081 -21.845  0.00  0.00    +0.126 C 
ATOM     10  C   UNL     1      32.232  -6.694 -23.232  0.00  0.00    +0.003 C 
ATOM     11  C   UNL     1      30.867  -8.625 -22.739  0.00  0.00    +0.020 C 
ATOM     12  C   UNL     1      33.001  -8.343 -21.644  0.00  0.00    +0.020 C 
ATOM     13  C   UNL     1      31.066  -7.432 -23.433  0.00  0.00    +0.001 C 
ATOM     14  C   UNL     1      33.200  -7.150 -22.337  0.00  0.00    +0.001 C 
BRANCH  10  17
ATOM     15  N   UNL     1      32.260  -3.380 -24.552  0.00  0.00    -0.208 N 
ATOM     16  N   UNL     1      33.168  -3.878 -25.409  0.00  0.00    -0.176 NA
ATOM     17  C   UNL     1      32.436  -5.465 -23.947  0.00  0.00    +0.037 C 
ATOM     18  C   UNL     1      31.790  -4.292 -23.653  0.00  0.00    +0.086 C 
ATOM     19  C   UNL     1      33.270  -5.155 -25.031  0.00  0.00    +0.119 C 
ATOM     20  C   UNL     1      31.874  -1.992 -24.644  0.00  0.00    +0.140 C 
ENDBRANCH  10  17
ENDBRANCH   6   9
ENDBRANCH   1   6
BRANCH   4  21
ATOM     21  C   UNL     1      33.877 -14.989 -22.244  0.00  0.00    +0.006 C 
ATOM     22  C   UNL     1      34.694 -15.665 -23.101  0.00  0.00    +0.058 C 
BRANCH  22  25
ATOM     23  O   UNL     1      35.267 -17.848 -23.848  0.00  0.00    -0.270 OA
ATOM     24  N   UNL     1      34.962 -17.452 -21.554  0.00  0.00    -0.279 N 
ATOM     25  C   UNL     1      35.010 -17.114 -22.900  0.00  0.00    +0.250 C 
ATOM     26  H   UNL     1      34.737 -16.725 -20.929  0.00  0.00    +0.155 HD
BRANCH  24  27
ATOM     27  C   UNL     1      35.202 -18.724 -20.979  0.00  0.00    +0.064 C 
ATOM     28  C   UNL     1      36.498 -19.162 -20.762  0.00  0.00    +0.055 C 
ATOM     29  C   UNL     1      34.110 -19.508 -20.642  0.00  0.00    +0.016 C 
ATOM     30  C   UNL     1      36.709 -20.418 -20.194  0.00  0.00    +0.015 C 
ATOM     31  C   UNL     1      34.321 -20.765 -20.074  0.00  0.00    +0.001 C 
ATOM     32  C   UNL     1      35.620 -21.220 -19.850  0.00  0.00    +0.001 C 
BRANCH  28  33
ATOM     33  N   UNL     1      37.616 -18.367 -21.101  0.00  0.00    -0.356 N 
ATOM     34  H   UNL     1      38.396 -18.335 -20.501  0.00  0.00    +0.142 HD
ATOM     35  H   UNL     1      37.615 -17.846 -21.936  0.00  0.00    +0.142 HD
ENDBRANCH  28  33
ENDBRANCH  24  27
ENDBRANCH  22  25
ENDBRANCH   4  21
TORSDOF 7
ENDMDL
MODEL 9
REMARK VINA RESULT:      -9.7      1.360      2.065
REMARK  Name = 15985904
REMARK  7 active torsions:
REMARK  status: ('A' for Active; 'I' for Inactive)
REMARK    1  A    between atoms: N_1  and  S_6
REMARK    2  A    between atoms: C_4  and  C_21
REMARK    3  A    between atoms: S_6  and  C_9
REMARK    4  A    between atoms: C_10  and  C_17
REMARK    5  A    between atoms: C_22  and  C_25
REMARK    6  A    between atoms: N_24  and  C_27
REMARK    7  A    between atoms: C_28  and  N_33
REMARK                            x       y       z     vdW  Elec       q    Type
REMARK                         _______ _______ _______ _____ _____    ______ ____
ROOT
ATOM      1  N   UNL     1      35.319 -17.769 -22.747  0.00  0.00    -0.167 N 
ATOM      2  C   UNL     1      35.308 -16.606 -22.095  0.00  0.00    +0.089 C 
ATOM      3  C   UNL     1      34.467 -17.832 -23.770  0.00  0.00    +0.089 C 
ATOM      4  C   UNL     1      34.369 -15.831 -22.742  0.00  0.00    +0.018 C 
ATOM      5  C   UNL     1      33.837 -16.607 -23.801  0.00  0.00    +0.019 C 
ENDROOT
BRANCH   1   6
ATOM      6  S   UNL     1      36.350 -19.083 -22.302  0.00  0.00    +0.080 S 
ATOM      7  O   UNL     1      37.501 -18.411 -21.725  0.00  0.00    -0.149 OA
ATOM      8  O   UNL     1      36.451 -19.924 -23.480  0.00  0.00    -0.149 OA
BRANCH   6   9
ATOM      9  C   UNL     1      35.482 -19.966 -21.072  0.00  0.00    +0.126 C 
ATOM     10  C   UNL     1      34.093 -21.379 -19.108  0.00  0.00    +0.003 C 
ATOM     11  C   UNL     1      36.177 -20.763 -20.163  0.00  0.00    +0.020 C 
ATOM     12  C   UNL     1      34.091 -19.875 -20.998  0.00  0.00    +0.020 C 
ATOM     13  C   UNL     1      35.483 -21.469 -19.182  0.00  0.00    +0.001 C 
ATOM     14  C   UNL     1      33.397 -20.582 -20.017  0.00  0.00    +0.001 C 
BRANCH  10  17
ATOM     15  N   UNL     1      31.758 -22.814 -16.825  0.00  0.00    -0.208 N 
ATOM     16  N   UNL     1      32.821 -23.516 -16.396  0.00  0.00    -0.176 NA
ATOM     17  C   UNL     1      33.379 -22.106 -18.096  0.00  0.00    +0.037 C 
ATOM     18  C   UNL     1      32.040 -21.953 -17.845  0.00  0.00    +0.086 C 
ATOM     19  C   UNL     1      33.809 -23.077 -17.180  0.00  0.00    +0.119 C 
ATOM     20  C   UNL     1      30.469 -23.015 -16.206  0.00  0.00    +0.140 C 
ENDBRANCH  10  17
ENDBRANCH   6   9
ENDBRANCH   1   6
BRANCH   4  21
ATOM     21  C   UNL     1      34.026 -14.510 -22.387  0.00  0.00    +0.006 C 
ATOM     22  C   UNL     1      33.152 -13.667 -23.007  0.00  0.00    +0.058 C 
BRANCH  22  25
ATOM     23  O   UNL     1      32.267 -12.092 -21.462  0.00  0.00    -0.270 OA
ATOM     24  N   UNL     1      33.471 -11.332 -23.328  0.00  0.00    -0.279 N 
ATOM     25  C   UNL     1      32.901 -12.284 -22.493  0.00  0.00    +0.250 C 
ATOM     26  H   UNL     1      33.948 -11.674 -24.119  0.00  0.00    +0.155 HD
BRANCH  24  27
ATOM     27  C   UNL     1      33.444  -9.924 -23.171  0.00  0.00    +0.064 C 
ATOM     28  C   UNL     1      34.514  -9.152 -23.594  0.00  0.00    +0.055 C 
ATOM     29  C   UNL     1      32.326  -9.350 -22.587  0.00  0.00    +0.016 C 
ATOM     30  C   UNL     1      34.464  -7.768 -23.428  0.00  0.00    +0.015 C 
ATOM     31  C   UNL     1      32.277  -7.966 -22.422  0.00  0.00    +0.001 C 
ATOM     32  C   UNL     1      33.346  -7.175 -22.842  0.00  0.00    +0.001 C 
BRANCH  28  33
ATOM     33  N   UNL     1      35.655  -9.730 -24.191  0.00  0.00    -0.356 N 
ATOM     34  H   UNL     1      36.194  -9.208 -24.829  0.00  0.00    +0.142 HD
ATOM     35  H   UNL     1      35.913 -10.654 -23.970  0.00  0.00    +0.142 HD
ENDBRANCH  28  33
ENDBRANCH  24  27
ENDBRANCH  22  25
ENDBRANCH   4  21
TORSDOF 7
ENDMDL
