MODEL 1
REMARK VINA RESULT:     -12.1      0.000      0.000
REMARK  Name = 11974440
REMARK  4 active torsions:
REMARK  status: ('A' for Active; 'I' for Inactive)
REMARK    1  A    between atoms: C_1  and  C_25
REMARK    2  A    between atoms: C_2  and  N_31
REMARK    3  A    between atoms: C_5  and  C_12
REMARK    4  A    between atoms: C_17  and  C_21
REMARK                            x       y       z     vdW  Elec       q    Type
REMARK                         _______ _______ _______ _____ _____    ______ ____
ROOT
ATOM      1  C   UNL     1      34.466 -19.872 -20.123  0.00  0.00    +0.009 C 
ATOM      2  C   UNL     1      35.565 -20.950 -19.939  0.00  0.00    -0.057 C 
ATOM      3  C   UNL     1      35.380 -21.687 -18.597  0.00  0.00    +0.009 C 
ATOM      4  C   UNL     1      33.060 -20.516 -20.072  0.00  0.00    +0.028 C 
ATOM      5  C   UNL     1      33.954 -22.065 -18.333  0.00  0.00    +0.025 C 
ATOM      6  C   UNL     1      32.909 -21.553 -18.997  0.00  0.00    -0.026 C 
ENDROOT
BRANCH   5  12
ATOM      7  O   UNL     1      32.690 -23.798 -17.442  0.00  0.00    -0.270 OA
ATOM      8  N   UNL     1      34.552 -23.146 -16.212  0.00  0.00    -0.267 N 
ATOM      9  N   UNL     1      36.808 -24.223 -15.053  0.00  0.00    -0.292 N 
ATOM     10  N   UNL     1      35.789 -25.818 -13.969  0.00  0.00    -0.132 NA
ATOM     11  N   UNL     1      37.155 -25.975 -13.813  0.00  0.00    -0.125 NA
ATOM     12  C   UNL     1      33.675 -23.074 -17.291  0.00  0.00    +0.245 C 
ATOM     13  C   UNL     1      35.696 -22.247 -15.960  0.00  0.00    +0.119 C 
ATOM     14  C   UNL     1      34.309 -24.149 -15.163  0.00  0.00    +0.160 C 
ATOM     15  C   UNL     1      36.987 -23.059 -15.894  0.00  0.00    +0.130 C 
ATOM     16  C   UNL     1      35.592 -24.756 -14.722  0.00  0.00    +0.164 A 
ATOM     17  C   UNL     1      37.749 -25.006 -14.474  0.00  0.00    +0.238 A 
BRANCH  17  21
ATOM     18  F   UNL     1      39.879 -25.783 -15.239  0.00  0.00    -0.163 F 
ATOM     19  F   UNL     1      39.531 -23.643 -15.302  0.00  0.00    -0.163 F 
ATOM     20  F   UNL     1      39.835 -24.636 -13.392  0.00  0.00    -0.163 F 
ATOM     21  C   UNL     1      39.199 -24.775 -14.600  0.00  0.00    +0.452 C 
ENDBRANCH  17  21
ENDBRANCH   5  12
BRANCH   1  25
ATOM     22  F   UNL     1      35.454 -17.212 -20.131  0.00  0.00    -0.204 F 
ATOM     23  F   UNL     1      34.049 -19.352 -24.964  0.00  0.00    -0.202 F 
ATOM     24  F   UNL     1      35.017 -16.799 -24.824  0.00  0.00    -0.202 F 
ATOM     25  C   UNL     1      34.616 -19.042 -21.389  0.00  0.00    +0.006 C 
ATOM     26  C   UNL     1      35.110 -17.744 -21.312  0.00  0.00    +0.138 C 
ATOM     27  C   UNL     1      34.257 -19.590 -22.617  0.00  0.00    +0.030 C 
ATOM     28  C   UNL     1      34.394 -18.831 -23.779  0.00  0.00    +0.167 C 
ATOM     29  C   UNL     1      35.246 -16.985 -22.474  0.00  0.00    +0.061 C 
ATOM     30  C   UNL     1      34.888 -17.529 -23.708  0.00  0.00    +0.170 C 
ENDBRANCH   1  25
BRANCH   2  31
ATOM     31  N   UNL     1      36.906 -20.362 -19.988  0.00  0.00    +0.382 N 
ATOM     32  H   UNL     1      37.174 -20.048 -19.055  0.00  0.00    -0.089 HD
ATOM     33  H   UNL     1      36.906 -19.568 -20.627  0.00  0.00    -0.089 HD
ATOM     34  H   UNL     1      37.573 -21.062 -20.314  0.00  0.00    -0.089 HD
ENDBRANCH   2  31
TORSDOF 4
ENDMDL
MODEL 2
REMARK VINA RESULT:     -11.7      3.819      4.747
REMARK  Name = 11974440
REMARK  4 active torsions:
REMARK  status: ('A' for Active; 'I' for Inactive)
REMARK    1  A    between atoms: C_1  and  C_25
REMARK    2  A    between atoms: C_2  and  N_31
REMARK    3  A    between atoms: C_5  and  C_12
REMARK    4  A    between atoms: C_17  and  C_21
REMARK                            x       y       z     vdW  Elec       q    Type
REMARK                         _______ _______ _______ _____ _____    ______ ____
ROOT
ATOM      1  C   UNL     1      35.049 -19.830 -21.425  0.00  0.00    +0.009 C 
ATOM      2  C   UNL     1      33.878 -19.957 -20.417  0.00  0.00    -0.057 C 
ATOM      3  C   UNL     1      34.117 -21.140 -19.456  0.00  0.00    +0.009 C 
ATOM      4  C   UNL     1      36.389 -19.632 -20.678  0.00  0.00    +0.028 C 
ATOM      5  C   UNL     1      35.521 -21.189 -18.934  0.00  0.00    +0.025 C 
ATOM      6  C   UNL     1      36.543 -20.508 -19.469  0.00  0.00    -0.026 C 
ENDROOT
BRANCH   5  12
ATOM      7  O   UNL     1      36.894 -21.891 -17.198  0.00  0.00    -0.270 OA
ATOM      8  N   UNL     1      34.804 -22.900 -17.327  0.00  0.00    -0.267 N 
ATOM      9  N   UNL     1      32.596 -23.406 -15.757  0.00  0.00    -0.292 N 
ATOM     10  N   UNL     1      33.682 -24.282 -14.081  0.00  0.00    -0.132 NA
ATOM     11  N   UNL     1      32.347 -24.168 -13.736  0.00  0.00    -0.125 NA
ATOM     12  C   UNL     1      35.800 -22.025 -17.749  0.00  0.00    +0.245 C 
ATOM     13  C   UNL     1      33.514 -23.141 -18.004  0.00  0.00    +0.119 C 
ATOM     14  C   UNL     1      35.047 -23.737 -16.141  0.00  0.00    +0.160 C 
ATOM     15  C   UNL     1      32.363 -22.814 -17.056  0.00  0.00    +0.130 C 
ATOM     16  C   UNL     1      33.820 -23.816 -15.305  0.00  0.00    +0.164 A 
ATOM     17  C   UNL     1      31.712 -23.638 -14.758  0.00  0.00    +0.238 A 
BRANCH  17  21
ATOM     18  F   UNL     1      29.924 -22.126 -14.267  0.00  0.00    -0.163 F 
ATOM     19  F   UNL     1      29.792 -23.235 -16.126  0.00  0.00    -0.163 F 
ATOM     20  F   UNL     1      29.475 -24.253 -14.231  0.00  0.00    -0.163 F 
ATOM     21  C   UNL     1      30.276 -23.322 -14.844  0.00  0.00    +0.452 C 
ENDBRANCH  17  21
ENDBRANCH   5  12
BRANCH   1  25
ATOM     22  F   UNL     1      34.384 -20.349 -24.135  0.00  0.00    -0.204 F 
ATOM     23  F   UNL     1      34.992 -15.110 -22.688  0.00  0.00    -0.202 F 
ATOM     24  F   UNL     1      34.351 -15.755 -25.266  0.00  0.00    -0.202 F 
ATOM     25  C   UNL     1      34.859 -18.734 -22.462  0.00  0.00    +0.006 C 
ATOM     26  C   UNL     1      34.533 -19.067 -23.773  0.00  0.00    +0.138 C 
ATOM     27  C   UNL     1      35.016 -17.402 -22.091  0.00  0.00    +0.030 C 
ATOM     28  C   UNL     1      34.843 -16.394 -23.039  0.00  0.00    +0.167 C 
ATOM     29  C   UNL     1      34.360 -18.060 -24.721  0.00  0.00    +0.061 C 
ATOM     30  C   UNL     1      34.515 -16.723 -24.354  0.00  0.00    +0.170 C 
ENDBRANCH   1  25
BRANCH   2  31
ATOM     31  N   UNL     1      32.596 -20.142 -21.104  0.00  0.00    +0.382 N 
ATOM     32  H   UNL     1      32.766 -20.340 -22.091  0.00  0.00    -0.089 HD
ATOM     33  H   UNL     1      32.039 -19.293 -21.019  0.00  0.00    -0.089 HD
ATOM     34  H   UNL     1      32.095 -20.924 -20.683  0.00  0.00    -0.089 HD
ENDBRANCH   2  31
TORSDOF 4
ENDMDL
MODEL 3
REMARK VINA RESULT:     -11.6      1.621      2.129
REMARK  Name = 11974440
REMARK  4 active torsions:
REMARK  status: ('A' for Active; 'I' for Inactive)
REMARK    1  A    between atoms: C_1  and  C_25
REMARK    2  A    between atoms: C_2  and  N_31
REMARK    3  A    between atoms: C_5  and  C_12
REMARK    4  A    between atoms: C_17  and  C_21
REMARK                            x       y       z     vdW  Elec       q    Type
REMARK                         _______ _______ _______ _____ _____    ______ ____
ROOT
ATOM      1  C   UNL     1      35.039 -21.381 -19.544  0.00  0.00    +0.009 C 
ATOM      2  C   UNL     1      33.624 -21.349 -18.911  0.00  0.00    -0.057 C 
ATOM      3  C   UNL     1      33.447 -22.520 -17.923  0.00  0.00    +0.009 C 
ATOM      4  C   UNL     1      36.126 -21.306 -18.447  0.00  0.00    +0.028 C 
ATOM      5  C   UNL     1      34.631 -22.705 -17.024  0.00  0.00    +0.025 C 
ATOM      6  C   UNL     1      35.832 -22.156 -17.245  0.00  0.00    -0.026 C 
ENDROOT
BRANCH   5  12
ATOM      7  O   UNL     1      33.396 -24.117 -15.653  0.00  0.00    -0.270 OA
ATOM      8  N   UNL     1      35.541 -23.595 -14.925  0.00  0.00    -0.267 N 
ATOM      9  N   UNL     1      37.854 -24.836 -14.085  0.00  0.00    -0.292 N 
ATOM     10  N   UNL     1      36.914 -26.123 -12.595  0.00  0.00    -0.132 NA
ATOM     11  N   UNL     1      38.254 -26.455 -12.690  0.00  0.00    -0.125 NA
ATOM     12  C   UNL     1      34.468 -23.529 -15.808  0.00  0.00    +0.245 C 
ATOM     13  C   UNL     1      36.809 -22.846 -15.040  0.00  0.00    +0.119 C 
ATOM     14  C   UNL     1      35.415 -24.416 -13.711  0.00  0.00    +0.160 C 
ATOM     15  C   UNL     1      37.982 -23.822 -15.109  0.00  0.00    +0.130 C 
ATOM     16  C   UNL     1      36.684 -25.144 -13.445  0.00  0.00    +0.164 A 
ATOM     17  C   UNL     1      38.800 -25.670 -13.592  0.00  0.00    +0.238 A 
BRANCH  17  21
ATOM     18  F   UNL     1      40.967 -26.682 -13.506  0.00  0.00    -0.163 F 
ATOM     19  F   UNL     1      40.371 -25.790 -15.391  0.00  0.00    -0.163 F 
ATOM     20  F   UNL     1      40.878 -24.518 -13.703  0.00  0.00    -0.163 F 
ATOM     21  C   UNL     1      40.206 -25.668 -14.034  0.00  0.00    +0.452 C 
ENDBRANCH  17  21
ENDBRANCH   5  12
BRANCH   1  25
ATOM     22  F   UNL     1      37.371 -19.767 -19.618  0.00  0.00    -0.204 F 
ATOM     23  F   UNL     1      33.605 -18.862 -23.478  0.00  0.00    -0.202 F 
ATOM     24  F   UNL     1      35.902 -17.381 -23.430  0.00  0.00    -0.202 F 
ATOM     25  C   UNL     1      35.275 -20.303 -20.591  0.00  0.00    +0.006 C 
ATOM     26  C   UNL     1      36.445 -19.552 -20.562  0.00  0.00    +0.138 C 
ATOM     27  C   UNL     1      34.314 -20.075 -21.572  0.00  0.00    +0.030 C 
ATOM     28  C   UNL     1      34.526 -19.087 -22.532  0.00  0.00    +0.167 C 
ATOM     29  C   UNL     1      36.658 -18.564 -21.523  0.00  0.00    +0.061 C 
ATOM     30  C   UNL     1      35.698 -18.332 -22.509  0.00  0.00    +0.170 C 
ENDBRANCH   1  25
BRANCH   2  31
ATOM     31  N   UNL     1      32.576 -21.416 -19.934  0.00  0.00    +0.382 N 
ATOM     32  H   UNL     1      32.996 -21.652 -20.834  0.00  0.00    -0.089 HD
ATOM     33  H   UNL     1      32.111 -20.512 -20.004  0.00  0.00    -0.089 HD
ATOM     34  H   UNL     1      31.896 -22.131 -19.679  0.00  0.00    -0.089 HD
ENDBRANCH   2  31
TORSDOF 4
ENDMDL
MODEL 4
REMARK VINA RESULT:     -11.5      3.600      4.411
REMARK  Name = 11974440
REMARK  4 active torsions:
REMARK  status: ('A' for Active; 'I' for Inactive)
REMARK    1  A    between atoms: C_1  and  C_25
REMARK    2  A    between atoms: C_2  and  N_31
REMARK    3  A    between atoms: C_5  and  C_12
REMARK    4  A    between atoms: C_17  and  C_21
REMARK                            x       y       z     vdW  Elec       q    Type
REMARK                         _______ _______ _______ _____ _____    ______ ____
ROOT
ATOM      1  C   UNL     1      34.994 -20.311 -20.841  0.00  0.00    +0.009 C 
ATOM      2  C   UNL     1      33.842 -20.377 -19.804  0.00  0.00    -0.057 C 
ATOM      3  C   UNL     1      34.065 -21.545 -18.822  0.00  0.00    +0.009 C 
ATOM      4  C   UNL     1      36.356 -20.139 -20.127  0.00  0.00    +0.028 C 
ATOM      5  C   UNL     1      35.478 -21.628 -18.330  0.00  0.00    +0.025 C 
ATOM      6  C   UNL     1      36.509 -20.992 -18.902  0.00  0.00    -0.026 C 
ENDROOT
BRANCH   5  12
ATOM      7  O   UNL     1      36.854 -22.308 -16.586  0.00  0.00    -0.270 OA
ATOM      8  N   UNL     1      34.758 -23.308 -16.692  0.00  0.00    -0.267 N 
ATOM      9  N   UNL     1      32.553 -23.778 -15.107  0.00  0.00    -0.292 N 
ATOM     10  N   UNL     1      33.641 -24.632 -13.420  0.00  0.00    -0.132 NA
ATOM     11  N   UNL     1      32.307 -24.506 -13.073  0.00  0.00    -0.125 NA
ATOM     12  C   UNL     1      35.758 -22.445 -17.131  0.00  0.00    +0.245 C 
ATOM     13  C   UNL     1      33.465 -23.555 -17.361  0.00  0.00    +0.119 C 
ATOM     14  C   UNL     1      35.001 -24.127 -15.493  0.00  0.00    +0.160 C 
ATOM     15  C   UNL     1      32.318 -23.206 -16.415  0.00  0.00    +0.130 C 
ATOM     16  C   UNL     1      33.777 -24.186 -14.652  0.00  0.00    +0.164 A 
ATOM     17  C   UNL     1      31.671 -23.990 -14.101  0.00  0.00    +0.238 A 
BRANCH  17  21
ATOM     18  F   UNL     1      29.958 -22.323 -14.200  0.00  0.00    -0.163 F 
ATOM     19  F   UNL     1      29.615 -24.153 -15.312  0.00  0.00    -0.163 F 
ATOM     20  F   UNL     1      29.503 -24.166 -13.141  0.00  0.00    -0.163 F 
ATOM     21  C   UNL     1      30.236 -23.667 -14.188  0.00  0.00    +0.452 C 
ENDBRANCH  17  21
ENDBRANCH   5  12
BRANCH   1  25
ATOM     22  F   UNL     1      35.680 -17.590 -20.419  0.00  0.00    -0.204 F 
ATOM     23  F   UNL     1      33.620 -18.900 -25.313  0.00  0.00    -0.202 F 
ATOM     24  F   UNL     1      34.324 -16.316 -24.769  0.00  0.00    -0.202 F 
ATOM     25  C   UNL     1      34.816 -19.232 -21.898  0.00  0.00    +0.006 C 
ATOM     26  C   UNL     1      35.176 -17.919 -21.616  0.00  0.00    +0.138 C 
ATOM     27  C   UNL     1      34.291 -19.569 -23.142  0.00  0.00    +0.030 C 
ATOM     28  C   UNL     1      34.125 -18.583 -24.113  0.00  0.00    +0.167 C 
ATOM     29  C   UNL     1      35.011 -16.932 -22.588  0.00  0.00    +0.061 C 
ATOM     30  C   UNL     1      34.486 -17.264 -23.837  0.00  0.00    +0.170 C 
ENDBRANCH   1  25
BRANCH   2  31
ATOM     31  N   UNL     1      32.540 -20.536 -20.459  0.00  0.00    +0.382 N 
ATOM     32  H   UNL     1      32.171 -19.618 -20.708  0.00  0.00    -0.089 HD
ATOM     33  H   UNL     1      31.895 -21.001 -19.822  0.00  0.00    -0.089 HD
ATOM     34  H   UNL     1      32.651 -21.098 -21.303  0.00  0.00    -0.089 HD
ENDBRANCH   2  31
TORSDOF 4
ENDMDL
MODEL 5
REMARK VINA RESULT:     -10.8      0.746      1.631
REMARK  Name = 11974440
REMARK  4 active torsions:
REMARK  status: ('A' for Active; 'I' for Inactive)
REMARK    1  A    between atoms: C_1  and  C_25
REMARK    2  A    between atoms: C_2  and  N_31
REMARK    3  A    between atoms: C_5  and  C_12
REMARK    4  A    between atoms: C_17  and  C_21
REMARK                            x       y       z     vdW  Elec       q    Type
REMARK                         _______ _______ _______ _____ _____    ______ ____
ROOT
ATOM      1  C   UNL     1      34.574 -19.757 -20.088  0.00  0.00    +0.009 C 
ATOM      2  C   UNL     1      35.671 -20.840 -19.923  0.00  0.00    -0.057 C 
ATOM      3  C   UNL     1      35.450 -21.641 -18.624  0.00  0.00    +0.009 C 
ATOM      4  C   UNL     1      33.170 -20.406 -20.109  0.00  0.00    +0.028 C 
ATOM      5  C   UNL     1      34.017 -22.034 -18.421  0.00  0.00    +0.025 C 
ATOM      6  C   UNL     1      32.991 -21.493 -19.091  0.00  0.00    -0.026 C 
ENDROOT
BRANCH   5  12
ATOM      7  O   UNL     1      32.752 -23.830 -17.668  0.00  0.00    -0.270 OA
ATOM      8  N   UNL     1      34.536 -23.192 -16.320  0.00  0.00    -0.267 N 
ATOM      9  N   UNL     1      36.757 -24.270 -15.096  0.00  0.00    -0.292 N 
ATOM     10  N   UNL     1      35.723 -25.931 -14.131  0.00  0.00    -0.132 NA
ATOM     11  N   UNL     1      37.084 -26.066 -13.915  0.00  0.00    -0.125 NA
ATOM     12  C   UNL     1      33.712 -23.093 -17.437  0.00  0.00    +0.245 C 
ATOM     13  C   UNL     1      35.645 -22.281 -15.974  0.00  0.00    +0.119 C 
ATOM     14  C   UNL     1      34.265 -24.245 -15.328  0.00  0.00    +0.160 C 
ATOM     15  C   UNL     1      36.950 -23.068 -15.878  0.00  0.00    +0.130 C 
ATOM     16  C   UNL     1      35.539 -24.843 -14.849  0.00  0.00    +0.164 A 
ATOM     17  C   UNL     1      37.686 -25.057 -14.504  0.00  0.00    +0.238 A 
BRANCH  17  21
ATOM     18  F   UNL     1      39.487 -23.700 -15.304  0.00  0.00    -0.163 F 
ATOM     19  F   UNL     1      39.702 -24.551 -13.321  0.00  0.00    -0.163 F 
ATOM     20  F   UNL     1      39.863 -25.829 -15.072  0.00  0.00    -0.163 F 
ATOM     21  C   UNL     1      39.135 -24.791 -14.548  0.00  0.00    +0.452 C 
ENDBRANCH  17  21
ENDBRANCH   5  12
BRANCH   1  25
ATOM     22  F   UNL     1      34.786 -20.765 -22.732  0.00  0.00    -0.204 F 
ATOM     23  F   UNL     1      35.078 -15.339 -22.114  0.00  0.00    -0.202 F 
ATOM     24  F   UNL     1      35.267 -16.447 -24.606  0.00  0.00    -0.202 F 
ATOM     25  C   UNL     1      34.760 -18.867 -21.307  0.00  0.00    +0.006 C 
ATOM     26  C   UNL     1      34.855 -19.436 -22.573  0.00  0.00    +0.138 C 
ATOM     27  C   UNL     1      34.834 -17.486 -21.146  0.00  0.00    +0.030 C 
ATOM     28  C   UNL     1      35.005 -16.668 -22.262  0.00  0.00    +0.167 C 
ATOM     29  C   UNL     1      35.026 -18.617 -23.689  0.00  0.00    +0.061 C 
ATOM     30  C   UNL     1      35.100 -17.233 -23.534  0.00  0.00    +0.170 C 
ENDBRANCH   1  25
BRANCH   2  31
ATOM     31  N   UNL     1      37.012 -20.247 -19.904  0.00  0.00    +0.382 N 
ATOM     32  H   UNL     1      36.933 -19.231 -19.855  0.00  0.00    -0.089 HD
ATOM     33  H   UNL     1      37.511 -20.509 -20.753  0.00  0.00    -0.089 HD
ATOM     34  H   UNL     1      37.522 -20.587 -19.089  0.00  0.00    -0.089 HD
ENDBRANCH   2  31
TORSDOF 4
ENDMDL
MODEL 6
REMARK VINA RESULT:     -10.6      1.163      1.628
REMARK  Name = 11974440
REMARK  4 active torsions:
REMARK  status: ('A' for Active; 'I' for Inactive)
REMARK    1  A    between atoms: C_1  and  C_25
REMARK    2  A    between atoms: C_2  and  N_31
REMARK    3  A    between atoms: C_5  and  C_12
REMARK    4  A    between atoms: C_17  and  C_21
REMARK                            x       y       z     vdW  Elec       q    Type
REMARK                         _______ _______ _______ _____ _____    ______ ____
ROOT
ATOM      1  C   UNL     1      34.501 -20.809 -20.397  0.00  0.00    +0.009 C 
ATOM      2  C   UNL     1      33.214 -20.578 -19.562  0.00  0.00    -0.057 C 
ATOM      3  C   UNL     1      32.914 -21.807 -18.680  0.00  0.00    +0.009 C 
ATOM      4  C   UNL     1      35.706 -21.090 -19.468  0.00  0.00    +0.028 C 
ATOM      5  C   UNL     1      34.134 -22.335 -17.986  0.00  0.00    +0.025 C 
ATOM      6  C   UNL     1      35.388 -22.010 -18.326  0.00  0.00    -0.026 C 
ENDROOT
BRANCH   5  12
ATOM      7  O   UNL     1      32.941 -23.966 -16.839  0.00  0.00    -0.270 OA
ATOM      8  N   UNL     1      34.935 -23.273 -15.864  0.00  0.00    -0.267 N 
ATOM      9  N   UNL     1      37.282 -24.319 -14.869  0.00  0.00    -0.292 N 
ATOM     10  N   UNL     1      36.356 -25.803 -13.566  0.00  0.00    -0.132 NA
ATOM     11  N   UNL     1      37.728 -25.984 -13.543  0.00  0.00    -0.125 NA
ATOM     12  C   UNL     1      33.950 -23.258 -16.847  0.00  0.00    +0.245 C 
ATOM     13  C   UNL     1      36.115 -22.387 -15.801  0.00  0.00    +0.119 C 
ATOM     14  C   UNL     1      34.787 -24.190 -14.722  0.00  0.00    +0.160 C 
ATOM     15  C   UNL     1      37.391 -23.226 -15.810  0.00  0.00    +0.130 C 
ATOM     16  C   UNL     1      36.099 -24.795 -14.373  0.00  0.00    +0.164 A 
ATOM     17  C   UNL     1      38.265 -25.081 -14.334  0.00  0.00    +0.238 A 
BRANCH  17  21
ATOM     18  F   UNL     1      39.987 -23.761 -15.342  0.00  0.00    -0.163 F 
ATOM     19  F   UNL     1      40.496 -24.813 -13.515  0.00  0.00    -0.163 F 
ATOM     20  F   UNL     1      40.236 -25.921 -15.368  0.00  0.00    -0.163 F 
ATOM     21  C   UNL     1      39.697 -24.898 -14.629  0.00  0.00    +0.452 C 
ENDBRANCH  17  21
ENDBRANCH   5  12
BRANCH   1  25
ATOM     22  F   UNL     1      36.563 -18.919 -19.921  0.00  0.00    -0.204 F 
ATOM     23  F   UNL     1      33.695 -18.353 -24.543  0.00  0.00    -0.202 F 
ATOM     24  F   UNL     1      35.712 -16.603 -23.958  0.00  0.00    -0.202 F 
ATOM     25  C   UNL     1      34.830 -19.675 -21.356  0.00  0.00    +0.006 C 
ATOM     26  C   UNL     1      35.857 -18.788 -21.053  0.00  0.00    +0.138 C 
ATOM     27  C   UNL     1      34.098 -19.534 -22.530  0.00  0.00    +0.030 C 
ATOM     28  C   UNL     1      34.397 -18.495 -23.411  0.00  0.00    +0.167 C 
ATOM     29  C   UNL     1      36.157 -17.749 -21.933  0.00  0.00    +0.061 C 
ATOM     30  C   UNL     1      35.426 -17.602 -23.113  0.00  0.00    +0.170 C 
ENDBRANCH   1  25
BRANCH   2  31
ATOM     31  N   UNL     1      32.059 -20.306 -20.423  0.00  0.00    +0.382 N 
ATOM     32  H   UNL     1      31.622 -21.188 -20.692  0.00  0.00    -0.089 HD
ATOM     33  H   UNL     1      32.366 -19.810 -21.258  0.00  0.00    -0.089 HD
ATOM     34  H   UNL     1      31.384 -19.735 -19.915  0.00  0.00    -0.089 HD
ENDBRANCH   2  31
TORSDOF 4
ENDMDL
MODEL 7
REMARK VINA RESULT:     -10.6      3.901      9.999
REMARK  Name = 11974440
REMARK  4 active torsions:
REMARK  status: ('A' for Active; 'I' for Inactive)
REMARK    1  A    between atoms: C_1  and  C_25
REMARK    2  A    between atoms: C_2  and  N_31
REMARK    3  A    between atoms: C_5  and  C_12
REMARK    4  A    between atoms: C_17  and  C_21
REMARK                            x       y       z     vdW  Elec       q    Type
REMARK                         _______ _______ _______ _____ _____    ______ ____
ROOT
ATOM      1  C   UNL     1      34.698 -21.754 -19.108  0.00  0.00    +0.009 C 
ATOM      2  C   UNL     1      35.966 -20.882 -19.297  0.00  0.00    -0.057 C 
ATOM      3  C   UNL     1      36.081 -20.404 -20.759  0.00  0.00    +0.009 C 
ATOM      4  C   UNL     1      33.430 -20.958 -19.497  0.00  0.00    +0.028 C 
ATOM      5  C   UNL     1      34.779 -19.906 -21.311  0.00  0.00    +0.025 C 
ATOM      6  C   UNL     1      33.588 -20.141 -20.746  0.00  0.00    -0.026 C 
ENDROOT
BRANCH   5  12
ATOM      7  O   UNL     1      34.628 -19.673 -23.617  0.00  0.00    -0.270 OA
ATOM      8  N   UNL     1      35.015 -17.724 -22.410  0.00  0.00    -0.267 N 
ATOM      9  N   UNL     1      33.995 -15.182 -22.107  0.00  0.00    -0.292 N 
ATOM     10  N   UNL     1      33.950 -14.681 -24.229  0.00  0.00    -0.132 NA
ATOM     11  N   UNL     1      33.356 -13.654 -23.516  0.00  0.00    -0.125 NA
ATOM     12  C   UNL     1      34.804 -19.093 -22.544  0.00  0.00    +0.245 C 
ATOM     13  C   UNL     1      35.306 -17.008 -21.152  0.00  0.00    +0.119 C 
ATOM     14  C   UNL     1      35.034 -16.885 -23.619  0.00  0.00    +0.160 C 
ATOM     15  C   UNL     1      34.236 -15.947 -20.902  0.00  0.00    +0.130 C 
ATOM     16  C   UNL     1      34.330 -15.600 -23.366  0.00  0.00    +0.164 A 
ATOM     17  C   UNL     1      33.394 -13.976 -22.242  0.00  0.00    +0.238 A 
BRANCH  17  21
ATOM     18  F   UNL     1      31.844 -13.795 -20.428  0.00  0.00    -0.163 F 
ATOM     19  F   UNL     1      33.801 -12.905 -20.143  0.00  0.00    -0.163 F 
ATOM     20  F   UNL     1      32.369 -11.968 -21.484  0.00  0.00    -0.163 F 
ATOM     21  C   UNL     1      32.870 -13.190 -21.111  0.00  0.00    +0.452 C 
ENDBRANCH  17  21
ENDBRANCH   5  12
BRANCH   1  25
ATOM     22  F   UNL     1      32.255 -22.801 -18.115  0.00  0.00    -0.204 F 
ATOM     23  F   UNL     1      36.559 -22.917 -14.742  0.00  0.00    -0.202 F 
ATOM     24  F   UNL     1      34.143 -23.894 -13.916  0.00  0.00    -0.202 F 
ATOM     25  C   UNL     1      34.546 -22.332 -17.709  0.00  0.00    +0.006 C 
ATOM     26  C   UNL     1      33.314 -22.828 -17.294  0.00  0.00    +0.138 C 
ATOM     27  C   UNL     1      35.643 -22.359 -16.854  0.00  0.00    +0.030 C 
ATOM     28  C   UNL     1      35.507 -22.888 -15.571  0.00  0.00    +0.167 C 
ATOM     29  C   UNL     1      33.178 -23.357 -16.011  0.00  0.00    +0.061 C 
ATOM     30  C   UNL     1      34.275 -23.388 -15.149  0.00  0.00    +0.170 C 
ENDBRANCH   1  25
BRANCH   2  31
ATOM     31  N   UNL     1      37.181 -21.615 -18.930  0.00  0.00    +0.382 N 
ATOM     32  H   UNL     1      37.083 -21.982 -17.983  0.00  0.00    -0.089 HD
ATOM     33  H   UNL     1      37.982 -20.987 -18.970  0.00  0.00    -0.089 HD
ATOM     34  H   UNL     1      37.320 -22.389 -19.581  0.00  0.00    -0.089 HD
ENDBRANCH   2  31
TORSDOF 4
ENDMDL
MODEL 8
REMARK VINA RESULT:     -10.5      3.686      9.937
REMARK  Name = 11974440
REMARK  4 active torsions:
REMARK  status: ('A' for Active; 'I' for Inactive)
REMARK    1  A    between atoms: C_1  and  C_25
REMARK    2  A    between atoms: C_2  and  N_31
REMARK    3  A    between atoms: C_5  and  C_12
REMARK    4  A    between atoms: C_17  and  C_21
REMARK                            x       y       z     vdW  Elec       q    Type
REMARK                         _______ _______ _______ _____ _____    ______ ____
ROOT
ATOM      1  C   UNL     1      34.996 -21.276 -18.348  0.00  0.00    +0.009 C 
ATOM      2  C   UNL     1      33.803 -21.609 -19.281  0.00  0.00    -0.057 C 
ATOM      3  C   UNL     1      33.662 -20.538 -20.382  0.00  0.00    +0.009 C 
ATOM      4  C   UNL     1      36.310 -21.188 -19.160  0.00  0.00    +0.028 C 
ATOM      5  C   UNL     1      34.975 -20.167 -21.002  0.00  0.00    +0.025 C 
ATOM      6  C   UNL     1      36.167 -20.464 -20.467  0.00  0.00    -0.026 C 
ENDROOT
BRANCH   5  12
ATOM      7  O   UNL     1      34.749 -20.097 -23.313  0.00  0.00    -0.270 OA
ATOM      8  N   UNL     1      35.188 -18.070 -22.261  0.00  0.00    -0.267 N 
ATOM      9  N   UNL     1      34.195 -15.505 -22.107  0.00  0.00    -0.292 N 
ATOM     10  N   UNL     1      34.082 -15.156 -24.257  0.00  0.00    -0.132 NA
ATOM     11  N   UNL     1      33.519 -14.075 -23.600  0.00  0.00    -0.125 NA
ATOM     12  C   UNL     1      34.965 -19.444 -22.290  0.00  0.00    +0.245 C 
ATOM     13  C   UNL     1      35.525 -17.269 -21.067  0.00  0.00    +0.119 C 
ATOM     14  C   UNL     1      35.172 -17.319 -23.527  0.00  0.00    +0.160 C 
ATOM     15  C   UNL     1      34.471 -16.184 -20.859  0.00  0.00    +0.130 C 
ATOM     16  C   UNL     1      34.485 -16.014 -23.343  0.00  0.00    +0.164 A 
ATOM     17  C   UNL     1      33.597 -14.306 -22.308  0.00  0.00    +0.238 A 
BRANCH  17  21
ATOM     18  F   UNL     1      32.057 -13.949 -20.512  0.00  0.00    -0.163 F 
ATOM     19  F   UNL     1      34.060 -13.156 -20.263  0.00  0.00    -0.163 F 
ATOM     20  F   UNL     1      32.685 -12.209 -21.655  0.00  0.00    -0.163 F 
ATOM     21  C   UNL     1      33.116 -13.437 -21.220  0.00  0.00    +0.452 C 
ENDBRANCH  17  21
ENDBRANCH   5  12
BRANCH   1  25
ATOM     22  F   UNL     1      37.441 -21.624 -16.951  0.00  0.00    -0.204 F 
ATOM     23  F   UNL     1      33.186 -24.632 -15.293  0.00  0.00    -0.202 F 
ATOM     24  F   UNL     1      35.602 -24.865 -14.036  0.00  0.00    -0.202 F 
ATOM     25  C   UNL     1      35.162 -22.242 -17.185  0.00  0.00    +0.006 C 
ATOM     26  C   UNL     1      36.394 -22.356 -16.549  0.00  0.00    +0.138 C 
ATOM     27  C   UNL     1      34.077 -23.006 -16.766  0.00  0.00    +0.030 C 
ATOM     28  C   UNL     1      34.226 -23.893 -15.700  0.00  0.00    +0.167 C 
ATOM     29  C   UNL     1      36.543 -23.243 -15.483  0.00  0.00    +0.061 C 
ATOM     30  C   UNL     1      35.458 -24.011 -15.058  0.00  0.00    +0.170 C 
ENDBRANCH   1  25
BRANCH   2  31
ATOM     31  N   UNL     1      32.546 -21.701 -18.531  0.00  0.00    +0.382 N 
ATOM     32  H   UNL     1      32.730 -21.541 -17.541  0.00  0.00    -0.089 HD
ATOM     33  H   UNL     1      32.143 -22.628 -18.657  0.00  0.00    -0.089 HD
ATOM     34  H   UNL     1      31.894 -20.995 -18.874  0.00  0.00    -0.089 HD
ENDBRANCH   2  31
TORSDOF 4
ENDMDL
MODEL 9
REMARK VINA RESULT:     -10.5     10.260     15.913
REMARK  Name = 11974440
REMARK  4 active torsions:
REMARK  status: ('A' for Active; 'I' for Inactive)
REMARK    1  A    between atoms: C_1  and  C_25
REMARK    2  A    between atoms: C_2  and  N_31
REMARK    3  A    between atoms: C_5  and  C_12
REMARK    4  A    between atoms: C_17  and  C_21
REMARK                            x       y       z     vdW  Elec       q    Type
REMARK                         _______ _______ _______ _____ _____    ______ ____
ROOT
ATOM      1  C   UNL     1      32.812 -12.332 -23.041  0.00  0.00    +0.009 C 
ATOM      2  C   UNL     1      33.825 -11.158 -23.086  0.00  0.00    -0.057 C 
ATOM      3  C   UNL     1      33.101  -9.812 -22.882  0.00  0.00    +0.009 C 
ATOM      4  C   UNL     1      32.059 -12.346 -21.690  0.00  0.00    +0.028 C 
ATOM      5  C   UNL     1      32.101  -9.854 -21.766  0.00  0.00    +0.025 C 
ATOM      6  C   UNL     1      31.637 -10.985 -21.219  0.00  0.00    -0.026 C 
ENDROOT
BRANCH   5  12
ATOM      7  O   UNL     1      31.550  -8.457 -19.994  0.00  0.00    -0.270 OA
ATOM      8  N   UNL     1      31.241  -7.583 -22.126  0.00  0.00    -0.267 N 
ATOM      9  N   UNL     1      31.918  -5.375 -23.629  0.00  0.00    -0.292 N 
ATOM     10  N   UNL     1      31.279  -3.882 -22.173  0.00  0.00    -0.132 NA
ATOM     11  N   UNL     1      31.894  -3.237 -23.232  0.00  0.00    -0.125 NA
ATOM     12  C   UNL     1      31.604  -8.575 -21.219  0.00  0.00    +0.245 C 
ATOM     13  C   UNL     1      31.221  -7.715 -23.597  0.00  0.00    +0.119 C 
ATOM     14  C   UNL     1      30.754  -6.293 -21.613  0.00  0.00    +0.160 C 
ATOM     15  C   UNL     1      32.147  -6.675 -24.222  0.00  0.00    +0.130 C 
ATOM     16  C   UNL     1      31.303  -5.175 -22.424  0.00  0.00    +0.164 A 
ATOM     17  C   UNL     1      32.271  -4.154 -24.096  0.00  0.00    +0.238 A 
BRANCH  17  21
ATOM     18  F   UNL     1      34.196  -4.555 -25.459  0.00  0.00    -0.163 F 
ATOM     19  F   UNL     1      32.290  -4.380 -26.477  0.00  0.00    -0.163 F 
ATOM     20  F   UNL     1      33.233  -2.613 -25.632  0.00  0.00    -0.163 F 
ATOM     21  C   UNL     1      32.974  -3.936 -25.372  0.00  0.00    +0.452 C 
ENDBRANCH  17  21
ENDBRANCH   5  12
BRANCH   1  25
ATOM     22  F   UNL     1      32.740 -13.598 -25.580  0.00  0.00    -0.204 F 
ATOM     23  F   UNL     1      35.250 -16.290 -21.534  0.00  0.00    -0.202 F 
ATOM     24  F   UNL     1      35.106 -17.392 -24.032  0.00  0.00    -0.202 F 
ATOM     25  C   UNL     1      33.431 -13.695 -23.311  0.00  0.00    +0.006 C 
ATOM     26  C   UNL     1      33.355 -14.251 -24.584  0.00  0.00    +0.138 C 
ATOM     27  C   UNL     1      34.068 -14.378 -22.279  0.00  0.00    +0.030 C 
ATOM     28  C   UNL     1      34.635 -15.628 -22.524  0.00  0.00    +0.167 C 
ATOM     29  C   UNL     1      33.923 -15.502 -24.828  0.00  0.00    +0.061 C 
ATOM     30  C   UNL     1      34.563 -16.190 -23.798  0.00  0.00    +0.170 C 
ENDBRANCH   1  25
BRANCH   2  31
ATOM     31  N   UNL     1      34.554 -11.128 -24.358  0.00  0.00    +0.382 N 
ATOM     32  H   UNL     1      33.889 -11.082 -25.130  0.00  0.00    -0.089 HD
ATOM     33  H   UNL     1      35.119 -11.971 -24.445  0.00  0.00    -0.089 HD
ATOM     34  H   UNL     1      35.160 -10.307 -24.383  0.00  0.00    -0.089 HD
ENDBRANCH   2  31
TORSDOF 4
ENDMDL
