MODEL 1
REMARK VINA RESULT:     -12.2      0.000      0.000
REMARK  Name = 44141871
REMARK  6 active torsions:
REMARK  status: ('A' for Active; 'I' for Inactive)
REMARK    1  A    between atoms: C_1  and  C_10
REMARK    2  A    between atoms: C_4  and  O_20
REMARK    3  A    between atoms: C_9  and  C_13
REMARK    4  A    between atoms: C_13  and  C_15
REMARK    5  A    between atoms: O_20  and  C_21
REMARK    6  A    between atoms: C_21  and  C_23
REMARK                            x       y       z     vdW  Elec       q    Type
REMARK                         _______ _______ _______ _____ _____    ______ ____
ROOT
ATOM      1  C   UNL     1      34.840 -18.412 -22.532  0.00  0.00    +0.015 C 
ATOM      2  C   UNL     1      36.144 -18.096 -22.152  0.00  0.00    +0.004 C 
ATOM      3  C   UNL     1      34.122 -19.376 -21.824  0.00  0.00    +0.004 C 
ATOM      4  C   UNL     1      36.013 -19.709 -20.357  0.00  0.00    +0.139 C 
ATOM      5  C   UNL     1      36.731 -18.744 -21.065  0.00  0.00    +0.037 C 
ATOM      6  C   UNL     1      34.708 -20.024 -20.737  0.00  0.00    +0.037 C 
ENDROOT
BRANCH   1  10
ATOM      7  N   UNL     1      33.470 -18.394 -24.576  0.00  0.00    -0.236 N 
ATOM      8  N   UNL     1      32.994 -17.598 -25.550  0.00  0.00    -0.180 NA
ATOM      9  C   UNL     1      34.262 -16.426 -24.053  0.00  0.00    +0.018 C 
ATOM     10  C   UNL     1      34.234 -17.741 -23.655  0.00  0.00    +0.063 C 
ATOM     11  C   UNL     1      33.481 -16.397 -25.226  0.00  0.00    +0.115 C 
ATOM     12  H   UNL     1      33.283 -19.360 -24.532  0.00  0.00    +0.174 HD
BRANCH   9  13
ATOM     13  C   UNL     1      34.948 -15.293 -23.410  0.00  0.00    +0.056 C 
BRANCH  13  15
ATOM     14  N   UNL     1      32.468 -12.976 -20.739  0.00  0.00    -0.242 NA
ATOM     15  C   UNL     1      34.074 -14.476 -22.468  0.00  0.00    -0.015 C 
ATOM     16  C   UNL     1      33.186 -13.536 -22.980  0.00  0.00    +0.017 C 
ATOM     17  C   UNL     1      34.159 -14.667 -21.094  0.00  0.00    +0.017 C 
ATOM     18  C   UNL     1      32.413 -12.818 -22.081  0.00  0.00    +0.099 C 
ATOM     19  C   UNL     1      33.342 -13.899 -20.279  0.00  0.00    +0.099 C 
ENDBRANCH  13  15
ENDBRANCH   9  13
ENDBRANCH   1  10
BRANCH   4  20
ATOM     20  O   UNL     1      36.587 -20.343 -19.288  0.00  0.00    -0.468 OA
BRANCH  20  21
ATOM     21  C   UNL     1      36.465 -21.759 -19.241  0.00  0.00    +0.264 C 
BRANCH  21  23
ATOM     22  N   UNL     1      34.514 -22.462 -17.993  0.00  0.00    -0.406 NA
ATOM     23  C   UNL     1      35.832 -22.160 -17.951  0.00  0.00    +0.152 C 
ATOM     24  C   UNL     1      34.608 -22.902 -15.626  0.00  0.00    +0.026 C 
ATOM     25  C   UNL     1      33.908 -22.828 -16.848  0.00  0.00    +0.113 C 
ATOM     26  C   UNL     1      36.599 -22.202 -16.805  0.00  0.00    +0.031 C 
ATOM     27  C   UNL     1      35.972 -22.580 -15.626  0.00  0.00    +0.005 C 
ATOM     28  C   UNL     1      33.943 -23.289 -14.450  0.00  0.00    +0.002 C 
ATOM     29  C   UNL     1      32.553 -23.148 -16.847  0.00  0.00    +0.085 C 
ATOM     30  C   UNL     1      32.587 -23.602 -14.478  0.00  0.00    -0.004 C 
ATOM     31  C   UNL     1      31.891 -23.532 -15.678  0.00  0.00    -0.019 C 
ENDBRANCH  21  23
ENDBRANCH  20  21
ENDBRANCH   4  20
TORSDOF 6
ENDMDL
MODEL 2
REMARK VINA RESULT:     -12.1      1.265      1.927
REMARK  Name = 44141871
REMARK  6 active torsions:
REMARK  status: ('A' for Active; 'I' for Inactive)
REMARK    1  A    between atoms: C_1  and  C_10
REMARK    2  A    between atoms: C_4  and  O_20
REMARK    3  A    between atoms: C_9  and  C_13
REMARK    4  A    between atoms: C_13  and  C_15
REMARK    5  A    between atoms: O_20  and  C_21
REMARK    6  A    between atoms: C_21  and  C_23
REMARK                            x       y       z     vdW  Elec       q    Type
REMARK                         _______ _______ _______ _____ _____    ______ ____
ROOT
ATOM      1  C   UNL     1      34.717 -19.054 -21.937  0.00  0.00    +0.015 C 
ATOM      2  C   UNL     1      33.588 -19.660 -21.385  0.00  0.00    +0.004 C 
ATOM      3  C   UNL     1      35.982 -19.335 -21.419  0.00  0.00    +0.004 C 
ATOM      4  C   UNL     1      34.989 -20.826 -19.799  0.00  0.00    +0.139 C 
ATOM      5  C   UNL     1      33.724 -20.546 -20.317  0.00  0.00    +0.037 C 
ATOM      6  C   UNL     1      36.117 -20.221 -20.350  0.00  0.00    +0.037 C 
ENDROOT
BRANCH   1  10
ATOM      7  N   UNL     1      34.267 -18.552 -24.304  0.00  0.00    -0.236 N 
ATOM      8  N   UNL     1      34.181 -17.551 -25.198  0.00  0.00    -0.180 NA
ATOM      9  C   UNL     1      34.703 -16.773 -23.114  0.00  0.00    +0.018 C 
ATOM     10  C   UNL     1      34.576 -18.139 -23.042  0.00  0.00    +0.063 C 
ATOM     11  C   UNL     1      34.448 -16.467 -24.465  0.00  0.00    +0.115 C 
ATOM     12  H   UNL     1      34.118 -19.497 -24.539  0.00  0.00    +0.174 HD
BRANCH   9  13
ATOM     13  C   UNL     1      35.031 -15.830 -22.031  0.00  0.00    +0.056 C 
BRANCH  13  15
ATOM     14  N   UNL     1      32.463 -12.363 -21.834  0.00  0.00    -0.242 NA
ATOM     15  C   UNL     1      34.125 -14.607 -21.962  0.00  0.00    -0.015 C 
ATOM     16  C   UNL     1      34.058 -13.726 -23.036  0.00  0.00    +0.017 C 
ATOM     17  C   UNL     1      33.362 -14.367 -20.825  0.00  0.00    +0.017 C 
ATOM     18  C   UNL     1      33.220 -12.629 -22.923  0.00  0.00    +0.099 C 
ATOM     19  C   UNL     1      32.554 -13.242 -20.811  0.00  0.00    +0.099 C 
ENDBRANCH  13  15
ENDBRANCH   9  13
ENDBRANCH   1  10
BRANCH   4  20
ATOM     20  O   UNL     1      35.122 -21.699 -18.752  0.00  0.00    -0.468 OA
BRANCH  20  21
ATOM     21  C   UNL     1      34.248 -22.820 -18.735  0.00  0.00    +0.264 C 
BRANCH  21  23
ATOM     22  N   UNL     1      32.287 -22.946 -17.321  0.00  0.00    -0.406 NA
ATOM     23  C   UNL     1      33.638 -22.953 -17.380  0.00  0.00    +0.152 C 
ATOM     24  C   UNL     1      32.455 -23.193 -14.931  0.00  0.00    +0.026 C 
ATOM     25  C   UNL     1      31.701 -23.064 -16.116  0.00  0.00    +0.113 C 
ATOM     26  C   UNL     1      34.459 -23.074 -16.277  0.00  0.00    +0.031 C 
ATOM     27  C   UNL     1      33.852 -23.196 -15.035  0.00  0.00    +0.005 C 
ATOM     28  C   UNL     1      31.809 -23.315 -13.689  0.00  0.00    +0.002 C 
ATOM     29  C   UNL     1      30.312 -23.061 -16.011  0.00  0.00    +0.085 C 
ATOM     30  C   UNL     1      30.420 -23.309 -13.613  0.00  0.00    -0.004 C 
ATOM     31  C   UNL     1      29.670 -23.183 -14.776  0.00  0.00    -0.019 C 
ENDBRANCH  21  23
ENDBRANCH  20  21
ENDBRANCH   4  20
TORSDOF 6
ENDMDL
MODEL 3
REMARK VINA RESULT:     -11.9      2.259     10.251
REMARK  Name = 44141871
REMARK  6 active torsions:
REMARK  status: ('A' for Active; 'I' for Inactive)
REMARK    1  A    between atoms: C_1  and  C_10
REMARK    2  A    between atoms: C_4  and  O_20
REMARK    3  A    between atoms: C_9  and  C_13
REMARK    4  A    between atoms: C_13  and  C_15
REMARK    5  A    between atoms: O_20  and  C_21
REMARK    6  A    between atoms: C_21  and  C_23
REMARK                            x       y       z     vdW  Elec       q    Type
REMARK                         _______ _______ _______ _____ _____    ______ ____
ROOT
ATOM      1  C   UNL     1      33.906 -21.892 -18.392  0.00  0.00    +0.015 C 
ATOM      2  C   UNL     1      33.028 -21.205 -19.229  0.00  0.00    +0.004 C 
ATOM      3  C   UNL     1      35.278 -21.859 -18.643  0.00  0.00    +0.004 C 
ATOM      4  C   UNL     1      34.893 -20.450 -20.567  0.00  0.00    +0.139 C 
ATOM      5  C   UNL     1      33.521 -20.483 -20.316  0.00  0.00    +0.037 C 
ATOM      6  C   UNL     1      35.771 -21.137 -19.730  0.00  0.00    +0.037 C 
ENDROOT
BRANCH   1  10
ATOM      7  N   UNL     1      32.088 -23.009 -17.165  0.00  0.00    -0.236 N 
ATOM      8  N   UNL     1      31.805 -23.696 -16.044  0.00  0.00    -0.180 NA
ATOM      9  C   UNL     1      34.012 -23.113 -16.136  0.00  0.00    +0.018 C 
ATOM     10  C   UNL     1      33.396 -22.638 -17.267  0.00  0.00    +0.063 C 
ATOM     11  C   UNL     1      32.984 -23.757 -15.420  0.00  0.00    +0.115 C 
ATOM     12  H   UNL     1      31.413 -22.795 -17.849  0.00  0.00    +0.174 HD
BRANCH   9  13
ATOM     13  C   UNL     1      35.427 -22.987 -15.747  0.00  0.00    +0.056 C 
BRANCH  13  15
ATOM     14  N   UNL     1      36.585 -25.426 -12.376  0.00  0.00    -0.242 NA
ATOM     15  C   UNL     1      35.835 -23.847 -14.557  0.00  0.00    -0.015 C 
ATOM     16  C   UNL     1      36.197 -25.176 -14.750  0.00  0.00    +0.017 C 
ATOM     17  C   UNL     1      35.848 -23.307 -13.277  0.00  0.00    +0.017 C 
ATOM     18  C   UNL     1      36.560 -25.915 -13.636  0.00  0.00    +0.099 C 
ATOM     19  C   UNL     1      36.227 -24.130 -12.229  0.00  0.00    +0.099 C 
ENDBRANCH  13  15
ENDBRANCH   9  13
ENDBRANCH   1  10
BRANCH   4  20
ATOM     20  O   UNL     1      35.377 -19.739 -21.632  0.00  0.00    -0.468 OA
BRANCH  20  21
ATOM     21  C   UNL     1      35.663 -18.364 -21.409  0.00  0.00    +0.264 C 
BRANCH  21  23
ATOM     22  N   UNL     1      34.918 -16.225 -22.262  0.00  0.00    -0.406 NA
ATOM     23  C   UNL     1      35.062 -17.548 -22.504  0.00  0.00    +0.152 C 
ATOM     24  C   UNL     1      33.968 -15.993 -24.463  0.00  0.00    +0.026 C 
ATOM     25  C   UNL     1      34.379 -15.456 -23.226  0.00  0.00    +0.113 C 
ATOM     26  C   UNL     1      34.689 -18.164 -23.681  0.00  0.00    +0.031 C 
ATOM     27  C   UNL     1      34.133 -17.369 -24.673  0.00  0.00    +0.005 C 
ATOM     28  C   UNL     1      33.409 -15.161 -25.448  0.00  0.00    +0.002 C 
ATOM     29  C   UNL     1      34.213 -14.089 -23.018  0.00  0.00    +0.085 C 
ATOM     30  C   UNL     1      33.254 -13.798 -25.213  0.00  0.00    -0.004 C 
ATOM     31  C   UNL     1      33.658 -13.261 -23.997  0.00  0.00    -0.019 C 
ENDBRANCH  21  23
ENDBRANCH  20  21
ENDBRANCH   4  20
TORSDOF 6
ENDMDL
MODEL 4
REMARK VINA RESULT:     -11.9      2.409     10.358
REMARK  Name = 44141871
REMARK  6 active torsions:
REMARK  status: ('A' for Active; 'I' for Inactive)
REMARK    1  A    between atoms: C_1  and  C_10
REMARK    2  A    between atoms: C_4  and  O_20
REMARK    3  A    between atoms: C_9  and  C_13
REMARK    4  A    between atoms: C_13  and  C_15
REMARK    5  A    between atoms: O_20  and  C_21
REMARK    6  A    between atoms: C_21  and  C_23
REMARK                            x       y       z     vdW  Elec       q    Type
REMARK                         _______ _______ _______ _____ _____    ______ ____
ROOT
ATOM      1  C   UNL     1      34.183 -22.497 -17.304  0.00  0.00    +0.015 C 
ATOM      2  C   UNL     1      35.553 -22.274 -17.440  0.00  0.00    +0.004 C 
ATOM      3  C   UNL     1      33.310 -22.110 -18.321  0.00  0.00    +0.004 C 
ATOM      4  C   UNL     1      35.176 -21.277 -19.609  0.00  0.00    +0.139 C 
ATOM      5  C   UNL     1      36.050 -21.664 -18.592  0.00  0.00    +0.037 C 
ATOM      6  C   UNL     1      33.806 -21.501 -19.473  0.00  0.00    +0.037 C 
ENDROOT
BRANCH   1  10
ATOM      7  N   UNL     1      32.368 -23.514 -15.988  0.00  0.00    -0.236 N 
ATOM      8  N   UNL     1      32.082 -24.082 -14.804  0.00  0.00    -0.180 NA
ATOM      9  C   UNL     1      34.279 -23.467 -14.929  0.00  0.00    +0.018 C 
ATOM     10  C   UNL     1      33.670 -23.128 -16.113  0.00  0.00    +0.063 C 
ATOM     11  C   UNL     1      33.252 -24.052 -14.161  0.00  0.00    +0.115 C 
ATOM     12  H   UNL     1      31.700 -23.388 -16.700  0.00  0.00    +0.174 HD
BRANCH   9  13
ATOM     13  C   UNL     1      35.685 -23.270 -14.538  0.00  0.00    +0.056 C 
BRANCH  13  15
ATOM     14  N   UNL     1      38.057 -26.879 -14.496  0.00  0.00    -0.242 NA
ATOM     15  C   UNL     1      36.521 -24.543 -14.523  0.00  0.00    -0.015 C 
ATOM     16  C   UNL     1      37.867 -24.489 -14.176  0.00  0.00    +0.017 C 
ATOM     17  C   UNL     1      35.943 -25.762 -14.857  0.00  0.00    +0.017 C 
ATOM     18  C   UNL     1      38.584 -25.675 -14.178  0.00  0.00    +0.099 C 
ATOM     19  C   UNL     1      36.747 -26.891 -14.828  0.00  0.00    +0.099 C 
ENDBRANCH  13  15
ENDBRANCH   9  13
ENDBRANCH   1  10
BRANCH   4  20
ATOM     20  O   UNL     1      35.664 -20.681 -20.742  0.00  0.00    -0.468 OA
BRANCH  20  21
ATOM     21  C   UNL     1      35.904 -19.281 -20.677  0.00  0.00    +0.264 C 
BRANCH  21  23
ATOM     22  N   UNL     1      35.250 -17.264 -21.845  0.00  0.00    -0.406 NA
ATOM     23  C   UNL     1      35.284 -18.617 -21.861  0.00  0.00    +0.152 C 
ATOM     24  C   UNL     1      34.163 -17.333 -23.993  0.00  0.00    +0.026 C 
ATOM     25  C   UNL     1      34.698 -16.629 -22.895  0.00  0.00    +0.113 C 
ATOM     26  C   UNL     1      34.786 -19.391 -22.888  0.00  0.00    +0.031 C 
ATOM     27  C   UNL     1      34.217 -18.733 -23.970  0.00  0.00    +0.005 C 
ATOM     28  C   UNL     1      33.594 -16.637 -25.074  0.00  0.00    +0.002 C 
ATOM     29  C   UNL     1      34.643 -15.238 -22.920  0.00  0.00    +0.085 C 
ATOM     30  C   UNL     1      33.552 -15.246 -25.072  0.00  0.00    -0.004 C 
ATOM     31  C   UNL     1      34.078 -14.545 -23.994  0.00  0.00    -0.019 C 
ENDBRANCH  21  23
ENDBRANCH  20  21
ENDBRANCH   4  20
TORSDOF 6
ENDMDL
MODEL 5
REMARK VINA RESULT:     -11.8      2.279     10.012
REMARK  Name = 44141871
REMARK  6 active torsions:
REMARK  status: ('A' for Active; 'I' for Inactive)
REMARK    1  A    between atoms: C_1  and  C_10
REMARK    2  A    between atoms: C_4  and  O_20
REMARK    3  A    between atoms: C_9  and  C_13
REMARK    4  A    between atoms: C_13  and  C_15
REMARK    5  A    between atoms: O_20  and  C_21
REMARK    6  A    between atoms: C_21  and  C_23
REMARK                            x       y       z     vdW  Elec       q    Type
REMARK                         _______ _______ _______ _____ _____    ______ ____
ROOT
ATOM      1  C   UNL     1      34.520 -22.943 -16.590  0.00  0.00    +0.015 C 
ATOM      2  C   UNL     1      33.457 -22.957 -17.494  0.00  0.00    +0.004 C 
ATOM      3  C   UNL     1      35.720 -22.323 -16.935  0.00  0.00    +0.004 C 
ATOM      4  C   UNL     1      34.796 -21.728 -19.087  0.00  0.00    +0.139 C 
ATOM      5  C   UNL     1      33.595 -22.349 -18.742  0.00  0.00    +0.037 C 
ATOM      6  C   UNL     1      35.858 -21.715 -18.183  0.00  0.00    +0.037 C 
ENDROOT
BRANCH   1  10
ATOM      7  N   UNL     1      35.292 -24.454 -14.807  0.00  0.00    -0.236 N 
ATOM      8  N   UNL     1      34.982 -24.933 -13.589  0.00  0.00    -0.180 NA
ATOM      9  C   UNL     1      33.400 -23.466 -14.340  0.00  0.00    +0.018 C 
ATOM     10  C   UNL     1      34.377 -23.572 -15.300  0.00  0.00    +0.063 C 
ATOM     11  C   UNL     1      33.826 -24.326 -13.309  0.00  0.00    +0.115 C 
ATOM     12  H   UNL     1      36.105 -24.716 -15.296  0.00  0.00    +0.174 HD
BRANCH   9  13
ATOM     13  C   UNL     1      32.179 -22.643 -14.369  0.00  0.00    +0.056 C 
BRANCH  13  15
ATOM     14  N   UNL     1      28.644 -24.729 -15.712  0.00  0.00    -0.242 NA
ATOM     15  C   UNL     1      30.932 -23.379 -14.842  0.00  0.00    -0.015 C 
ATOM     16  C   UNL     1      30.570 -24.587 -14.257  0.00  0.00    +0.017 C 
ATOM     17  C   UNL     1      30.151 -22.845 -15.861  0.00  0.00    +0.017 C 
ATOM     18  C   UNL     1      29.428 -25.217 -14.724  0.00  0.00    +0.099 C 
ATOM     19  C   UNL     1      29.027 -23.553 -16.256  0.00  0.00    +0.099 C 
ENDBRANCH  13  15
ENDBRANCH   9  13
ENDBRANCH   1  10
BRANCH   4  20
ATOM     20  O   UNL     1      34.930 -21.128 -20.310  0.00  0.00    -0.468 OA
BRANCH  20  21
ATOM     21  C   UNL     1      35.678 -19.919 -20.353  0.00  0.00    +0.264 C 
BRANCH  21  23
ATOM     22  N   UNL     1      35.191 -17.764 -21.341  0.00  0.00    -0.406 NA
ATOM     23  C   UNL     1      35.235 -19.103 -21.522  0.00  0.00    +0.152 C 
ATOM     24  C   UNL     1      34.433 -17.549 -23.618  0.00  0.00    +0.026 C 
ATOM     25  C   UNL     1      34.796 -16.995 -22.373  0.00  0.00    +0.113 C 
ATOM     26  C   UNL     1      34.898 -19.737 -22.700  0.00  0.00    +0.031 C 
ATOM     27  C   UNL     1      34.491 -18.941 -23.762  0.00  0.00    +0.005 C 
ATOM     28  C   UNL     1      34.025 -16.716 -24.674  0.00  0.00    +0.002 C 
ATOM     29  C   UNL     1      34.738 -15.611 -22.230  0.00  0.00    +0.085 C 
ATOM     30  C   UNL     1      33.975 -15.335 -24.503  0.00  0.00    -0.004 C 
ATOM     31  C   UNL     1      34.333 -14.782 -23.280  0.00  0.00    -0.019 C 
ENDBRANCH  21  23
ENDBRANCH  20  21
ENDBRANCH   4  20
TORSDOF 6
ENDMDL
MODEL 6
REMARK VINA RESULT:     -11.7      3.135      5.915
REMARK  Name = 44141871
REMARK  6 active torsions:
REMARK  status: ('A' for Active; 'I' for Inactive)
REMARK    1  A    between atoms: C_1  and  C_10
REMARK    2  A    between atoms: C_4  and  O_20
REMARK    3  A    between atoms: C_9  and  C_13
REMARK    4  A    between atoms: C_13  and  C_15
REMARK    5  A    between atoms: O_20  and  C_21
REMARK    6  A    between atoms: C_21  and  C_23
REMARK                            x       y       z     vdW  Elec       q    Type
REMARK                         _______ _______ _______ _____ _____    ______ ____
ROOT
ATOM      1  C   UNL     1      33.048 -13.348 -22.122  0.00  0.00    +0.015 C 
ATOM      2  C   UNL     1      33.770 -14.044 -21.153  0.00  0.00    +0.004 C 
ATOM      3  C   UNL     1      33.099 -13.755 -23.455  0.00  0.00    +0.004 C 
ATOM      4  C   UNL     1      34.592 -15.556 -22.849  0.00  0.00    +0.139 C 
ATOM      5  C   UNL     1      34.542 -15.148 -21.516  0.00  0.00    +0.037 C 
ATOM      6  C   UNL     1      33.870 -14.859 -23.819  0.00  0.00    +0.037 C 
ENDROOT
BRANCH   1  10
ATOM      7  N   UNL     1      31.256 -12.280 -20.815  0.00  0.00    -0.236 N 
ATOM      8  N   UNL     1      30.625 -11.112 -20.601  0.00  0.00    -0.180 NA
ATOM      9  C   UNL     1      32.273 -10.901 -22.170  0.00  0.00    +0.018 C 
ATOM     10  C   UNL     1      32.251 -12.207 -21.745  0.00  0.00    +0.063 C 
ATOM     11  C   UNL     1      31.251 -10.273 -21.431  0.00  0.00    +0.115 C 
ATOM     12  H   UNL     1      31.022 -13.112 -20.343  0.00  0.00    +0.174 HD
BRANCH   9  13
ATOM     13  C   UNL     1      33.159 -10.283 -23.171  0.00  0.00    +0.056 C 
BRANCH  13  15
ATOM     14  N   UNL     1      33.025  -5.967 -23.265  0.00  0.00    -0.242 NA
ATOM     15  C   UNL     1      33.112  -8.761 -23.204  0.00  0.00    -0.015 C 
ATOM     16  C   UNL     1      31.890  -8.103 -23.290  0.00  0.00    +0.017 C 
ATOM     17  C   UNL     1      34.289  -8.024 -23.149  0.00  0.00    +0.017 C 
ATOM     18  C   UNL     1      31.901  -6.717 -23.317  0.00  0.00    +0.099 C 
ATOM     19  C   UNL     1      34.193  -6.642 -23.182  0.00  0.00    +0.099 C 
ENDBRANCH  13  15
ENDBRANCH   9  13
ENDBRANCH   1  10
BRANCH   4  20
ATOM     20  O   UNL     1      35.346 -16.641 -23.206  0.00  0.00    -0.468 OA
BRANCH  20  21
ATOM     21  C   UNL     1      34.662 -17.880 -23.343  0.00  0.00    +0.264 C 
BRANCH  21  23
ATOM     22  N   UNL     1      34.020 -19.461 -21.627  0.00  0.00    -0.406 NA
ATOM     23  C   UNL     1      35.031 -18.778 -22.210  0.00  0.00    +0.152 C 
ATOM     24  C   UNL     1      35.633 -20.440 -20.130  0.00  0.00    +0.026 C 
ATOM     25  C   UNL     1      34.313 -20.281 -20.601  0.00  0.00    +0.113 C 
ATOM     26  C   UNL     1      36.351 -18.868 -21.819  0.00  0.00    +0.031 C 
ATOM     27  C   UNL     1      36.651 -19.714 -20.761  0.00  0.00    +0.005 C 
ATOM     28  C   UNL     1      35.903 -21.306 -19.056  0.00  0.00    +0.002 C 
ATOM     29  C   UNL     1      33.302 -21.003 -19.972  0.00  0.00    +0.085 C 
ATOM     30  C   UNL     1      34.873 -22.015 -18.446  0.00  0.00    -0.004 C 
ATOM     31  C   UNL     1      33.570 -21.864 -18.905  0.00  0.00    -0.019 C 
ENDBRANCH  21  23
ENDBRANCH  20  21
ENDBRANCH   4  20
TORSDOF 6
ENDMDL
MODEL 7
REMARK VINA RESULT:     -11.6      2.110     10.144
REMARK  Name = 44141871
REMARK  6 active torsions:
REMARK  status: ('A' for Active; 'I' for Inactive)
REMARK    1  A    between atoms: C_1  and  C_10
REMARK    2  A    between atoms: C_4  and  O_20
REMARK    3  A    between atoms: C_9  and  C_13
REMARK    4  A    between atoms: C_13  and  C_15
REMARK    5  A    between atoms: O_20  and  C_21
REMARK    6  A    between atoms: C_21  and  C_23
REMARK                            x       y       z     vdW  Elec       q    Type
REMARK                         _______ _______ _______ _____ _____    ______ ____
ROOT
ATOM      1  C   UNL     1      34.660 -21.936 -18.206  0.00  0.00    +0.015 C 
ATOM      2  C   UNL     1      35.824 -21.521 -18.853  0.00  0.00    +0.004 C 
ATOM      3  C   UNL     1      33.413 -21.604 -18.735  0.00  0.00    +0.004 C 
ATOM      4  C   UNL     1      34.494 -20.442 -20.557  0.00  0.00    +0.139 C 
ATOM      5  C   UNL     1      35.741 -20.774 -20.028  0.00  0.00    +0.037 C 
ATOM      6  C   UNL     1      33.330 -20.857 -19.910  0.00  0.00    +0.037 C 
ENDROOT
BRANCH   1  10
ATOM      7  N   UNL     1      35.937 -23.049 -16.421  0.00  0.00    -0.236 N 
ATOM      8  N   UNL     1      35.812 -23.771 -15.293  0.00  0.00    -0.180 NA
ATOM      9  C   UNL     1      33.774 -23.245 -16.183  0.00  0.00    +0.018 C 
ATOM     10  C   UNL     1      34.747 -22.708 -16.991  0.00  0.00    +0.063 C 
ATOM     11  C   UNL     1      34.489 -23.888 -15.153  0.00  0.00    +0.115 C 
ATOM     12  H   UNL     1      36.809 -22.790 -16.798  0.00  0.00    +0.174 HD
BRANCH   9  13
ATOM     13  C   UNL     1      32.312 -23.172 -16.344  0.00  0.00    +0.056 C 
BRANCH  13  15
ATOM     14  N   UNL     1      30.060 -24.701 -12.992  0.00  0.00    -0.242 NA
ATOM     15  C   UNL     1      31.518 -23.712 -15.162  0.00  0.00    -0.015 C 
ATOM     16  C   UNL     1      31.546 -23.046 -13.941  0.00  0.00    +0.017 C 
ATOM     17  C   UNL     1      30.762 -24.870 -15.299  0.00  0.00    +0.017 C 
ATOM     18  C   UNL     1      30.807 -23.577 -12.897  0.00  0.00    +0.099 C 
ATOM     19  C   UNL     1      30.058 -25.320 -14.193  0.00  0.00    +0.099 C 
ENDBRANCH  13  15
ENDBRANCH   9  13
ENDBRANCH   1  10
BRANCH   4  20
ATOM     20  O   UNL     1      34.412 -19.712 -21.713  0.00  0.00    -0.468 OA
BRANCH  20  21
ATOM     21  C   UNL     1      35.390 -18.698 -21.901  0.00  0.00    +0.264 C 
BRANCH  21  23
ATOM     22  N   UNL     1      34.869 -16.379 -22.360  0.00  0.00    -0.406 NA
ATOM     23  C   UNL     1      34.850 -17.652 -22.818  0.00  0.00    +0.152 C 
ATOM     24  C   UNL     1      33.876 -15.685 -24.442  0.00  0.00    +0.026 C 
ATOM     25  C   UNL     1      34.390 -15.408 -23.159  0.00  0.00    +0.113 C 
ATOM     26  C   UNL     1      34.367 -18.021 -24.057  0.00  0.00    +0.031 C 
ATOM     27  C   UNL     1      33.874 -17.017 -24.878  0.00  0.00    +0.005 C 
ATOM     28  C   UNL     1      33.384 -14.646 -25.250  0.00  0.00    +0.002 C 
ATOM     29  C   UNL     1      34.392 -14.084 -22.726  0.00  0.00    +0.085 C 
ATOM     30  C   UNL     1      33.398 -13.331 -24.792  0.00  0.00    -0.004 C 
ATOM     31  C   UNL     1      33.903 -13.050 -23.529  0.00  0.00    -0.019 C 
ENDBRANCH  21  23
ENDBRANCH  20  21
ENDBRANCH   4  20
TORSDOF 6
ENDMDL
MODEL 8
REMARK VINA RESULT:     -11.3      3.800     10.977
REMARK  Name = 44141871
REMARK  6 active torsions:
REMARK  status: ('A' for Active; 'I' for Inactive)
REMARK    1  A    between atoms: C_1  and  C_10
REMARK    2  A    between atoms: C_4  and  O_20
REMARK    3  A    between atoms: C_9  and  C_13
REMARK    4  A    between atoms: C_13  and  C_15
REMARK    5  A    between atoms: O_20  and  C_21
REMARK    6  A    between atoms: C_21  and  C_23
REMARK                            x       y       z     vdW  Elec       q    Type
REMARK                         _______ _______ _______ _____ _____    ______ ____
ROOT
ATOM      1  C   UNL     1      34.206 -16.182 -23.481  0.00  0.00    +0.015 C 
ATOM      2  C   UNL     1      34.586 -15.591 -22.276  0.00  0.00    +0.004 C 
ATOM      3  C   UNL     1      33.670 -15.398 -24.503  0.00  0.00    +0.004 C 
ATOM      4  C   UNL     1      33.897 -13.433 -23.116  0.00  0.00    +0.139 C 
ATOM      5  C   UNL     1      34.432 -14.217 -22.094  0.00  0.00    +0.037 C 
ATOM      6  C   UNL     1      33.516 -14.024 -24.321  0.00  0.00    +0.037 C 
ENDROOT
BRANCH   1  10
ATOM      7  N   UNL     1      34.050 -18.230 -24.838  0.00  0.00    -0.236 N 
ATOM      8  N   UNL     1      34.267 -19.557 -24.819  0.00  0.00    -0.180 NA
ATOM      9  C   UNL     1      34.820 -18.587 -22.825  0.00  0.00    +0.018 C 
ATOM     10  C   UNL     1      34.366 -17.603 -23.669  0.00  0.00    +0.063 C 
ATOM     11  C   UNL     1      34.738 -19.769 -23.587  0.00  0.00    +0.115 C 
ATOM     12  H   UNL     1      33.696 -17.755 -25.625  0.00  0.00    +0.174 HD
BRANCH   9  13
ATOM     13  C   UNL     1      35.291 -18.451 -21.436  0.00  0.00    +0.056 C 
BRANCH  13  15
ATOM     14  N   UNL     1      34.730 -21.973 -19.001  0.00  0.00    -0.242 NA
ATOM     15  C   UNL     1      35.093 -19.693 -20.577  0.00  0.00    -0.015 C 
ATOM     16  C   UNL     1      36.194 -20.352 -20.040  0.00  0.00    +0.017 C 
ATOM     17  C   UNL     1      33.812 -20.173 -20.328  0.00  0.00    +0.017 C 
ATOM     18  C   UNL     1      35.960 -21.477 -19.266  0.00  0.00    +0.099 C 
ATOM     19  C   UNL     1      33.686 -21.306 -19.540  0.00  0.00    +0.099 C 
ENDBRANCH  13  15
ENDBRANCH   9  13
ENDBRANCH   1  10
BRANCH   4  20
ATOM     20  O   UNL     1      33.748 -12.083 -22.939  0.00  0.00    -0.468 OA
BRANCH  20  21
ATOM     21  C   UNL     1      34.171 -11.246 -24.007  0.00  0.00    +0.264 C 
BRANCH  21  23
ATOM     22  N   UNL     1      32.662  -9.509 -23.257  0.00  0.00    -0.406 NA
ATOM     23  C   UNL     1      33.918  -9.819 -23.650  0.00  0.00    +0.152 C 
ATOM     24  C   UNL     1      33.383  -7.227 -22.981  0.00  0.00    +0.026 C 
ATOM     25  C   UNL     1      32.395  -8.232 -22.927  0.00  0.00    +0.113 C 
ATOM     26  C   UNL     1      34.949  -8.907 -23.735  0.00  0.00    +0.031 C 
ATOM     27  C   UNL     1      34.672  -7.591 -23.394  0.00  0.00    +0.005 C 
ATOM     28  C   UNL     1      33.069  -5.904 -22.628  0.00  0.00    +0.002 C 
ATOM     29  C   UNL     1      31.114  -7.869 -22.517  0.00  0.00    +0.085 C 
ATOM     30  C   UNL     1      31.780  -5.569 -22.222  0.00  0.00    -0.004 C 
ATOM     31  C   UNL     1      30.802  -6.554 -22.166  0.00  0.00    -0.019 C 
ENDBRANCH  21  23
ENDBRANCH  20  21
ENDBRANCH   4  20
TORSDOF 6
ENDMDL
MODEL 9
REMARK VINA RESULT:     -11.2      2.270      4.300
REMARK  Name = 44141871
REMARK  6 active torsions:
REMARK  status: ('A' for Active; 'I' for Inactive)
REMARK    1  A    between atoms: C_1  and  C_10
REMARK    2  A    between atoms: C_4  and  O_20
REMARK    3  A    between atoms: C_9  and  C_13
REMARK    4  A    between atoms: C_13  and  C_15
REMARK    5  A    between atoms: O_20  and  C_21
REMARK    6  A    between atoms: C_21  and  C_23
REMARK                            x       y       z     vdW  Elec       q    Type
REMARK                         _______ _______ _______ _____ _____    ______ ____
ROOT
ATOM      1  C   UNL     1      35.143 -20.614 -20.035  0.00  0.00    +0.015 C 
ATOM      2  C   UNL     1      35.732 -21.607 -19.252  0.00  0.00    +0.004 C 
ATOM      3  C   UNL     1      33.754 -20.510 -20.099  0.00  0.00    +0.004 C 
ATOM      4  C   UNL     1      33.542 -22.389 -18.596  0.00  0.00    +0.139 C 
ATOM      5  C   UNL     1      34.932 -22.494 -18.532  0.00  0.00    +0.037 C 
ATOM      6  C   UNL     1      32.954 -21.397 -19.379  0.00  0.00    +0.037 C 
ENDROOT
BRANCH   1  10
ATOM      7  N   UNL     1      37.220 -19.336 -20.368  0.00  0.00    -0.236 N 
ATOM      8  N   UNL     1      37.835 -18.471 -21.194  0.00  0.00    -0.180 NA
ATOM      9  C   UNL     1      35.751 -19.021 -21.955  0.00  0.00    +0.018 C 
ATOM     10  C   UNL     1      35.971 -19.697 -20.779  0.00  0.00    +0.063 C 
ATOM     11  C   UNL     1      36.933 -18.282 -22.161  0.00  0.00    +0.115 C 
ATOM     12  H   UNL     1      37.635 -19.678 -19.543  0.00  0.00    +0.174 HD
BRANCH   9  13
ATOM     13  C   UNL     1      34.556 -19.052 -22.814  0.00  0.00    +0.056 C 
BRANCH  13  15
ATOM     14  N   UNL     1      33.729 -15.346 -24.871  0.00  0.00    -0.242 NA
ATOM     15  C   UNL     1      34.264 -17.745 -23.540  0.00  0.00    -0.015 C 
ATOM     16  C   UNL     1      34.623 -16.532 -22.962  0.00  0.00    +0.017 C 
ATOM     17  C   UNL     1      33.639 -17.760 -24.781  0.00  0.00    +0.017 C 
ATOM     18  C   UNL     1      34.335 -15.372 -23.662  0.00  0.00    +0.099 C 
ATOM     19  C   UNL     1      33.395 -16.545 -25.400  0.00  0.00    +0.099 C 
ENDBRANCH  13  15
ENDBRANCH   9  13
ENDBRANCH   1  10
BRANCH   4  20
ATOM     20  O   UNL     1      32.756 -23.258 -17.887  0.00  0.00    -0.468 OA
BRANCH  20  21
ATOM     21  C   UNL     1      32.083 -22.732 -16.750  0.00  0.00    +0.264 C 
BRANCH  21  23
ATOM     22  N   UNL     1      34.026 -23.649 -15.635  0.00  0.00    -0.406 NA
ATOM     23  C   UNL     1      32.749 -23.223 -15.508  0.00  0.00    +0.152 C 
ATOM     24  C   UNL     1      34.028 -24.136 -13.276  0.00  0.00    +0.026 C 
ATOM     25  C   UNL     1      34.659 -24.100 -14.536  0.00  0.00    +0.113 C 
ATOM     26  C   UNL     1      32.049 -23.221 -14.319  0.00  0.00    +0.031 C 
ATOM     27  C   UNL     1      32.704 -23.686 -13.188  0.00  0.00    +0.005 C 
ATOM     28  C   UNL     1      34.720 -24.613 -12.149  0.00  0.00    +0.002 C 
ATOM     29  C   UNL     1      35.975 -24.548 -14.623  0.00  0.00    +0.085 C 
ATOM     30  C   UNL     1      36.035 -25.055 -12.264  0.00  0.00    -0.004 C 
ATOM     31  C   UNL     1      36.663 -25.022 -13.503  0.00  0.00    -0.019 C 
ENDBRANCH  21  23
ENDBRANCH  20  21
ENDBRANCH   4  20
TORSDOF 6
ENDMDL
