MODEL 1
REMARK VINA RESULT:     -11.7      0.000      0.000
REMARK  Name = 16040289
REMARK  6 active torsions:
REMARK  status: ('A' for Active; 'I' for Inactive)
REMARK    1  A    between atoms: N_2  and  C_20
REMARK    2  A    between atoms: C_3  and  C_6
REMARK    3  A    between atoms: N_11  and  C_13
REMARK    4  A    between atoms: C_13  and  C_15
REMARK    5  A    between atoms: C_23  and  O_26
REMARK    6  A    between atoms: O_26  and  C_27
REMARK                            x       y       z     vdW  Elec       q    Type
REMARK                         _______ _______ _______ _____ _____    ______ ____
ROOT
ATOM      1  O   UNL     1      33.770 -23.898 -18.534  0.00  0.00    -0.270 OA
ATOM      2  N   UNL     1      33.401 -21.599 -18.210  0.00  0.00    -0.280 N 
ATOM      3  C   UNL     1      33.374 -22.955 -17.858  0.00  0.00    +0.252 C 
ATOM      4  H   UNL     1      33.039 -20.973 -17.542  0.00  0.00    +0.155 HD
ENDROOT
BRANCH   3   6
ATOM      5  N   UNL     1      33.019 -23.657 -14.188  0.00  0.00    -0.229 NA
ATOM      6  C   UNL     1      32.772 -23.257 -16.533  0.00  0.00    +0.085 C 
ATOM      7  C   UNL     1      33.540 -23.381 -15.405  0.00  0.00    +0.133 C 
ATOM      8  C   UNL     1      31.407 -23.415 -16.458  0.00  0.00    +0.009 C 
ATOM      9  C   UNL     1      30.834 -23.699 -15.224  0.00  0.00    +0.021 C 
ATOM     10  C   UNL     1      31.677 -23.809 -14.128  0.00  0.00    +0.100 C 
ATOM     11  N   UNL     1      34.944 -23.214 -15.500  0.00  0.00    -0.314 N 
ATOM     12  H   UNL     1      35.337 -23.012 -16.380  0.00  0.00    +0.149 HD
BRANCH  11  13
ATOM     13  C   UNL     1      35.810 -23.327 -14.373  0.00  0.00    +0.115 C 
BRANCH  13  15
ATOM     14  N   UNL     1      38.090 -26.950 -14.589  0.00  0.00    -0.242 NA
ATOM     15  C   UNL     1      36.610 -24.599 -14.448  0.00  0.00    +0.000 C 
ATOM     16  C   UNL     1      35.971 -25.795 -14.725  0.00  0.00    +0.018 C 
ATOM     17  C   UNL     1      37.978 -24.560 -14.241  0.00  0.00    +0.018 C 
ATOM     18  C   UNL     1      36.752 -26.937 -14.784  0.00  0.00    +0.099 C 
ATOM     19  C   UNL     1      38.670 -25.759 -14.323  0.00  0.00    +0.099 C 
ENDBRANCH  13  15
ENDBRANCH  11  13
ENDBRANCH   3   6
BRANCH   2  20
ATOM     20  C   UNL     1      33.879 -21.027 -19.389  0.00  0.00    +0.051 C 
ATOM     21  C   UNL     1      32.986 -20.483 -20.312  0.00  0.00    +0.018 C 
ATOM     22  C   UNL     1      35.250 -21.000 -19.645  0.00  0.00    +0.018 C 
ATOM     23  C   UNL     1      34.834 -19.883 -21.748  0.00  0.00    +0.145 C 
ATOM     24  C   UNL     1      33.464 -19.911 -21.492  0.00  0.00    +0.039 C 
ATOM     25  C   UNL     1      35.728 -20.427 -20.825  0.00  0.00    +0.039 C 
BRANCH  23  26
ATOM     26  O   UNL     1      35.301 -19.327 -22.899  0.00  0.00    -0.453 OA
BRANCH  26  27
ATOM     27  C   UNL     1      34.900 -18.036 -23.199  0.00  0.00    +0.145 C 
ATOM     28  C   UNL     1      34.211 -17.802 -24.376  0.00  0.00    +0.037 C 
ATOM     29  C   UNL     1      35.198 -17.015 -22.315  0.00  0.00    +0.037 C 
ATOM     30  C   UNL     1      33.808 -16.501 -24.679  0.00  0.00    +0.003 C 
ATOM     31  C   UNL     1      34.794 -15.714 -22.619  0.00  0.00    +0.003 C 
ATOM     32  C   UNL     1      34.099 -15.458 -23.800  0.00  0.00    +0.000 C 
ENDBRANCH  26  27
ENDBRANCH  23  26
ENDBRANCH   2  20
TORSDOF 6
ENDMDL
MODEL 2
REMARK VINA RESULT:     -11.5      0.978      1.455
REMARK  Name = 16040289
REMARK  6 active torsions:
REMARK  status: ('A' for Active; 'I' for Inactive)
REMARK    1  A    between atoms: N_2  and  C_20
REMARK    2  A    between atoms: C_3  and  C_6
REMARK    3  A    between atoms: N_11  and  C_13
REMARK    4  A    between atoms: C_13  and  C_15
REMARK    5  A    between atoms: C_23  and  O_26
REMARK    6  A    between atoms: O_26  and  C_27
REMARK                            x       y       z     vdW  Elec       q    Type
REMARK                         _______ _______ _______ _____ _____    ______ ____
ROOT
ATOM      1  O   UNL     1      34.218 -23.606 -17.409  0.00  0.00    -0.270 OA
ATOM      2  N   UNL     1      32.817 -21.824 -18.032  0.00  0.00    -0.280 N 
ATOM      3  C   UNL     1      33.207 -22.928 -17.263  0.00  0.00    +0.252 C 
ATOM      4  H   UNL     1      31.969 -21.396 -17.772  0.00  0.00    +0.155 HD
ENDROOT
BRANCH   3   6
ATOM      5  N   UNL     1      31.877 -23.991 -13.918  0.00  0.00    -0.229 NA
ATOM      6  C   UNL     1      32.267 -23.313 -16.178  0.00  0.00    +0.085 C 
ATOM      7  C   UNL     1      32.709 -23.636 -14.922  0.00  0.00    +0.133 C 
ATOM      8  C   UNL     1      30.920 -23.341 -16.462  0.00  0.00    +0.009 C 
ATOM      9  C   UNL     1      30.032 -23.701 -15.455  0.00  0.00    +0.021 C 
ATOM     10  C   UNL     1      30.557 -24.015 -14.210  0.00  0.00    +0.100 C 
ATOM     11  N   UNL     1      34.099 -23.601 -14.647  0.00  0.00    -0.314 N 
ATOM     12  H   UNL     1      34.717 -23.343 -15.368  0.00  0.00    +0.149 HD
BRANCH  11  13
ATOM     13  C   UNL     1      34.637 -23.923 -13.366  0.00  0.00    +0.115 C 
BRANCH  13  15
ATOM     14  N   UNL     1      37.532 -27.066 -13.706  0.00  0.00    -0.242 NA
ATOM     15  C   UNL     1      35.654 -25.026 -13.485  0.00  0.00    +0.000 C 
ATOM     16  C   UNL     1      36.398 -25.395 -12.378  0.00  0.00    +0.018 C 
ATOM     17  C   UNL     1      35.834 -25.661 -14.701  0.00  0.00    +0.018 C 
ATOM     18  C   UNL     1      37.320 -26.415 -12.540  0.00  0.00    +0.099 C 
ATOM     19  C   UNL     1      36.781 -26.672 -14.759  0.00  0.00    +0.099 C 
ENDBRANCH  13  15
ENDBRANCH  11  13
ENDBRANCH   3   6
BRANCH   2  20
ATOM     20  C   UNL     1      33.480 -21.257 -19.120  0.00  0.00    +0.051 C 
ATOM     21  C   UNL     1      34.868 -21.359 -19.222  0.00  0.00    +0.018 C 
ATOM     22  C   UNL     1      32.755 -20.588 -20.106  0.00  0.00    +0.018 C 
ATOM     23  C   UNL     1      34.807 -20.122 -21.297  0.00  0.00    +0.145 C 
ATOM     24  C   UNL     1      35.531 -20.792 -20.311  0.00  0.00    +0.039 C 
ATOM     25  C   UNL     1      33.419 -20.020 -21.195  0.00  0.00    +0.039 C 
BRANCH  23  26
ATOM     26  O   UNL     1      35.454 -19.568 -22.357  0.00  0.00    -0.453 OA
BRANCH  26  27
ATOM     27  C   UNL     1      35.050 -18.309 -22.771  0.00  0.00    +0.145 C 
ATOM     28  C   UNL     1      34.451 -18.168 -24.011  0.00  0.00    +0.037 C 
ATOM     29  C   UNL     1      35.257 -17.226 -21.936  0.00  0.00    +0.037 C 
ATOM     30  C   UNL     1      34.046 -16.900 -24.428  0.00  0.00    +0.003 C 
ATOM     31  C   UNL     1      34.852 -15.958 -22.354  0.00  0.00    +0.003 C 
ATOM     32  C   UNL     1      34.247 -15.796 -23.600  0.00  0.00    +0.000 C 
ENDBRANCH  26  27
ENDBRANCH  23  26
ENDBRANCH   2  20
TORSDOF 6
ENDMDL
MODEL 3
REMARK VINA RESULT:     -11.0      1.548      2.065
REMARK  Name = 16040289
REMARK  6 active torsions:
REMARK  status: ('A' for Active; 'I' for Inactive)
REMARK    1  A    between atoms: N_2  and  C_20
REMARK    2  A    between atoms: C_3  and  C_6
REMARK    3  A    between atoms: N_11  and  C_13
REMARK    4  A    between atoms: C_13  and  C_15
REMARK    5  A    between atoms: C_23  and  O_26
REMARK    6  A    between atoms: O_26  and  C_27
REMARK                            x       y       z     vdW  Elec       q    Type
REMARK                         _______ _______ _______ _____ _____    ______ ____
ROOT
ATOM      1  O   UNL     1      34.131 -24.033 -16.620  0.00  0.00    -0.270 OA
ATOM      2  N   UNL     1      32.735 -22.296 -17.372  0.00  0.00    -0.280 N 
ATOM      3  C   UNL     1      33.100 -23.372 -16.551  0.00  0.00    +0.252 C 
ATOM      4  H   UNL     1      31.866 -21.879 -17.173  0.00  0.00    +0.155 HD
ENDROOT
BRANCH   3   6
ATOM      5  N   UNL     1      31.595 -24.370 -13.261  0.00  0.00    -0.229 NA
ATOM      6  C   UNL     1      32.105 -23.748 -15.513  0.00  0.00    +0.085 C 
ATOM      7  C   UNL     1      32.479 -24.024 -14.225  0.00  0.00    +0.133 C 
ATOM      8  C   UNL     1      30.780 -23.816 -15.876  0.00  0.00    +0.009 C 
ATOM      9  C   UNL     1      29.841 -24.168 -14.913  0.00  0.00    +0.021 C 
ATOM     10  C   UNL     1      30.296 -24.434 -13.631  0.00  0.00    +0.100 C 
ATOM     11  N   UNL     1      33.848 -23.948 -13.868  0.00  0.00    -0.314 N 
ATOM     12  H   UNL     1      34.503 -23.696 -14.559  0.00  0.00    +0.149 HD
BRANCH  11  13
ATOM     13  C   UNL     1      34.316 -24.221 -12.549  0.00  0.00    +0.115 C 
BRANCH  13  15
ATOM     14  N   UNL     1      38.598 -24.388 -12.479  0.00  0.00    -0.242 NA
ATOM     15  C   UNL     1      35.819 -24.281 -12.525  0.00  0.00    +0.000 C 
ATOM     16  C   UNL     1      36.493 -24.980 -13.510  0.00  0.00    +0.018 C 
ATOM     17  C   UNL     1      36.513 -23.634 -11.516  0.00  0.00    +0.018 C 
ATOM     18  C   UNL     1      37.876 -25.004 -13.443  0.00  0.00    +0.099 C 
ATOM     19  C   UNL     1      37.896 -23.717 -11.539  0.00  0.00    +0.099 C 
ENDBRANCH  13  15
ENDBRANCH  11  13
ENDBRANCH   3   6
BRANCH   2  20
ATOM     20  C   UNL     1      33.451 -21.744 -18.434  0.00  0.00    +0.051 C 
ATOM     21  C   UNL     1      32.781 -21.048 -19.440  0.00  0.00    +0.018 C 
ATOM     22  C   UNL     1      34.838 -21.889 -18.490  0.00  0.00    +0.018 C 
ATOM     23  C   UNL     1      34.884 -20.641 -20.559  0.00  0.00    +0.145 C 
ATOM     24  C   UNL     1      33.498 -20.496 -20.502  0.00  0.00    +0.039 C 
ATOM     25  C   UNL     1      35.554 -21.337 -19.553  0.00  0.00    +0.039 C 
BRANCH  23  26
ATOM     26  O   UNL     1      35.582 -20.104 -21.596  0.00  0.00    -0.453 OA
BRANCH  26  27
ATOM     27  C   UNL     1      35.275 -18.809 -21.978  0.00  0.00    +0.145 C 
ATOM     28  C   UNL     1      35.406 -17.786 -21.055  0.00  0.00    +0.037 C 
ATOM     29  C   UNL     1      34.845 -18.572 -23.271  0.00  0.00    +0.037 C 
ATOM     30  C   UNL     1      35.096 -16.481 -21.440  0.00  0.00    +0.003 C 
ATOM     31  C   UNL     1      34.535 -17.267 -23.655  0.00  0.00    +0.003 C 
ATOM     32  C   UNL     1      34.660 -16.222 -22.739  0.00  0.00    +0.000 C 
ENDBRANCH  26  27
ENDBRANCH  23  26
ENDBRANCH   2  20
TORSDOF 6
ENDMDL
MODEL 4
REMARK VINA RESULT:     -10.2      1.810      4.604
REMARK  Name = 16040289
REMARK  6 active torsions:
REMARK  status: ('A' for Active; 'I' for Inactive)
REMARK    1  A    between atoms: N_2  and  C_20
REMARK    2  A    between atoms: C_3  and  C_6
REMARK    3  A    between atoms: N_11  and  C_13
REMARK    4  A    between atoms: C_13  and  C_15
REMARK    5  A    between atoms: C_23  and  O_26
REMARK    6  A    between atoms: O_26  and  C_27
REMARK                            x       y       z     vdW  Elec       q    Type
REMARK                         _______ _______ _______ _____ _____    ______ ____
ROOT
ATOM      1  O   UNL     1      36.950 -21.529 -15.782  0.00  0.00    -0.270 OA
ATOM      2  N   UNL     1      35.388 -23.031 -16.692  0.00  0.00    -0.280 N 
ATOM      3  C   UNL     1      36.363 -22.606 -15.782  0.00  0.00    +0.252 C 
ATOM      4  H   UNL     1      35.020 -23.933 -16.541  0.00  0.00    +0.155 HD
ENDROOT
BRANCH   3   6
ATOM      5  N   UNL     1      36.103 -24.972 -12.880  0.00  0.00    -0.229 NA
ATOM      6  C   UNL     1      36.727 -23.591 -14.730  0.00  0.00    +0.085 C 
ATOM      7  C   UNL     1      35.799 -24.077 -13.846  0.00  0.00    +0.133 C 
ATOM      8  C   UNL     1      38.034 -24.014 -14.658  0.00  0.00    +0.009 C 
ATOM      9  C   UNL     1      38.385 -24.935 -13.677  0.00  0.00    +0.021 C 
ATOM     10  C   UNL     1      37.391 -25.379 -12.819  0.00  0.00    +0.100 C 
ATOM     11  N   UNL     1      34.457 -23.631 -13.936  0.00  0.00    -0.314 N 
ATOM     12  H   UNL     1      34.221 -22.980 -14.636  0.00  0.00    +0.149 HD
BRANCH  11  13
ATOM     13  C   UNL     1      33.434 -24.089 -13.053  0.00  0.00    +0.115 C 
BRANCH  13  15
ATOM     14  N   UNL     1      29.687 -24.362 -15.116  0.00  0.00    -0.242 NA
ATOM     15  C   UNL     1      32.119 -24.186 -13.777  0.00  0.00    +0.000 C 
ATOM     16  C   UNL     1      31.176 -25.111 -13.365  0.00  0.00    +0.018 C 
ATOM     17  C   UNL     1      31.865 -23.347 -14.849  0.00  0.00    +0.018 C 
ATOM     18  C   UNL     1      29.982 -25.160 -14.065  0.00  0.00    +0.099 C 
ATOM     19  C   UNL     1      30.638 -23.474 -15.482  0.00  0.00    +0.099 C 
ENDBRANCH  13  15
ENDBRANCH  11  13
ENDBRANCH   3   6
BRANCH   2  20
ATOM     20  C   UNL     1      34.872 -22.337 -17.786  0.00  0.00    +0.051 C 
ATOM     21  C   UNL     1      35.736 -21.779 -18.729  0.00  0.00    +0.018 C 
ATOM     22  C   UNL     1      33.492 -22.199 -17.937  0.00  0.00    +0.018 C 
ATOM     23  C   UNL     1      33.840 -20.947 -19.975  0.00  0.00    +0.145 C 
ATOM     24  C   UNL     1      35.220 -21.085 -19.824  0.00  0.00    +0.039 C 
ATOM     25  C   UNL     1      32.976 -21.504 -19.032  0.00  0.00    +0.039 C 
BRANCH  23  26
ATOM     26  O   UNL     1      33.337 -20.268 -21.041  0.00  0.00    -0.453 OA
BRANCH  26  27
ATOM     27  C   UNL     1      34.138 -19.303 -21.626  0.00  0.00    +0.145 C 
ATOM     28  C   UNL     1      34.837 -18.425 -20.816  0.00  0.00    +0.037 C 
ATOM     29  C   UNL     1      34.219 -19.240 -23.006  0.00  0.00    +0.037 C 
ATOM     30  C   UNL     1      35.644 -17.451 -21.406  0.00  0.00    +0.003 C 
ATOM     31  C   UNL     1      35.026 -18.266 -23.596  0.00  0.00    +0.003 C 
ATOM     32  C   UNL     1      35.738 -17.373 -22.796  0.00  0.00    +0.000 C 
ENDBRANCH  26  27
ENDBRANCH  23  26
ENDBRANCH   2  20
TORSDOF 6
ENDMDL
MODEL 5
REMARK VINA RESULT:      -9.8      3.471     10.472
REMARK  Name = 16040289
REMARK  6 active torsions:
REMARK  status: ('A' for Active; 'I' for Inactive)
REMARK    1  A    between atoms: N_2  and  C_20
REMARK    2  A    between atoms: C_3  and  C_6
REMARK    3  A    between atoms: N_11  and  C_13
REMARK    4  A    between atoms: C_13  and  C_15
REMARK    5  A    between atoms: C_23  and  O_26
REMARK    6  A    between atoms: O_26  and  C_27
REMARK                            x       y       z     vdW  Elec       q    Type
REMARK                         _______ _______ _______ _____ _____    ______ ____
ROOT
ATOM      1  O   UNL     1      35.397 -17.934 -20.624  0.00  0.00    -0.270 OA
ATOM      2  N   UNL     1      34.289 -19.895 -21.296  0.00  0.00    -0.280 N 
ATOM      3  C   UNL     1      34.785 -18.595 -21.456  0.00  0.00    +0.252 C 
ATOM      4  H   UNL     1      33.819 -20.276 -22.073  0.00  0.00    +0.155 HD
ENDROOT
BRANCH   3   6
ATOM      5  N   UNL     1      34.313 -16.004 -24.130  0.00  0.00    -0.229 NA
ATOM      6  C   UNL     1      34.505 -17.963 -22.771  0.00  0.00    +0.085 C 
ATOM      7  C   UNL     1      34.565 -16.606 -22.946  0.00  0.00    +0.133 C 
ATOM      8  C   UNL     1      34.178 -18.780 -23.830  0.00  0.00    +0.009 C 
ATOM      9  C   UNL     1      33.912 -18.198 -25.065  0.00  0.00    +0.021 C 
ATOM     10  C   UNL     1      33.993 -16.818 -25.161  0.00  0.00    +0.100 C 
ATOM     11  N   UNL     1      34.904 -15.780 -21.845  0.00  0.00    -0.314 N 
ATOM     12  H   UNL     1      35.091 -16.204 -20.976  0.00  0.00    +0.149 HD
BRANCH  11  13
ATOM     13  C   UNL     1      34.987 -14.359 -21.946  0.00  0.00    +0.115 C 
BRANCH  13  15
ATOM     14  N   UNL     1      31.317 -12.547 -20.675  0.00  0.00    -0.242 NA
ATOM     15  C   UNL     1      33.698 -13.724 -21.499  0.00  0.00    +0.000 C 
ATOM     16  C   UNL     1      33.119 -14.114 -20.304  0.00  0.00    +0.018 C 
ATOM     17  C   UNL     1      33.105 -12.754 -22.289  0.00  0.00    +0.018 C 
ATOM     18  C   UNL     1      31.934 -13.499 -19.938  0.00  0.00    +0.099 C 
ATOM     19  C   UNL     1      31.919 -12.198 -21.833  0.00  0.00    +0.099 C 
ENDBRANCH  13  15
ENDBRANCH  11  13
ENDBRANCH   3   6
BRANCH   2  20
ATOM     20  C   UNL     1      34.379 -20.717 -20.172  0.00  0.00    +0.051 C 
ATOM     21  C   UNL     1      35.629 -21.064 -19.659  0.00  0.00    +0.018 C 
ATOM     22  C   UNL     1      33.217 -21.192 -19.562  0.00  0.00    +0.018 C 
ATOM     23  C   UNL     1      34.557 -22.361 -17.925  0.00  0.00    +0.145 C 
ATOM     24  C   UNL     1      35.717 -21.886 -18.535  0.00  0.00    +0.039 C 
ATOM     25  C   UNL     1      33.307 -22.014 -18.438  0.00  0.00    +0.039 C 
BRANCH  23  26
ATOM     26  O   UNL     1      34.643 -23.165 -16.830  0.00  0.00    -0.453 OA
BRANCH  26  27
ATOM     27  C   UNL     1      33.540 -23.240 -15.997  0.00  0.00    +0.145 C 
ATOM     28  C   UNL     1      33.731 -23.271 -14.627  0.00  0.00    +0.037 C 
ATOM     29  C   UNL     1      32.275 -23.282 -16.556  0.00  0.00    +0.037 C 
ATOM     30  C   UNL     1      32.619 -23.347 -13.788  0.00  0.00    +0.003 C 
ATOM     31  C   UNL     1      31.163 -23.359 -15.716  0.00  0.00    +0.003 C 
ATOM     32  C   UNL     1      31.336 -23.391 -14.333  0.00  0.00    +0.000 C 
ENDBRANCH  26  27
ENDBRANCH  23  26
ENDBRANCH   2  20
TORSDOF 6
ENDMDL
MODEL 6
REMARK VINA RESULT:      -9.3      7.920     14.632
REMARK  Name = 16040289
REMARK  6 active torsions:
REMARK  status: ('A' for Active; 'I' for Inactive)
REMARK    1  A    between atoms: N_2  and  C_20
REMARK    2  A    between atoms: C_3  and  C_6
REMARK    3  A    between atoms: N_11  and  C_13
REMARK    4  A    between atoms: C_13  and  C_15
REMARK    5  A    between atoms: C_23  and  O_26
REMARK    6  A    between atoms: O_26  and  C_27
REMARK                            x       y       z     vdW  Elec       q    Type
REMARK                         _______ _______ _______ _____ _____    ______ ____
ROOT
ATOM      1  O   UNL     1      34.218 -10.621 -24.130  0.00  0.00    -0.270 OA
ATOM      2  N   UNL     1      33.065 -12.040 -22.652  0.00  0.00    -0.280 N 
ATOM      3  C   UNL     1      33.412 -10.810 -23.225  0.00  0.00    +0.252 C 
ATOM      4  H   UNL     1      32.396 -12.006 -21.930  0.00  0.00    +0.155 HD
ENDROOT
BRANCH   3   6
ATOM      5  N   UNL     1      32.739  -7.286 -22.122  0.00  0.00    -0.229 NA
ATOM      6  C   UNL     1      32.740  -9.621 -22.639  0.00  0.00    +0.085 C 
ATOM      7  C   UNL     1      33.327  -8.384 -22.649  0.00  0.00    +0.133 C 
ATOM      8  C   UNL     1      31.496  -9.788 -22.075  0.00  0.00    +0.009 C 
ATOM      9  C   UNL     1      30.858  -8.683 -21.523  0.00  0.00    +0.021 C 
ATOM     10  C   UNL     1      31.517  -7.464 -21.572  0.00  0.00    +0.100 C 
ATOM     11  N   UNL     1      34.609  -8.229 -23.234  0.00  0.00    -0.314 N 
ATOM     12  H   UNL     1      35.049  -9.020 -23.623  0.00  0.00    +0.149 HD
BRANCH  11  13
ATOM     13  C   UNL     1      35.286  -6.975 -23.284  0.00  0.00    +0.115 C 
BRANCH  13  15
ATOM     14  N   UNL     1      33.730  -4.553 -26.460  0.00  0.00    -0.242 NA
ATOM     15  C   UNL     1      34.739  -6.125 -24.398  0.00  0.00    +0.000 C 
ATOM     16  C   UNL     1      33.418  -5.714 -24.363  0.00  0.00    +0.018 C 
ATOM     17  C   UNL     1      35.564  -5.762 -25.449  0.00  0.00    +0.018 C 
ATOM     18  C   UNL     1      32.964  -4.934 -25.412  0.00  0.00    +0.099 C 
ATOM     19  C   UNL     1      35.013  -4.978 -26.451  0.00  0.00    +0.099 C 
ENDBRANCH  13  15
ENDBRANCH  11  13
ENDBRANCH   3   6
BRANCH   2  20
ATOM     20  C   UNL     1      33.549 -13.307 -22.978  0.00  0.00    +0.051 C 
ATOM     21  C   UNL     1      33.368 -13.814 -24.265  0.00  0.00    +0.018 C 
ATOM     22  C   UNL     1      34.213 -14.068 -22.015  0.00  0.00    +0.018 C 
ATOM     23  C   UNL     1      34.517 -15.842 -23.628  0.00  0.00    +0.145 C 
ATOM     24  C   UNL     1      33.853 -15.081 -24.590  0.00  0.00    +0.039 C 
ATOM     25  C   UNL     1      34.698 -15.335 -22.341  0.00  0.00    +0.039 C 
BRANCH  23  26
ATOM     26  O   UNL     1      34.987 -17.079 -23.945  0.00  0.00    -0.453 OA
BRANCH  26  27
ATOM     27  C   UNL     1      35.162 -17.985 -22.913  0.00  0.00    +0.145 C 
ATOM     28  C   UNL     1      36.357 -17.990 -22.215  0.00  0.00    +0.037 C 
ATOM     29  C   UNL     1      34.138 -18.862 -22.605  0.00  0.00    +0.037 C 
ATOM     30  C   UNL     1      36.534 -18.904 -21.176  0.00  0.00    +0.003 C 
ATOM     31  C   UNL     1      34.314 -19.776 -21.566  0.00  0.00    +0.003 C 
ATOM     32  C   UNL     1      35.512 -19.796 -20.852  0.00  0.00    +0.000 C 
ENDBRANCH  26  27
ENDBRANCH  23  26
ENDBRANCH   2  20
TORSDOF 6
ENDMDL
MODEL 7
REMARK VINA RESULT:      -9.2      9.025     15.726
REMARK  Name = 16040289
REMARK  6 active torsions:
REMARK  status: ('A' for Active; 'I' for Inactive)
REMARK    1  A    between atoms: N_2  and  C_20
REMARK    2  A    between atoms: C_3  and  C_6
REMARK    3  A    between atoms: N_11  and  C_13
REMARK    4  A    between atoms: C_13  and  C_15
REMARK    5  A    between atoms: C_23  and  O_26
REMARK    6  A    between atoms: O_26  and  C_27
REMARK                            x       y       z     vdW  Elec       q    Type
REMARK                         _______ _______ _______ _____ _____    ______ ____
ROOT
ATOM      1  O   UNL     1      34.413  -8.831 -23.600  0.00  0.00    -0.270 OA
ATOM      2  N   UNL     1      32.823 -10.290 -22.669  0.00  0.00    -0.280 N 
ATOM      3  C   UNL     1      33.474  -9.063 -22.846  0.00  0.00    +0.252 C 
ATOM      4  H   UNL     1      32.084 -10.296 -22.017  0.00  0.00    +0.155 HD
ENDROOT
BRANCH   3   6
ATOM      5  N   UNL     1      32.222  -5.688 -21.785  0.00  0.00    -0.229 NA
ATOM      6  C   UNL     1      32.975  -7.948 -22.001  0.00  0.00    +0.085 C 
ATOM      7  C   UNL     1      32.676  -6.720 -22.531  0.00  0.00    +0.133 C 
ATOM      8  C   UNL     1      32.815  -8.173 -20.653  0.00  0.00    +0.009 C 
ATOM      9  C   UNL     1      32.349  -7.136 -19.852  0.00  0.00    +0.021 C 
ATOM     10  C   UNL     1      32.070  -5.923 -20.462  0.00  0.00    +0.100 C 
ATOM     11  N   UNL     1      32.846  -6.506 -23.921  0.00  0.00    -0.314 N 
ATOM     12  H   UNL     1      33.175  -7.249 -24.477  0.00  0.00    +0.149 HD
BRANCH  11  13
ATOM     13  C   UNL     1      32.558  -5.257 -24.548  0.00  0.00    +0.115 C 
BRANCH  13  15
ATOM     14  N   UNL     1      35.728  -4.145 -27.209  0.00  0.00    -0.242 NA
ATOM     15  C   UNL     1      33.671  -4.867 -25.481  0.00  0.00    +0.000 C 
ATOM     16  C   UNL     1      34.907  -5.479 -25.368  0.00  0.00    +0.018 C 
ATOM     17  C   UNL     1      33.447  -3.899 -26.446  0.00  0.00    +0.018 C 
ATOM     18  C   UNL     1      35.898  -5.085 -26.251  0.00  0.00    +0.099 C 
ATOM     19  C   UNL     1      34.504  -3.576 -27.282  0.00  0.00    +0.099 C 
ENDBRANCH  13  15
ENDBRANCH  11  13
ENDBRANCH   3   6
BRANCH   2  20
ATOM     20  C   UNL     1      33.090 -11.505 -23.300  0.00  0.00    +0.051 C 
ATOM     21  C   UNL     1      33.636 -11.518 -24.584  0.00  0.00    +0.018 C 
ATOM     22  C   UNL     1      32.809 -12.706 -22.649  0.00  0.00    +0.018 C 
ATOM     23  C   UNL     1      33.623 -13.935 -24.564  0.00  0.00    +0.145 C 
ATOM     24  C   UNL     1      33.904 -12.734 -25.215  0.00  0.00    +0.039 C 
ATOM     25  C   UNL     1      33.076 -13.921 -23.281  0.00  0.00    +0.039 C 
BRANCH  23  26
ATOM     26  O   UNL     1      33.881 -15.120 -25.180  0.00  0.00    -0.453 OA
BRANCH  26  27
ATOM     27  C   UNL     1      34.221 -16.200 -24.383  0.00  0.00    +0.145 C 
ATOM     28  C   UNL     1      33.769 -17.461 -24.729  0.00  0.00    +0.037 C 
ATOM     29  C   UNL     1      35.004 -15.991 -23.262  0.00  0.00    +0.037 C 
ATOM     30  C   UNL     1      34.111 -18.549 -23.926  0.00  0.00    +0.003 C 
ATOM     31  C   UNL     1      35.345 -17.079 -22.458  0.00  0.00    +0.003 C 
ATOM     32  C   UNL     1      34.899 -18.357 -22.791  0.00  0.00    +0.000 C 
ENDBRANCH  26  27
ENDBRANCH  23  26
ENDBRANCH   2  20
TORSDOF 6
ENDMDL
MODEL 8
REMARK VINA RESULT:      -9.0      3.196     10.355
REMARK  Name = 16040289
REMARK  6 active torsions:
REMARK  status: ('A' for Active; 'I' for Inactive)
REMARK    1  A    between atoms: N_2  and  C_20
REMARK    2  A    between atoms: C_3  and  C_6
REMARK    3  A    between atoms: N_11  and  C_13
REMARK    4  A    between atoms: C_13  and  C_15
REMARK    5  A    between atoms: C_23  and  O_26
REMARK    6  A    between atoms: O_26  and  C_27
REMARK                            x       y       z     vdW  Elec       q    Type
REMARK                         _______ _______ _______ _____ _____    ______ ____
ROOT
ATOM      1  O   UNL     1      35.449 -18.322 -20.520  0.00  0.00    -0.270 OA
ATOM      2  N   UNL     1      34.097 -20.160 -21.088  0.00  0.00    -0.280 N 
ATOM      3  C   UNL     1      34.744 -18.938 -21.312  0.00  0.00    +0.252 C 
ATOM      4  H   UNL     1      33.568 -20.512 -21.840  0.00  0.00    +0.155 HD
ENDROOT
BRANCH   3   6
ATOM      5  N   UNL     1      34.421 -16.403 -24.061  0.00  0.00    -0.229 NA
ATOM      6  C   UNL     1      34.514 -18.331 -22.649  0.00  0.00    +0.085 C 
ATOM      7  C   UNL     1      34.625 -16.981 -22.857  0.00  0.00    +0.133 C 
ATOM      8  C   UNL     1      34.181 -19.163 -23.694  0.00  0.00    +0.009 C 
ATOM      9  C   UNL     1      33.963 -18.605 -24.949  0.00  0.00    +0.021 C 
ATOM     10  C   UNL     1      34.094 -17.231 -25.079  0.00  0.00    +0.100 C 
ATOM     11  N   UNL     1      34.970 -16.139 -21.770  0.00  0.00    -0.314 N 
ATOM     12  H   UNL     1      35.123 -16.547 -20.887  0.00  0.00    +0.149 HD
BRANCH  11  13
ATOM     13  C   UNL     1      35.105 -14.726 -21.905  0.00  0.00    +0.115 C 
BRANCH  13  15
ATOM     14  N   UNL     1      31.488 -12.752 -20.725  0.00  0.00    -0.242 NA
ATOM     15  C   UNL     1      33.835 -14.034 -21.490  0.00  0.00    +0.000 C 
ATOM     16  C   UNL     1      33.256 -14.337 -20.270  0.00  0.00    +0.018 C 
ATOM     17  C   UNL     1      33.259 -13.099 -22.334  0.00  0.00    +0.018 C 
ATOM     18  C   UNL     1      32.089 -13.672 -19.936  0.00  0.00    +0.099 C 
ATOM     19  C   UNL     1      32.091 -12.489 -21.906  0.00  0.00    +0.099 C 
ENDBRANCH  13  15
ENDBRANCH  11  13
ENDBRANCH   3   6
BRANCH   2  20
ATOM     20  C   UNL     1      34.111 -20.939 -19.931  0.00  0.00    +0.051 C 
ATOM     21  C   UNL     1      35.322 -21.387 -19.405  0.00  0.00    +0.018 C 
ATOM     22  C   UNL     1      32.911 -21.271 -19.301  0.00  0.00    +0.018 C 
ATOM     23  C   UNL     1      34.136 -22.499 -17.618  0.00  0.00    +0.145 C 
ATOM     24  C   UNL     1      35.335 -22.167 -18.248  0.00  0.00    +0.039 C 
ATOM     25  C   UNL     1      32.924 -22.051 -18.144  0.00  0.00    +0.039 C 
BRANCH  23  26
ATOM     26  O   UNL     1      34.148 -23.261 -16.491  0.00  0.00    -0.453 OA
BRANCH  26  27
ATOM     27  C   UNL     1      35.365 -23.465 -15.864  0.00  0.00    +0.145 C 
ATOM     28  C   UNL     1      36.328 -22.473 -15.923  0.00  0.00    +0.037 C 
ATOM     29  C   UNL     1      35.589 -24.656 -15.196  0.00  0.00    +0.037 C 
ATOM     30  C   UNL     1      37.555 -22.678 -15.292  0.00  0.00    +0.003 C 
ATOM     31  C   UNL     1      36.817 -24.862 -14.566  0.00  0.00    +0.003 C 
ATOM     32  C   UNL     1      37.799 -23.873 -14.614  0.00  0.00    +0.000 C 
ENDBRANCH  26  27
ENDBRANCH  23  26
ENDBRANCH   2  20
TORSDOF 6
ENDMDL
MODEL 9
REMARK VINA RESULT:      -9.0      5.506      9.804
REMARK  Name = 16040289
REMARK  6 active torsions:
REMARK  status: ('A' for Active; 'I' for Inactive)
REMARK    1  A    between atoms: N_2  and  C_20
REMARK    2  A    between atoms: C_3  and  C_6
REMARK    3  A    between atoms: N_11  and  C_13
REMARK    4  A    between atoms: C_13  and  C_15
REMARK    5  A    between atoms: C_23  and  O_26
REMARK    6  A    between atoms: O_26  and  C_27
REMARK                            x       y       z     vdW  Elec       q    Type
REMARK                         _______ _______ _______ _____ _____    ______ ____
ROOT
ATOM      1  O   UNL     1      34.974 -14.871 -22.209  0.00  0.00    -0.270 OA
ATOM      2  N   UNL     1      33.178 -14.071 -23.498  0.00  0.00    -0.280 N 
ATOM      3  C   UNL     1      34.098 -15.029 -23.053  0.00  0.00    +0.252 C 
ATOM      4  H   UNL     1      32.541 -14.373 -24.185  0.00  0.00    +0.155 HD
ENDROOT
BRANCH   3   6
ATOM      5  N   UNL     1      34.707 -18.638 -23.885  0.00  0.00    -0.229 NA
ATOM      6  C   UNL     1      33.999 -16.361 -23.705  0.00  0.00    +0.085 C 
ATOM      7  C   UNL     1      34.775 -17.417 -23.308  0.00  0.00    +0.133 C 
ATOM      8  C   UNL     1      33.097 -16.517 -24.733  0.00  0.00    +0.009 C 
ATOM      9  C   UNL     1      32.996 -17.758 -25.351  0.00  0.00    +0.021 C 
ATOM     10  C   UNL     1      33.817 -18.778 -24.893  0.00  0.00    +0.100 C 
ATOM     11  N   UNL     1      35.699 -17.239 -22.248  0.00  0.00    -0.314 N 
ATOM     12  H   UNL     1      35.759 -16.355 -21.818  0.00  0.00    +0.149 HD
BRANCH  11  13
ATOM     13  C   UNL     1      36.542 -18.289 -21.778  0.00  0.00    +0.115 C 
BRANCH  13  15
ATOM     14  N   UNL     1      34.264 -21.173 -19.573  0.00  0.00    -0.242 NA
ATOM     15  C   UNL     1      35.742 -19.300 -21.004  0.00  0.00    +0.000 C 
ATOM     16  C   UNL     1      34.360 -19.271 -21.061  0.00  0.00    +0.018 C 
ATOM     17  C   UNL     1      36.397 -20.252 -20.241  0.00  0.00    +0.018 C 
ATOM     18  C   UNL     1      33.670 -20.224 -20.331  0.00  0.00    +0.099 C 
ATOM     19  C   UNL     1      35.616 -21.163 -19.548  0.00  0.00    +0.099 C 
ENDBRANCH  13  15
ENDBRANCH  11  13
ENDBRANCH   3   6
BRANCH   2  20
ATOM     20  C   UNL     1      33.053 -12.744 -23.088  0.00  0.00    +0.051 C 
ATOM     21  C   UNL     1      33.729 -11.735 -23.774  0.00  0.00    +0.018 C 
ATOM     22  C   UNL     1      32.252 -12.426 -21.991  0.00  0.00    +0.018 C 
ATOM     23  C   UNL     1      32.803 -10.089 -22.267  0.00  0.00    +0.145 C 
ATOM     24  C   UNL     1      33.603 -10.407 -23.364  0.00  0.00    +0.039 C 
ATOM     25  C   UNL     1      32.127 -11.098 -21.581  0.00  0.00    +0.039 C 
BRANCH  23  26
ATOM     26  O   UNL     1      32.682  -8.795 -21.866  0.00  0.00    -0.453 OA
BRANCH  26  27
ATOM     27  C   UNL     1      33.139  -7.809 -22.723  0.00  0.00    +0.145 C 
ATOM     28  C   UNL     1      34.503  -7.634 -22.883  0.00  0.00    +0.037 C 
ATOM     29  C   UNL     1      32.222  -7.023 -23.398  0.00  0.00    +0.037 C 
ATOM     30  C   UNL     1      34.964  -6.640 -23.747  0.00  0.00    +0.003 C 
ATOM     31  C   UNL     1      32.683  -6.029 -24.262  0.00  0.00    +0.003 C 
ATOM     32  C   UNL     1      34.054  -5.838 -24.436  0.00  0.00    +0.000 C 
ENDBRANCH  26  27
ENDBRANCH  23  26
ENDBRANCH   2  20
TORSDOF 6
ENDMDL
