MODEL 1
REMARK VINA RESULT:     -11.4      0.000      0.000
REMARK  Name = 11979006
REMARK  7 active torsions:
REMARK  status: ('A' for Active; 'I' for Inactive)
REMARK    1  A    between atoms: C_1  and  N_2
REMARK    2  A    between atoms: C_1  and  C_22
REMARK    3  A    between atoms: C_3  and  N_9
REMARK    4  A    between atoms: C_4  and  O_18
REMARK    5  A    between atoms: C_10  and  C_14
REMARK    6  A    between atoms: N_21  and  C_25
REMARK    7  A    between atoms: C_28  and  N_32
REMARK                            x       y       z     vdW  Elec       q    Type
REMARK                         _______ _______ _______ _____ _____    ______ ____
ROOT
ATOM      1  C   UNL     1      34.107 -17.393 -23.889  0.00  0.00    +0.010 C 
ENDROOT
BRANCH   1   2
ATOM      2  N   UNL     1      34.970 -18.179 -23.020  0.00  0.00    +0.396 N 
ATOM      3  C   UNL     1      35.277 -19.766 -21.368  0.00  0.00    +0.076 C 
ATOM      4  C   UNL     1      35.894 -18.460 -20.864  0.00  0.00    +0.106 C 
ATOM      5  C   UNL     1      34.274 -19.318 -22.422  0.00  0.00    -0.054 C 
ATOM      6  C   UNL     1      35.490 -17.400 -21.890  0.00  0.00    -0.045 C 
ATOM      7  H   UNL     1      35.723 -18.488 -23.634  0.00  0.00    -0.079 HD
BRANCH   3   9
ATOM      8  O   UNL     1      36.628 -21.422 -19.529  0.00  0.00    -0.270 OA
ATOM      9  N   UNL     1      34.663 -20.528 -20.316  0.00  0.00    -0.302 N 
ATOM     10  C   UNL     1      35.403 -21.328 -19.441  0.00  0.00    +0.252 C 
ATOM     11  H   UNL     1      33.686 -20.485 -20.207  0.00  0.00    +0.150 HD
BRANCH  10  14
ATOM     12 CL   UNL     1      34.015 -23.894 -14.807  0.00  0.00    -0.075 Cl
ATOM     13  S   UNL     1      35.454 -22.489 -16.991  0.00  0.00    -0.071 S 
ATOM     14  C   UNL     1      34.635 -22.021 -18.396  0.00  0.00    +0.084 C 
ATOM     15  C   UNL     1      33.322 -22.340 -18.418  0.00  0.00    +0.012 C 
ATOM     16  C   UNL     1      32.949 -23.010 -17.217  0.00  0.00    +0.019 C 
ATOM     17  C   UNL     1      34.012 -23.156 -16.354  0.00  0.00    +0.087 C 
ENDBRANCH  10  14
ENDBRANCH   3   9
BRANCH   4  18
ATOM     18  O   UNL     1      37.308 -18.599 -20.810  0.00  0.00    -0.385 OA
ATOM     19  H   UNL     1      37.566 -18.941 -19.940  0.00  0.00    +0.210 HD
ENDBRANCH   4  18
ENDBRANCH   1   2
BRANCH   1  22
ATOM     20  O   UNL     1      35.695 -15.576 -23.948  0.00  0.00    -0.277 OA
ATOM     21  N   UNL     1      33.412 -15.119 -23.639  0.00  0.00    -0.284 N 
ATOM     22  C   UNL     1      34.527 -15.934 -23.830  0.00  0.00    +0.205 C 
ATOM     23  H   UNL     1      32.545 -15.580 -23.570  0.00  0.00    +0.155 HD
BRANCH  21  25
ATOM     24  F   UNL     1      32.484 -13.873 -21.338  0.00  0.00    -0.203 F 
ATOM     25  C   UNL     1      33.381 -13.709 -23.531  0.00  0.00    +0.078 C 
ATOM     26  C   UNL     1      32.911 -13.125 -22.366  0.00  0.00    +0.155 C 
ATOM     27  C   UNL     1      33.824 -12.941 -24.596  0.00  0.00    +0.018 C 
ATOM     28  C   UNL     1      33.323 -10.947 -23.327  0.00  0.00    +0.061 C 
ATOM     29  C   UNL     1      32.882 -11.734 -22.264  0.00  0.00    +0.046 C 
ATOM     30  C   UNL     1      33.794 -11.551 -24.494  0.00  0.00    +0.017 C 
BRANCH  28  32
ATOM     31  O   UNL     1      35.594  -9.194 -23.693  0.00  0.00    -0.269 OA
ATOM     32  N   UNL     1      33.291  -9.501 -23.220  0.00  0.00    -0.233 N 
ATOM     33  C   UNL     1      34.470  -8.748 -23.463  0.00  0.00    +0.257 C 
ATOM     34  C   UNL     1      32.114  -8.844 -22.858  0.00  0.00    +0.072 C 
ATOM     35  C   UNL     1      34.338  -7.261 -23.377  0.00  0.00    +0.059 C 
ATOM     36  C   UNL     1      32.031  -7.513 -22.756  0.00  0.00    +0.017 C 
ATOM     37  C   UNL     1      33.178  -6.700 -23.032  0.00  0.00    +0.006 C 
ENDBRANCH  28  32
ENDBRANCH  21  25
ENDBRANCH   1  22
TORSDOF 7
ENDMDL
MODEL 2
REMARK VINA RESULT:     -11.3      3.467      6.005
REMARK  Name = 11979006
REMARK  7 active torsions:
REMARK  status: ('A' for Active; 'I' for Inactive)
REMARK    1  A    between atoms: C_1  and  N_2
REMARK    2  A    between atoms: C_1  and  C_22
REMARK    3  A    between atoms: C_3  and  N_9
REMARK    4  A    between atoms: C_4  and  O_18
REMARK    5  A    between atoms: C_10  and  C_14
REMARK    6  A    between atoms: N_21  and  C_25
REMARK    7  A    between atoms: C_28  and  N_32
REMARK                            x       y       z     vdW  Elec       q    Type
REMARK                         _______ _______ _______ _____ _____    ______ ____
ROOT
ATOM      1  C   UNL     1      35.304 -21.448 -20.092  0.00  0.00    +0.010 C 
ENDROOT
BRANCH   1   2
ATOM      2  N   UNL     1      34.956 -21.668 -18.697  0.00  0.00    +0.396 N 
ATOM      3  C   UNL     1      35.478 -22.414 -16.572  0.00  0.00    +0.076 C 
ATOM      4  C   UNL     1      34.253 -23.201 -17.042  0.00  0.00    +0.106 C 
ATOM      5  C   UNL     1      36.128 -21.938 -17.863  0.00  0.00    -0.054 C 
ATOM      6  C   UNL     1      34.071 -22.825 -18.513  0.00  0.00    -0.045 C 
ATOM      7  H   UNL     1      34.496 -20.802 -18.417  0.00  0.00    -0.079 HD
BRANCH   3   9
ATOM      8  O   UNL     1      35.055 -23.161 -13.886  0.00  0.00    -0.270 OA
ATOM      9  N   UNL     1      36.369 -23.208 -15.771  0.00  0.00    -0.302 N 
ATOM     10  C   UNL     1      36.088 -23.537 -14.442  0.00  0.00    +0.252 C 
ATOM     11  H   UNL     1      37.207 -23.532 -16.172  0.00  0.00    +0.150 HD
BRANCH  10  14
ATOM     12 CL   UNL     1      40.616 -26.402 -13.311  0.00  0.00    -0.075 Cl
ATOM     13  S   UNL     1      38.530 -24.708 -14.575  0.00  0.00    -0.071 S 
ATOM     14  C   UNL     1      37.081 -24.383 -13.764  0.00  0.00    +0.084 C 
ATOM     15  C   UNL     1      36.978 -24.949 -12.541  0.00  0.00    +0.012 C 
ATOM     16  C   UNL     1      38.151 -25.699 -12.235  0.00  0.00    +0.019 C 
ATOM     17  C   UNL     1      39.075 -25.652 -13.255  0.00  0.00    +0.087 C 
ENDBRANCH  10  14
ENDBRANCH   3   9
BRANCH   4  18
ATOM     18  O   UNL     1      33.121 -22.810 -16.276  0.00  0.00    -0.385 OA
ATOM     19  H   UNL     1      33.404 -22.221 -15.560  0.00  0.00    +0.210 HD
ENDBRANCH   4  18
ENDBRANCH   1   2
BRANCH   1  22
ATOM     20  O   UNL     1      33.362 -20.036 -20.336  0.00  0.00    -0.277 OA
ATOM     21  N   UNL     1      35.360 -19.467 -21.430  0.00  0.00    -0.284 N 
ATOM     22  C   UNL     1      34.537 -20.247 -20.619  0.00  0.00    +0.205 C 
ATOM     23  H   UNL     1      36.285 -19.787 -21.545  0.00  0.00    +0.155 HD
BRANCH  21  25
ATOM     24  F   UNL     1      34.431 -19.505 -24.046  0.00  0.00    -0.203 F 
ATOM     25  C   UNL     1      35.024 -18.270 -22.106  0.00  0.00    +0.078 C 
ATOM     26  C   UNL     1      34.564 -18.332 -23.410  0.00  0.00    +0.155 C 
ATOM     27  C   UNL     1      35.163 -17.061 -21.445  0.00  0.00    +0.018 C 
ATOM     28  C   UNL     1      34.369 -15.923 -23.424  0.00  0.00    +0.061 C 
ATOM     29  C   UNL     1      34.234 -17.150 -24.074  0.00  0.00    +0.046 C 
ATOM     30  C   UNL     1      34.834 -15.879 -22.109  0.00  0.00    +0.017 C 
BRANCH  28  32
ATOM     31  O   UNL     1      33.564 -15.733 -26.195  0.00  0.00    -0.269 OA
ATOM     32  N   UNL     1      34.026 -14.696 -24.114  0.00  0.00    -0.233 N 
ATOM     33  C   UNL     1      33.606 -14.740 -25.469  0.00  0.00    +0.257 C 
ATOM     34  C   UNL     1      34.127 -13.465 -23.463  0.00  0.00    +0.072 C 
ATOM     35  C   UNL     1      33.227 -13.434 -26.091  0.00  0.00    +0.059 C 
ATOM     36  C   UNL     1      33.813 -12.307 -24.052  0.00  0.00    +0.017 C 
ATOM     37  C   UNL     1      33.342 -12.295 -25.405  0.00  0.00    +0.006 C 
ENDBRANCH  28  32
ENDBRANCH  21  25
ENDBRANCH   1  22
TORSDOF 7
ENDMDL
MODEL 3
REMARK VINA RESULT:     -10.7      4.476     11.292
REMARK  Name = 11979006
REMARK  7 active torsions:
REMARK  status: ('A' for Active; 'I' for Inactive)
REMARK    1  A    between atoms: C_1  and  N_2
REMARK    2  A    between atoms: C_1  and  C_22
REMARK    3  A    between atoms: C_3  and  N_9
REMARK    4  A    between atoms: C_4  and  O_18
REMARK    5  A    between atoms: C_10  and  C_14
REMARK    6  A    between atoms: N_21  and  C_25
REMARK    7  A    between atoms: C_28  and  N_32
REMARK                            x       y       z     vdW  Elec       q    Type
REMARK                         _______ _______ _______ _____ _____    ______ ____
ROOT
ATOM      1  C   UNL     1      36.315 -18.788 -22.510  0.00  0.00    +0.010 C 
ENDROOT
BRANCH   1   2
ATOM      2  N   UNL     1      35.694 -17.724 -23.284  0.00  0.00    +0.396 N 
ATOM      3  C   UNL     1      34.661 -15.661 -23.428  0.00  0.00    +0.076 C 
ATOM      4  C   UNL     1      33.690 -16.697 -24.000  0.00  0.00    +0.106 C 
ATOM      5  C   UNL     1      35.582 -16.475 -22.530  0.00  0.00    -0.054 C 
ATOM      6  C   UNL     1      34.326 -18.055 -23.698  0.00  0.00    -0.045 C 
ATOM      7  H   UNL     1      36.308 -17.615 -24.090  0.00  0.00    -0.079 HD
BRANCH   3   9
ATOM      8  O   UNL     1      33.444 -13.399 -24.590  0.00  0.00    -0.270 OA
ATOM      9  N   UNL     1      33.988 -14.610 -22.715  0.00  0.00    -0.302 N 
ATOM     10  C   UNL     1      33.408 -13.518 -23.365  0.00  0.00    +0.252 C 
ATOM     11  H   UNL     1      33.935 -14.662 -21.734  0.00  0.00    +0.150 HD
BRANCH  10  14
ATOM     12 CL   UNL     1      31.585  -8.830 -21.199  0.00  0.00    -0.075 Cl
ATOM     13  S   UNL     1      32.909 -10.899 -22.867  0.00  0.00    -0.071 S 
ATOM     14  C   UNL     1      32.728 -12.542 -22.501  0.00  0.00    +0.084 C 
ATOM     15  C   UNL     1      31.957 -12.799 -21.421  0.00  0.00    +0.012 C 
ATOM     16  C   UNL     1      31.477 -11.586 -20.847  0.00  0.00    +0.019 C 
ATOM     17  C   UNL     1      31.918 -10.478 -21.536  0.00  0.00    +0.087 C 
ENDBRANCH  10  14
ENDBRANCH   3   9
BRANCH   4  18
ATOM     18  O   UNL     1      33.563 -16.499 -25.402  0.00  0.00    -0.385 OA
ATOM     19  H   UNL     1      34.192 -15.819 -25.690  0.00  0.00    +0.210 HD
ENDBRANCH   4  18
ENDBRANCH   1   2
BRANCH   1  22
ATOM     20  O   UNL     1      34.957 -18.135 -20.625  0.00  0.00    -0.277 OA
ATOM     21  N   UNL     1      35.474 -20.401 -20.959  0.00  0.00    -0.284 N 
ATOM     22  C   UNL     1      35.500 -19.039 -21.253  0.00  0.00    +0.205 C 
ATOM     23  H   UNL     1      35.965 -20.988 -21.578  0.00  0.00    +0.155 HD
BRANCH  21  25
ATOM     24  F   UNL     1      32.705 -20.429 -20.758  0.00  0.00    -0.203 F 
ATOM     25  C   UNL     1      34.823 -21.039 -19.876  0.00  0.00    +0.078 C 
ATOM     26  C   UNL     1      33.440 -21.031 -19.812  0.00  0.00    +0.155 C 
ATOM     27  C   UNL     1      35.588 -21.659 -18.901  0.00  0.00    +0.018 C 
ATOM     28  C   UNL     1      33.558 -22.289 -17.752  0.00  0.00    +0.061 C 
ATOM     29  C   UNL     1      32.803 -21.660 -18.743  0.00  0.00    +0.046 C 
ATOM     30  C   UNL     1      34.951 -22.288 -17.832  0.00  0.00    +0.017 C 
BRANCH  28  32
ATOM     31  O   UNL     1      34.864 -23.917 -15.750  0.00  0.00    -0.269 OA
ATOM     32  N   UNL     1      32.895 -22.942 -16.641  0.00  0.00    -0.233 N 
ATOM     33  C   UNL     1      33.656 -23.684 -15.700  0.00  0.00    +0.257 C 
ATOM     34  C   UNL     1      31.508 -22.867 -16.500  0.00  0.00    +0.072 C 
ATOM     35  C   UNL     1      32.900 -24.286 -14.559  0.00  0.00    +0.059 C 
ATOM     36  C   UNL     1      30.851 -23.442 -15.488  0.00  0.00    +0.017 C 
ATOM     37  C   UNL     1      31.573 -24.167 -14.485  0.00  0.00    +0.006 C 
ENDBRANCH  28  32
ENDBRANCH  21  25
ENDBRANCH   1  22
TORSDOF 7
ENDMDL
MODEL 4
REMARK VINA RESULT:     -10.7      4.941     12.209
REMARK  Name = 11979006
REMARK  7 active torsions:
REMARK  status: ('A' for Active; 'I' for Inactive)
REMARK    1  A    between atoms: C_1  and  N_2
REMARK    2  A    between atoms: C_1  and  C_22
REMARK    3  A    between atoms: C_3  and  N_9
REMARK    4  A    between atoms: C_4  and  O_18
REMARK    5  A    between atoms: C_10  and  C_14
REMARK    6  A    between atoms: N_21  and  C_25
REMARK    7  A    between atoms: C_28  and  N_32
REMARK                            x       y       z     vdW  Elec       q    Type
REMARK                         _______ _______ _______ _____ _____    ______ ____
ROOT
ATOM      1  C   UNL     1      34.972 -20.351 -21.083  0.00  0.00    +0.010 C 
ENDROOT
BRANCH   1   2
ATOM      2  N   UNL     1      35.300 -19.047 -21.637  0.00  0.00    +0.396 N 
ATOM      3  C   UNL     1      35.024 -16.754 -21.723  0.00  0.00    +0.076 C 
ATOM      4  C   UNL     1      34.692 -17.304 -23.112  0.00  0.00    +0.106 C 
ATOM      5  C   UNL     1      34.828 -17.946 -20.797  0.00  0.00    -0.054 C 
ATOM      6  C   UNL     1      34.689 -18.825 -22.953  0.00  0.00    -0.045 C 
ATOM      7  H   UNL     1      36.318 -19.054 -21.699  0.00  0.00    -0.079 HD
BRANCH   3   9
ATOM      8  O   UNL     1      34.754 -14.359 -23.187  0.00  0.00    -0.270 OA
ATOM      9  N   UNL     1      34.195 -15.637 -21.360  0.00  0.00    -0.302 N 
ATOM     10  C   UNL     1      34.114 -14.480 -22.141  0.00  0.00    +0.252 C 
ATOM     11  H   UNL     1      33.665 -15.687 -20.533  0.00  0.00    +0.150 HD
BRANCH  10  14
ATOM     12 CL   UNL     1      31.227  -9.848 -21.703  0.00  0.00    -0.075 Cl
ATOM     13  S   UNL     1      33.044 -12.027 -22.577  0.00  0.00    -0.071 S 
ATOM     14  C   UNL     1      33.199 -13.438 -21.655  0.00  0.00    +0.084 C 
ATOM     15  C   UNL     1      32.446 -13.465 -20.533  0.00  0.00    +0.012 C 
ATOM     16  C   UNL     1      31.690 -12.264 -20.407  0.00  0.00    +0.019 C 
ATOM     17  C   UNL     1      31.920 -11.396 -21.451  0.00  0.00    +0.087 C 
ENDBRANCH  10  14
ENDBRANCH   3   9
BRANCH   4  18
ATOM     18  O   UNL     1      35.694 -16.893 -24.032  0.00  0.00    -0.385 OA
ATOM     19  H   UNL     1      36.174 -17.671 -24.356  0.00  0.00    +0.210 HD
ENDBRANCH   4  18
ENDBRANCH   1   2
BRANCH   1  22
ATOM     20  O   UNL     1      36.840 -19.987 -19.600  0.00  0.00    -0.277 OA
ATOM     21  N   UNL     1      35.182 -21.547 -19.023  0.00  0.00    -0.284 N 
ATOM     22  C   UNL     1      35.794 -20.588 -19.828  0.00  0.00    +0.205 C 
ATOM     23  H   UNL     1      34.338 -21.924 -19.363  0.00  0.00    +0.155 HD
BRANCH  21  25
ATOM     24  F   UNL     1      33.450 -22.840 -17.282  0.00  0.00    -0.203 F 
ATOM     25  C   UNL     1      35.631 -22.043 -17.776  0.00  0.00    +0.078 C 
ATOM     26  C   UNL     1      34.735 -22.682 -16.936  0.00  0.00    +0.155 C 
ATOM     27  C   UNL     1      36.960 -21.877 -17.423  0.00  0.00    +0.018 C 
ATOM     28  C   UNL     1      36.516 -23.010 -15.336  0.00  0.00    +0.061 C 
ATOM     29  C   UNL     1      35.181 -23.169 -15.707  0.00  0.00    +0.046 C 
ATOM     30  C   UNL     1      37.406 -22.363 -16.194  0.00  0.00    +0.017 C 
BRANCH  28  32
ATOM     31  O   UNL     1      37.780 -25.577 -14.913  0.00  0.00    -0.269 OA
ATOM     32  N   UNL     1      36.979 -23.516 -14.058  0.00  0.00    -0.233 N 
ATOM     33  C   UNL     1      37.621 -24.779 -13.989  0.00  0.00    +0.257 C 
ATOM     34  C   UNL     1      36.777 -22.779 -12.890  0.00  0.00    +0.072 C 
ATOM     35  C   UNL     1      38.109 -25.204 -12.640  0.00  0.00    +0.059 C 
ATOM     36  C   UNL     1      37.194 -23.196 -11.690  0.00  0.00    +0.017 C 
ATOM     37  C   UNL     1      37.887 -24.444 -11.566  0.00  0.00    +0.006 C 
ENDBRANCH  28  32
ENDBRANCH  21  25
ENDBRANCH   1  22
TORSDOF 7
ENDMDL
MODEL 5
REMARK VINA RESULT:     -10.7      5.242      8.388
REMARK  Name = 11979006
REMARK  7 active torsions:
REMARK  status: ('A' for Active; 'I' for Inactive)
REMARK    1  A    between atoms: C_1  and  N_2
REMARK    2  A    between atoms: C_1  and  C_22
REMARK    3  A    between atoms: C_3  and  N_9
REMARK    4  A    between atoms: C_4  and  O_18
REMARK    5  A    between atoms: C_10  and  C_14
REMARK    6  A    between atoms: N_21  and  C_25
REMARK    7  A    between atoms: C_28  and  N_32
REMARK                            x       y       z     vdW  Elec       q    Type
REMARK                         _______ _______ _______ _____ _____    ______ ____
ROOT
ATOM      1  C   UNL     1      37.753 -22.347 -15.922  0.00  0.00    +0.010 C 
ENDROOT
BRANCH   1   2
ATOM      2  N   UNL     1      36.717 -23.369 -15.954  0.00  0.00    +0.396 N 
ATOM      3  C   UNL     1      34.509 -24.023 -15.747  0.00  0.00    +0.076 C 
ATOM      4  C   UNL     1      35.318 -24.819 -14.721  0.00  0.00    +0.106 C 
ATOM      5  C   UNL     1      35.371 -22.799 -16.027  0.00  0.00    -0.054 C 
ATOM      6  C   UNL     1      36.721 -24.211 -14.752  0.00  0.00    -0.045 C 
ATOM      7  H   UNL     1      36.933 -23.913 -16.789  0.00  0.00    -0.079 HD
BRANCH   3   9
ATOM      8  O   UNL     1      32.276 -23.403 -17.354  0.00  0.00    -0.270 OA
ATOM      9  N   UNL     1      33.201 -23.673 -15.267  0.00  0.00    -0.302 N 
ATOM     10  C   UNL     1      32.141 -23.378 -16.129  0.00  0.00    +0.252 C 
ATOM     11  H   UNL     1      33.045 -23.640 -14.296  0.00  0.00    +0.150 HD
BRANCH  10  14
ATOM     12 CL   UNL     1      26.826 -22.359 -15.295  0.00  0.00    -0.075 Cl
ATOM     13  S   UNL     1      29.482 -22.973 -16.472  0.00  0.00    -0.071 S 
ATOM     14  C   UNL     1      30.855 -23.071 -15.487  0.00  0.00    +0.084 C 
ATOM     15  C   UNL     1      30.626 -22.849 -14.174  0.00  0.00    +0.012 C 
ATOM     16  C   UNL     1      29.245 -22.581 -13.944  0.00  0.00    +0.019 C 
ATOM     17  C   UNL     1      28.510 -22.618 -15.108  0.00  0.00    +0.087 C 
ENDBRANCH  10  14
ENDBRANCH   3   9
BRANCH   4  18
ATOM     18  O   UNL     1      35.350 -26.187 -15.107  0.00  0.00    -0.385 OA
ATOM     19  H   UNL     1      35.109 -26.264 -16.043  0.00  0.00    +0.210 HD
ENDBRANCH   4  18
ENDBRANCH   1   2
BRANCH   1  22
ATOM     20  O   UNL     1      37.499 -20.019 -16.504  0.00  0.00    -0.277 OA
ATOM     21  N   UNL     1      36.825 -21.679 -18.022  0.00  0.00    -0.284 N 
ATOM     22  C   UNL     1      37.352 -21.194 -16.826  0.00  0.00    +0.205 C 
ATOM     23  H   UNL     1      36.786 -22.659 -18.113  0.00  0.00    +0.155 HD
BRANCH  21  25
ATOM     24  F   UNL     1      34.196 -21.921 -18.880  0.00  0.00    -0.203 F 
ATOM     25  C   UNL     1      36.340 -20.929 -19.120  0.00  0.00    +0.078 C 
ATOM     26  C   UNL     1      35.022 -21.079 -19.517  0.00  0.00    +0.155 C 
ATOM     27  C   UNL     1      37.198 -20.061 -19.774  0.00  0.00    +0.018 C 
ATOM     28  C   UNL     1      35.398 -19.459 -21.270  0.00  0.00    +0.061 C 
ATOM     29  C   UNL     1      34.547 -20.338 -20.600  0.00  0.00    +0.046 C 
ATOM     30  C   UNL     1      36.724 -19.321 -20.858  0.00  0.00    +0.017 C 
BRANCH  28  32
ATOM     31  O   UNL     1      35.229 -16.574 -21.379  0.00  0.00    -0.269 OA
ATOM     32  N   UNL     1      34.904 -18.691 -22.396  0.00  0.00    -0.233 N 
ATOM     33  C   UNL     1      34.910 -17.272 -22.341  0.00  0.00    +0.257 C 
ATOM     34  C   UNL     1      34.402 -19.336 -23.528  0.00  0.00    +0.072 C 
ATOM     35  C   UNL     1      34.428 -16.558 -23.563  0.00  0.00    +0.059 C 
ATOM     36  C   UNL     1      33.946 -18.673 -24.596  0.00  0.00    +0.017 C 
ATOM     37  C   UNL     1      33.968 -17.240 -24.613  0.00  0.00    +0.006 C 
ENDBRANCH  28  32
ENDBRANCH  21  25
ENDBRANCH   1  22
TORSDOF 7
ENDMDL
MODEL 6
REMARK VINA RESULT:     -10.6      5.041     12.630
REMARK  Name = 11979006
REMARK  7 active torsions:
REMARK  status: ('A' for Active; 'I' for Inactive)
REMARK    1  A    between atoms: C_1  and  N_2
REMARK    2  A    between atoms: C_1  and  C_22
REMARK    3  A    between atoms: C_3  and  N_9
REMARK    4  A    between atoms: C_4  and  O_18
REMARK    5  A    between atoms: C_10  and  C_14
REMARK    6  A    between atoms: N_21  and  C_25
REMARK    7  A    between atoms: C_28  and  N_32
REMARK                            x       y       z     vdW  Elec       q    Type
REMARK                         _______ _______ _______ _____ _____    ______ ____
ROOT
ATOM      1  C   UNL     1      34.159 -20.801 -20.346  0.00  0.00    +0.010 C 
ENDROOT
BRANCH   1   2
ATOM      2  N   UNL     1      35.075 -19.706 -20.626  0.00  0.00    +0.396 N 
ATOM      3  C   UNL     1      35.529 -17.624 -21.522  0.00  0.00    +0.076 C 
ATOM      4  C   UNL     1      36.457 -18.627 -22.210  0.00  0.00    +0.106 C 
ATOM      5  C   UNL     1      34.378 -18.478 -21.009  0.00  0.00    -0.054 C 
ATOM      6  C   UNL     1      35.984 -20.004 -21.739  0.00  0.00    -0.045 C 
ATOM      7  H   UNL     1      35.587 -19.583 -19.753  0.00  0.00    -0.079 HD
BRANCH   3   9
ATOM      8  O   UNL     1      34.435 -15.145 -20.741  0.00  0.00    -0.270 OA
ATOM      9  N   UNL     1      35.087 -16.584 -22.410  0.00  0.00    -0.302 N 
ATOM     10  C   UNL     1      34.554 -15.379 -21.945  0.00  0.00    +0.252 C 
ATOM     11  H   UNL     1      35.162 -16.725 -23.381  0.00  0.00    +0.150 HD
BRANCH  10  14
ATOM     12 CL   UNL     1      32.907 -13.116 -26.651  0.00  0.00    -0.075 Cl
ATOM     13  S   UNL     1      33.695 -14.989 -24.487  0.00  0.00    -0.071 S 
ATOM     14  C   UNL     1      34.177 -14.401 -22.976  0.00  0.00    +0.084 C 
ATOM     15  C   UNL     1      34.167 -13.054 -22.864  0.00  0.00    +0.012 C 
ATOM     16  C   UNL     1      33.741 -12.453 -24.084  0.00  0.00    +0.019 C 
ATOM     17  C   UNL     1      33.452 -13.391 -25.049  0.00  0.00    +0.087 C 
ENDBRANCH  10  14
ENDBRANCH   3   9
BRANCH   4  18
ATOM     18  O   UNL     1      37.797 -18.386 -21.800  0.00  0.00    -0.385 OA
ATOM     19  H   UNL     1      37.991 -17.439 -21.871  0.00  0.00    +0.210 HD
ENDBRANCH   4  18
ENDBRANCH   1   2
BRANCH   1  22
ATOM     20  O   UNL     1      35.350 -22.865 -19.965  0.00  0.00    -0.277 OA
ATOM     21  N   UNL     1      34.867 -21.449 -18.156  0.00  0.00    -0.284 N 
ATOM     22  C   UNL     1      34.864 -21.842 -19.493  0.00  0.00    +0.205 C 
ATOM     23  H   UNL     1      34.431 -20.588 -17.956  0.00  0.00    +0.155 HD
BRANCH  21  25
ATOM     24  F   UNL     1      33.290 -23.031 -16.507  0.00  0.00    -0.203 F 
ATOM     25  C   UNL     1      35.423 -22.139 -17.053  0.00  0.00    +0.078 C 
ATOM     26  C   UNL     1      34.603 -22.919 -16.254  0.00  0.00    +0.155 C 
ATOM     27  C   UNL     1      36.779 -22.020 -16.796  0.00  0.00    +0.018 C 
ATOM     28  C   UNL     1      36.517 -23.488 -14.895  0.00  0.00    +0.061 C 
ATOM     29  C   UNL     1      35.154 -23.598 -15.168  0.00  0.00    +0.046 C 
ATOM     30  C   UNL     1      37.330 -22.698 -15.710  0.00  0.00    +0.017 C 
BRANCH  28  32
ATOM     31  O   UNL     1      37.306 -26.270 -14.887  0.00  0.00    -0.269 OA
ATOM     32  N   UNL     1      37.089 -24.193 -13.765  0.00  0.00    -0.233 N 
ATOM     33  C   UNL     1      37.473 -25.553 -13.901  0.00  0.00    +0.257 C 
ATOM     34  C   UNL     1      37.246 -23.552 -12.535  0.00  0.00    +0.072 C 
ATOM     35  C   UNL     1      38.098 -26.191 -12.702  0.00  0.00    +0.059 C 
ATOM     36  C   UNL     1      37.777 -24.155 -11.467  0.00  0.00    +0.017 C 
ATOM     37  C   UNL     1      38.223 -25.514 -11.558  0.00  0.00    +0.006 C 
ENDBRANCH  28  32
ENDBRANCH  21  25
ENDBRANCH   1  22
TORSDOF 7
ENDMDL
MODEL 7
REMARK VINA RESULT:     -10.4      5.725      9.492
REMARK  Name = 11979006
REMARK  7 active torsions:
REMARK  status: ('A' for Active; 'I' for Inactive)
REMARK    1  A    between atoms: C_1  and  N_2
REMARK    2  A    between atoms: C_1  and  C_22
REMARK    3  A    between atoms: C_3  and  N_9
REMARK    4  A    between atoms: C_4  and  O_18
REMARK    5  A    between atoms: C_10  and  C_14
REMARK    6  A    between atoms: N_21  and  C_25
REMARK    7  A    between atoms: C_28  and  N_32
REMARK                            x       y       z     vdW  Elec       q    Type
REMARK                         _______ _______ _______ _____ _____    ______ ____
ROOT
ATOM      1  C   UNL     1      35.777 -23.900 -15.173  0.00  0.00    +0.010 C 
ENDROOT
BRANCH   1   2
ATOM      2  N   UNL     1      34.493 -24.443 -14.756  0.00  0.00    +0.396 N 
ATOM      3  C   UNL     1      32.183 -24.478 -14.844  0.00  0.00    +0.076 C 
ATOM      4  C   UNL     1      32.578 -24.195 -13.393  0.00  0.00    +0.106 C 
ATOM      5  C   UNL     1      33.402 -24.050 -15.649  0.00  0.00    -0.054 C 
ATOM      6  C   UNL     1      34.093 -23.979 -13.422  0.00  0.00    -0.045 C 
ATOM      7  H   UNL     1      34.635 -25.452 -14.769  0.00  0.00    -0.079 HD
BRANCH   3   9
ATOM      8  O   UNL     1      29.537 -25.334 -14.380  0.00  0.00    -0.270 OA
ATOM      9  N   UNL     1      30.992 -23.776 -15.237  0.00  0.00    -0.302 N 
ATOM     10  C   UNL     1      29.712 -24.267 -14.971  0.00  0.00    +0.252 C 
ATOM     11  H   UNL     1      31.082 -22.919 -15.712  0.00  0.00    +0.150 HD
BRANCH  10  14
ATOM     12 CL   UNL     1      25.977 -21.724 -18.064  0.00  0.00    -0.075 Cl
ATOM     13  S   UNL     1      28.215 -23.395 -17.056  0.00  0.00    -0.071 S 
ATOM     14  C   UNL     1      28.593 -23.419 -15.407  0.00  0.00    +0.084 C 
ATOM     15  C   UNL     1      27.808 -22.635 -14.636  0.00  0.00    +0.012 C 
ATOM     16  C   UNL     1      26.832 -21.966 -15.430  0.00  0.00    +0.019 C 
ATOM     17  C   UNL     1      26.940 -22.290 -16.764  0.00  0.00    +0.087 C 
ENDBRANCH  10  14
ENDBRANCH   3   9
BRANCH   4  18
ATOM     18  O   UNL     1      32.243 -25.317 -12.587  0.00  0.00    -0.385 OA
ATOM     19  H   UNL     1      31.280 -25.428 -12.573  0.00  0.00    +0.210 HD
ENDBRANCH   4  18
ENDBRANCH   1   2
BRANCH   1  22
ATOM     20  O   UNL     1      35.402 -21.529 -15.424  0.00  0.00    -0.277 OA
ATOM     21  N   UNL     1      35.552 -22.893 -17.330  0.00  0.00    -0.284 N 
ATOM     22  C   UNL     1      35.551 -22.622 -15.963  0.00  0.00    +0.205 C 
ATOM     23  H   UNL     1      35.691 -23.834 -17.586  0.00  0.00    +0.155 HD
BRANCH  21  25
ATOM     24  F   UNL     1      33.024 -22.299 -18.313  0.00  0.00    -0.203 F 
ATOM     25  C   UNL     1      35.375 -21.976 -18.393  0.00  0.00    +0.078 C 
ATOM     26  C   UNL     1      34.098 -21.707 -18.855  0.00  0.00    +0.155 C 
ATOM     27  C   UNL     1      36.488 -21.367 -18.949  0.00  0.00    +0.018 C 
ATOM     28  C   UNL     1      35.038 -20.181 -20.475  0.00  0.00    +0.061 C 
ATOM     29  C   UNL     1      33.928 -20.803 -19.903  0.00  0.00    +0.046 C 
ATOM     30  C   UNL     1      36.318 -20.463 -19.998  0.00  0.00    +0.017 C 
BRANCH  28  32
ATOM     31  O   UNL     1      35.438 -17.322 -20.300  0.00  0.00    -0.269 OA
ATOM     32  N   UNL     1      34.860 -19.241 -21.565  0.00  0.00    -0.233 N 
ATOM     33  C   UNL     1      35.128 -17.862 -21.361  0.00  0.00    +0.257 C 
ATOM     34  C   UNL     1      34.406 -19.680 -22.811  0.00  0.00    +0.072 C 
ATOM     35  C   UNL     1      34.965 -16.970 -22.550  0.00  0.00    +0.059 C 
ATOM     36  C   UNL     1      34.237 -18.856 -23.850  0.00  0.00    +0.017 C 
ATOM     37  C   UNL     1      34.533 -17.460 -23.714  0.00  0.00    +0.006 C 
ENDBRANCH  28  32
ENDBRANCH  21  25
ENDBRANCH   1  22
TORSDOF 7
ENDMDL
MODEL 8
REMARK VINA RESULT:     -10.4      4.702     11.583
REMARK  Name = 11979006
REMARK  7 active torsions:
REMARK  status: ('A' for Active; 'I' for Inactive)
REMARK    1  A    between atoms: C_1  and  N_2
REMARK    2  A    between atoms: C_1  and  C_22
REMARK    3  A    between atoms: C_3  and  N_9
REMARK    4  A    between atoms: C_4  and  O_18
REMARK    5  A    between atoms: C_10  and  C_14
REMARK    6  A    between atoms: N_21  and  C_25
REMARK    7  A    between atoms: C_28  and  N_32
REMARK                            x       y       z     vdW  Elec       q    Type
REMARK                         _______ _______ _______ _____ _____    ______ ____
ROOT
ATOM      1  C   UNL     1      36.446 -19.860 -21.642  0.00  0.00    +0.010 C 
ENDROOT
BRANCH   1   2
ATOM      2  N   UNL     1      36.054 -18.729 -22.470  0.00  0.00    +0.396 N 
ATOM      3  C   UNL     1      35.173 -16.606 -22.713  0.00  0.00    +0.076 C 
ATOM      4  C   UNL     1      34.299 -17.557 -23.533  0.00  0.00    +0.106 C 
ATOM      5  C   UNL     1      35.843 -17.510 -21.688  0.00  0.00    -0.054 C 
ATOM      6  C   UNL     1      34.792 -18.962 -23.180  0.00  0.00    -0.045 C 
ATOM      7  H   UNL     1      36.831 -18.619 -23.121  0.00  0.00    -0.079 HD
BRANCH   3   9
ATOM      8  O   UNL     1      34.105 -14.359 -24.041  0.00  0.00    -0.270 OA
ATOM      9  N   UNL     1      34.413 -15.551 -22.100  0.00  0.00    -0.302 N 
ATOM     10  C   UNL     1      33.916 -14.467 -22.828  0.00  0.00    +0.252 C 
ATOM     11  H   UNL     1      34.237 -15.593 -21.133  0.00  0.00    +0.150 HD
BRANCH  10  14
ATOM     12 CL   UNL     1      31.293  -9.900 -21.328  0.00  0.00    -0.075 Cl
ATOM     13  S   UNL     1      32.864 -11.968 -22.766  0.00  0.00    -0.071 S 
ATOM     14  C   UNL     1      33.130 -13.485 -22.066  0.00  0.00    +0.084 C 
ATOM     15  C   UNL     1      32.580 -13.647 -20.842  0.00  0.00    +0.012 C 
ATOM     16  C   UNL     1      31.895 -12.464 -20.439  0.00  0.00    +0.019 C 
ATOM     17  C   UNL     1      31.970 -11.473 -21.393  0.00  0.00    +0.087 C 
ENDBRANCH  10  14
ENDBRANCH   3   9
BRANCH   4  18
ATOM     18  O   UNL     1      34.483 -17.290 -24.917  0.00  0.00    -0.385 OA
ATOM     19  H   UNL     1      35.022 -16.490 -25.023  0.00  0.00    +0.210 HD
ENDBRANCH   4  18
ENDBRANCH   1   2
BRANCH   1  22
ATOM     20  O   UNL     1      34.287 -19.533 -20.615  0.00  0.00    -0.277 OA
ATOM     21  N   UNL     1      35.716 -21.215 -19.813  0.00  0.00    -0.284 N 
ATOM     22  C   UNL     1      35.343 -20.159 -20.642  0.00  0.00    +0.205 C 
ATOM     23  H   UNL     1      36.605 -21.606 -19.982  0.00  0.00    +0.155 HD
BRANCH  21  25
ATOM     24  F   UNL     1      36.944 -22.038 -17.463  0.00  0.00    -0.203 F 
ATOM     25  C   UNL     1      34.969 -21.793 -18.759  0.00  0.00    +0.078 C 
ATOM     26  C   UNL     1      35.619 -22.190 -17.603  0.00  0.00    +0.155 C 
ATOM     27  C   UNL     1      33.601 -21.948 -18.909  0.00  0.00    +0.018 C 
ATOM     28  C   UNL     1      33.501 -22.923 -16.700  0.00  0.00    +0.061 C 
ATOM     29  C   UNL     1      34.880 -22.759 -16.566  0.00  0.00    +0.046 C 
ATOM     30  C   UNL     1      32.862 -22.517 -17.872  0.00  0.00    +0.017 C 
BRANCH  28  32
ATOM     31  O   UNL     1      30.620 -22.840 -16.458  0.00  0.00    -0.269 OA
ATOM     32  N   UNL     1      32.733 -23.515 -15.622  0.00  0.00    -0.233 N 
ATOM     33  C   UNL     1      31.316 -23.440 -15.639  0.00  0.00    +0.257 C 
ATOM     34  C   UNL     1      33.379 -24.142 -14.554  0.00  0.00    +0.072 C 
ATOM     35  C   UNL     1      30.600 -24.117 -14.514  0.00  0.00    +0.059 C 
ATOM     36  C   UNL     1      32.716 -24.712 -13.543  0.00  0.00    +0.017 C 
ATOM     37  C   UNL     1      31.283 -24.704 -13.529  0.00  0.00    +0.006 C 
ENDBRANCH  28  32
ENDBRANCH  21  25
ENDBRANCH   1  22
TORSDOF 7
ENDMDL
MODEL 9
REMARK VINA RESULT:     -10.4      5.913      9.384
REMARK  Name = 11979006
REMARK  7 active torsions:
REMARK  status: ('A' for Active; 'I' for Inactive)
REMARK    1  A    between atoms: C_1  and  N_2
REMARK    2  A    between atoms: C_1  and  C_22
REMARK    3  A    between atoms: C_3  and  N_9
REMARK    4  A    between atoms: C_4  and  O_18
REMARK    5  A    between atoms: C_10  and  C_14
REMARK    6  A    between atoms: N_21  and  C_25
REMARK    7  A    between atoms: C_28  and  N_32
REMARK                            x       y       z     vdW  Elec       q    Type
REMARK                         _______ _______ _______ _____ _____    ______ ____
ROOT
ATOM      1  C   UNL     1      31.778 -23.923 -15.761  0.00  0.00    +0.010 C 
ENDROOT
BRANCH   1   2
ATOM      2  N   UNL     1      32.830 -23.648 -14.794  0.00  0.00    +0.396 N 
ATOM      3  C   UNL     1      35.025 -23.811 -14.087  0.00  0.00    +0.076 C 
ATOM      4  C   UNL     1      34.151 -24.458 -13.010  0.00  0.00    +0.106 C 
ATOM      5  C   UNL     1      34.168 -23.872 -15.344  0.00  0.00    -0.054 C 
ATOM      6  C   UNL     1      32.744 -24.510 -13.609  0.00  0.00    -0.045 C 
ATOM      7  H   UNL     1      32.691 -22.668 -14.550  0.00  0.00    -0.079 HD
BRANCH   3   9
ATOM      8  O   UNL     1      37.547 -22.782 -13.359  0.00  0.00    -0.270 OA
ATOM      9  N   UNL     1      36.285 -24.483 -14.250  0.00  0.00    -0.302 N 
ATOM     10  C   UNL     1      37.497 -23.905 -13.863  0.00  0.00    +0.252 C 
ATOM     11  H   UNL     1      36.296 -25.382 -14.649  0.00  0.00    +0.150 HD
BRANCH  10  14
ATOM     12 CL   UNL     1      41.539 -27.524 -13.122  0.00  0.00    -0.075 Cl
ATOM     13  S   UNL     1      39.136 -25.804 -12.835  0.00  0.00    -0.071 S 
ATOM     14  C   UNL     1      38.698 -24.729 -14.065  0.00  0.00    +0.084 C 
ATOM     15  C   UNL     1      39.518 -24.734 -15.139  0.00  0.00    +0.012 C 
ATOM     16  C   UNL     1      40.575 -25.672 -14.958  0.00  0.00    +0.019 C 
ATOM     17  C   UNL     1      40.487 -26.323 -13.748  0.00  0.00    +0.087 C 
ENDBRANCH  10  14
ENDBRANCH   3   9
BRANCH   4  18
ATOM     18  O   UNL     1      34.173 -23.651 -11.840  0.00  0.00    -0.385 OA
ATOM     19  H   UNL     1      33.264 -23.493 -11.540  0.00  0.00    +0.210 HD
ENDBRANCH   4  18
ENDBRANCH   1   2
BRANCH   1  22
ATOM     20  O   UNL     1      30.782 -22.084 -16.964  0.00  0.00    -0.277 OA
ATOM     21  N   UNL     1      32.956 -22.787 -17.503  0.00  0.00    -0.284 N 
ATOM     22  C   UNL     1      31.751 -22.820 -16.804  0.00  0.00    +0.205 C 
ATOM     23  H   UNL     1      33.630 -23.454 -17.238  0.00  0.00    +0.155 HD
BRANCH  21  25
ATOM     24  F   UNL     1      35.622 -22.368 -18.157  0.00  0.00    -0.203 F 
ATOM     25  C   UNL     1      33.325 -21.909 -18.550  0.00  0.00    +0.078 C 
ATOM     26  C   UNL     1      34.665 -21.727 -18.845  0.00  0.00    +0.155 C 
ATOM     27  C   UNL     1      32.333 -21.249 -19.257  0.00  0.00    +0.018 C 
ATOM     28  C   UNL     1      34.039 -20.187 -20.599  0.00  0.00    +0.061 C 
ATOM     29  C   UNL     1      35.026 -20.860 -19.877  0.00  0.00    +0.046 C 
ATOM     30  C   UNL     1      32.693 -20.381 -20.288  0.00  0.00    +0.017 C 
BRANCH  28  32
ATOM     31  O   UNL     1      35.682 -17.825 -20.299  0.00  0.00    -0.269 OA
ATOM     32  N   UNL     1      34.414 -19.286 -21.671  0.00  0.00    -0.233 N 
ATOM     33  C   UNL     1      35.261 -18.179 -21.400  0.00  0.00    +0.257 C 
ATOM     34  C   UNL     1      33.930 -19.484 -22.965  0.00  0.00    +0.072 C 
ATOM     35  C   UNL     1      35.637 -17.327 -22.571  0.00  0.00    +0.059 C 
ATOM     36  C   UNL     1      34.255 -18.689 -23.989  0.00  0.00    +0.017 C 
ATOM     37  C   UNL     1      35.141 -17.581 -23.784  0.00  0.00    +0.006 C 
ENDBRANCH  28  32
ENDBRANCH  21  25
ENDBRANCH   1  22
TORSDOF 7
ENDMDL
