MODEL 1
REMARK VINA RESULT:     -11.9      0.000      0.000
REMARK  Name = 24883488
REMARK  8 active torsions:
REMARK  status: ('A' for Active; 'I' for Inactive)
REMARK    1  A    between atoms: N_2  and  C_11
REMARK    2  A    between atoms: C_3  and  C_19
REMARK    3  A    between atoms: C_19  and  C_20
REMARK    4  A    between atoms: C_20  and  C_23
REMARK    5  A    between atoms: N_22  and  C_25
REMARK    6  A    between atoms: C_27  and  O_31
REMARK    7  A    between atoms: O_31  and  C_32
REMARK    8  A    between atoms: C_32  and  C_34
REMARK                            x       y       z     vdW  Elec       q    Type
REMARK                         _______ _______ _______ _____ _____    ______ ____
ROOT
ATOM      1  O   UNL     1      33.723 -24.102 -17.700  0.00  0.00    -0.275 OA
ATOM      2  N   UNL     1      34.895 -22.270 -16.799  0.00  0.00    -0.284 N 
ATOM      3  C   UNL     1      34.009 -22.909 -17.674  0.00  0.00    +0.227 C 
ATOM      4  H   UNL     1      35.021 -21.304 -16.944  0.00  0.00    +0.155 HD
ENDROOT
BRANCH   2  11
ATOM      5  O   UNL     1      33.798 -24.176 -12.188  0.00  0.00    -0.282 OA
ATOM      6  O   UNL     1      39.095 -24.651 -12.634  0.00  0.00    -0.270 OA
ATOM      7  O   UNL     1      35.206 -25.233 -10.204  0.00  0.00    -0.266 OA
ATOM      8  N   UNL     1      37.164 -24.942 -11.418  0.00  0.00    -0.246 N 
ATOM      9  C   UNL     1      35.702 -23.815 -13.543  0.00  0.00    +0.049 C 
ATOM     10  C   UNL     1      37.087 -23.947 -13.643  0.00  0.00    +0.057 C 
ATOM     11  C   UNL     1      35.624 -22.826 -15.747  0.00  0.00    +0.050 C 
ATOM     12  C   UNL     1      34.967 -23.254 -14.594  0.00  0.00    +0.018 C 
ATOM     13  C   UNL     1      37.741 -23.515 -14.803  0.00  0.00    +0.006 C 
ATOM     14  C   UNL     1      37.008 -22.957 -15.853  0.00  0.00    +0.015 C 
ATOM     15  C   UNL     1      35.007 -24.265 -12.330  0.00  0.00    +0.249 C 
ATOM     16  C   UNL     1      37.876 -24.536 -12.541  0.00  0.00    +0.252 C 
ATOM     17  C   UNL     1      35.800 -24.863 -11.206  0.00  0.00    +0.291 C 
ATOM     18  H   UNL     1      37.694 -25.334 -10.688  0.00  0.00    +0.158 HD
ENDBRANCH   2  11
BRANCH   3  19
ATOM     19  C   UNL     1      33.411 -21.951 -18.691  0.00  0.00    +0.095 C 
BRANCH  19  20
ATOM     20  C   UNL     1      34.500 -21.243 -19.493  0.00  0.00    +0.095 C 
BRANCH  20  23
ATOM     21  O   UNL     1      32.685 -20.205 -20.653  0.00  0.00    -0.275 OA
ATOM     22  N   UNL     1      34.887 -19.653 -21.262  0.00  0.00    -0.284 N 
ATOM     23  C   UNL     1      33.903 -20.318 -20.541  0.00  0.00    +0.227 C 
ATOM     24  H   UNL     1      35.818 -19.857 -21.013  0.00  0.00    +0.155 HD
BRANCH  22  25
ATOM     25  C   UNL     1      34.712 -18.720 -22.309  0.00  0.00    +0.053 C 
ATOM     26  C   UNL     1      35.053 -17.382 -22.115  0.00  0.00    +0.052 C 
ATOM     27  C   UNL     1      34.880 -16.460 -23.148  0.00  0.00    +0.140 C 
ATOM     28  C   UNL     1      34.197 -19.138 -23.535  0.00  0.00    +0.015 C 
ATOM     29  C   UNL     1      34.364 -16.879 -24.376  0.00  0.00    +0.037 C 
ATOM     30  C   UNL     1      34.023 -18.218 -24.569  0.00  0.00    +0.004 C 
BRANCH  27  31
ATOM     31  O   UNL     1      35.212 -15.155 -22.960  0.00  0.00    -0.472 OA
BRANCH  31  32
ATOM     32  C   UNL     1      34.160 -14.197 -23.054  0.00  0.00    +0.243 C 
BRANCH  32  34
ATOM     33  F   UNL     1      34.553 -14.246 -20.752  0.00  0.00    -0.230 F 
ATOM     34  C   UNL     1      33.591 -13.960 -21.673  0.00  0.00    +0.240 C 
ENDBRANCH  32  34
ENDBRANCH  31  32
ENDBRANCH  27  31
ENDBRANCH  22  25
ENDBRANCH  20  23
ENDBRANCH  19  20
ENDBRANCH   3  19
TORSDOF 8
ENDMDL
MODEL 2
REMARK VINA RESULT:     -11.7      4.519      7.488
REMARK  Name = 24883488
REMARK  8 active torsions:
REMARK  status: ('A' for Active; 'I' for Inactive)
REMARK    1  A    between atoms: N_2  and  C_11
REMARK    2  A    between atoms: C_3  and  C_19
REMARK    3  A    between atoms: C_19  and  C_20
REMARK    4  A    between atoms: C_20  and  C_23
REMARK    5  A    between atoms: N_22  and  C_25
REMARK    6  A    between atoms: C_27  and  O_31
REMARK    7  A    between atoms: O_31  and  C_32
REMARK    8  A    between atoms: C_32  and  C_34
REMARK                            x       y       z     vdW  Elec       q    Type
REMARK                         _______ _______ _______ _____ _____    ______ ____
ROOT
ATOM      1  O   UNL     1      33.747 -18.356 -24.162  0.00  0.00    -0.275 OA
ATOM      2  N   UNL     1      35.522 -17.605 -22.810  0.00  0.00    -0.284 N 
ATOM      3  C   UNL     1      34.622 -17.544 -23.881  0.00  0.00    +0.227 C 
ATOM      4  H   UNL     1      36.176 -16.872 -22.757  0.00  0.00    +0.155 HD
ENDROOT
BRANCH   2  11
ATOM      5  O   UNL     1      32.226 -20.617 -20.328  0.00  0.00    -0.282 OA
ATOM      6  O   UNL     1      36.998 -21.830 -18.270  0.00  0.00    -0.270 OA
ATOM      7  O   UNL     1      32.421 -22.456 -18.426  0.00  0.00    -0.266 OA
ATOM      8  N   UNL     1      34.721 -22.146 -18.341  0.00  0.00    -0.246 N 
ATOM      9  C   UNL     1      34.551 -20.189 -20.356  0.00  0.00    +0.049 C 
ATOM     10  C   UNL     1      35.791 -20.518 -19.808  0.00  0.00    +0.057 C 
ATOM     11  C   UNL     1      35.610 -18.574 -21.810  0.00  0.00    +0.050 C 
ATOM     12  C   UNL     1      34.458 -19.216 -21.358  0.00  0.00    +0.018 C 
ATOM     13  C   UNL     1      36.944 -19.870 -20.265  0.00  0.00    +0.006 C 
ATOM     14  C   UNL     1      36.851 -18.900 -21.266  0.00  0.00    +0.015 C 
ATOM     15  C   UNL     1      33.336 -20.864 -19.883  0.00  0.00    +0.249 C 
ATOM     16  C   UNL     1      35.905 -21.543 -18.749  0.00  0.00    +0.252 C 
ATOM     17  C   UNL     1      33.442 -21.904 -18.809  0.00  0.00    +0.291 C 
ATOM     18  H   UNL     1      34.802 -22.827 -17.636  0.00  0.00    +0.158 HD
ENDBRANCH   2  11
BRANCH   3  19
ATOM     19  C   UNL     1      34.851 -16.324 -24.759  0.00  0.00    +0.095 C 
BRANCH  19  20
ATOM     20  C   UNL     1      33.681 -15.348 -24.667  0.00  0.00    +0.095 C 
BRANCH  20  23
ATOM     21  O   UNL     1      34.817 -14.434 -22.773  0.00  0.00    -0.275 OA
ATOM     22  N   UNL     1      32.587 -13.809 -23.170  0.00  0.00    -0.284 N 
ATOM     23  C   UNL     1      33.773 -14.489 -23.416  0.00  0.00    +0.227 C 
ATOM     24  H   UNL     1      31.857 -13.963 -23.814  0.00  0.00    +0.155 HD
BRANCH  22  25
ATOM     25  C   UNL     1      32.302 -12.924 -22.106  0.00  0.00    +0.053 C 
ATOM     26  C   UNL     1      31.996 -11.589 -22.371  0.00  0.00    +0.052 C 
ATOM     27  C   UNL     1      31.716 -10.715 -21.320  0.00  0.00    +0.140 C 
ATOM     28  C   UNL     1      32.326 -13.386 -20.790  0.00  0.00    +0.015 C 
ATOM     29  C   UNL     1      31.740 -11.178 -20.004  0.00  0.00    +0.037 C 
ATOM     30  C   UNL     1      32.045 -12.513 -19.738  0.00  0.00    +0.004 C 
BRANCH  27  31
ATOM     31  O   UNL     1      31.418  -9.413 -21.578  0.00  0.00    -0.472 OA
BRANCH  31  32
ATOM     32  C   UNL     1      32.041  -8.818 -22.715  0.00  0.00    +0.243 C 
BRANCH  32  34
ATOM     33  F   UNL     1      30.137  -7.526 -23.120  0.00  0.00    -0.230 F 
ATOM     34  C   UNL     1      31.479  -7.427 -22.907  0.00  0.00    +0.240 C 
ENDBRANCH  32  34
ENDBRANCH  31  32
ENDBRANCH  27  31
ENDBRANCH  22  25
ENDBRANCH  20  23
ENDBRANCH  19  20
ENDBRANCH   3  19
TORSDOF 8
ENDMDL
MODEL 3
REMARK VINA RESULT:     -11.5      2.831      4.109
REMARK  Name = 24883488
REMARK  8 active torsions:
REMARK  status: ('A' for Active; 'I' for Inactive)
REMARK    1  A    between atoms: N_2  and  C_11
REMARK    2  A    between atoms: C_3  and  C_19
REMARK    3  A    between atoms: C_19  and  C_20
REMARK    4  A    between atoms: C_20  and  C_23
REMARK    5  A    between atoms: N_22  and  C_25
REMARK    6  A    between atoms: C_27  and  O_31
REMARK    7  A    between atoms: O_31  and  C_32
REMARK    8  A    between atoms: C_32  and  C_34
REMARK                            x       y       z     vdW  Elec       q    Type
REMARK                         _______ _______ _______ _____ _____    ______ ____
ROOT
ATOM      1  O   UNL     1      36.556 -21.985 -16.574  0.00  0.00    -0.275 OA
ATOM      2  N   UNL     1      34.531 -22.389 -17.704  0.00  0.00    -0.284 N 
ATOM      3  C   UNL     1      35.863 -21.973 -17.586  0.00  0.00    +0.227 C 
ATOM      4  H   UNL     1      34.125 -22.283 -18.595  0.00  0.00    +0.155 HD
ENDROOT
BRANCH   2  11
ATOM      5  O   UNL     1      29.499 -22.590 -16.845  0.00  0.00    -0.282 OA
ATOM      6  O   UNL     1      31.687 -25.225 -12.753  0.00  0.00    -0.270 OA
ATOM      7  O   UNL     1      27.951 -23.637 -14.963  0.00  0.00    -0.266 OA
ATOM      8  N   UNL     1      29.823 -24.436 -13.846  0.00  0.00    -0.246 N 
ATOM      9  C   UNL     1      31.497 -23.338 -15.825  0.00  0.00    +0.049 C 
ATOM     10  C   UNL     1      32.052 -24.031 -14.749  0.00  0.00    +0.057 C 
ATOM     11  C   UNL     1      33.705 -22.934 -16.720  0.00  0.00    +0.050 C 
ATOM     12  C   UNL     1      32.321 -22.788 -16.813  0.00  0.00    +0.018 C 
ATOM     13  C   UNL     1      33.441 -24.173 -14.661  0.00  0.00    +0.006 C 
ATOM     14  C   UNL     1      34.265 -23.625 -15.647  0.00  0.00    +0.015 C 
ATOM     15  C   UNL     1      30.040 -23.184 -15.926  0.00  0.00    +0.249 C 
ATOM     16  C   UNL     1      31.194 -24.616 -13.698  0.00  0.00    +0.252 C 
ATOM     17  C   UNL     1      29.161 -23.774 -14.864  0.00  0.00    +0.291 C 
ATOM     18  H   UNL     1      29.256 -24.828 -13.144  0.00  0.00    +0.158 HD
ENDBRANCH   2  11
BRANCH   3  19
ATOM     19  C   UNL     1      36.417 -21.432 -18.894  0.00  0.00    +0.095 C 
BRANCH  19  20
ATOM     20  C   UNL     1      35.298 -21.146 -19.893  0.00  0.00    +0.095 C 
BRANCH  20  23
ATOM     21  O   UNL     1      36.592 -19.224 -20.481  0.00  0.00    -0.275 OA
ATOM     22  N   UNL     1      34.610 -19.665 -21.664  0.00  0.00    -0.284 N 
ATOM     23  C   UNL     1      35.584 -19.890 -20.699  0.00  0.00    +0.227 C 
ATOM     24  H   UNL     1      33.880 -20.325 -21.706  0.00  0.00    +0.155 HD
BRANCH  22  25
ATOM     25  C   UNL     1      34.542 -18.603 -22.594  0.00  0.00    +0.053 C 
ATOM     26  C   UNL     1      34.879 -17.308 -22.200  0.00  0.00    +0.052 C 
ATOM     27  C   UNL     1      34.812 -16.259 -23.117  0.00  0.00    +0.140 C 
ATOM     28  C   UNL     1      34.138 -18.849 -23.906  0.00  0.00    +0.015 C 
ATOM     29  C   UNL     1      34.408 -16.506 -24.430  0.00  0.00    +0.037 C 
ATOM     30  C   UNL     1      34.071 -17.801 -24.824  0.00  0.00    +0.004 C 
BRANCH  27  31
ATOM     31  O   UNL     1      35.140 -14.996 -22.733  0.00  0.00    -0.472 OA
BRANCH  31  32
ATOM     32  C   UNL     1      34.262 -13.946 -23.137  0.00  0.00    +0.243 C 
BRANCH  32  34
ATOM     33  F   UNL     1      33.842 -13.814 -20.843  0.00  0.00    -0.230 F 
ATOM     34  C   UNL     1      33.227 -13.733 -22.055  0.00  0.00    +0.240 C 
ENDBRANCH  32  34
ENDBRANCH  31  32
ENDBRANCH  27  31
ENDBRANCH  22  25
ENDBRANCH  20  23
ENDBRANCH  19  20
ENDBRANCH   3  19
TORSDOF 8
ENDMDL
MODEL 4
REMARK VINA RESULT:     -11.4      1.259      2.304
REMARK  Name = 24883488
REMARK  8 active torsions:
REMARK  status: ('A' for Active; 'I' for Inactive)
REMARK    1  A    between atoms: N_2  and  C_11
REMARK    2  A    between atoms: C_3  and  C_19
REMARK    3  A    between atoms: C_19  and  C_20
REMARK    4  A    between atoms: C_20  and  C_23
REMARK    5  A    between atoms: N_22  and  C_25
REMARK    6  A    between atoms: C_27  and  O_31
REMARK    7  A    between atoms: O_31  and  C_32
REMARK    8  A    between atoms: C_32  and  C_34
REMARK                            x       y       z     vdW  Elec       q    Type
REMARK                         _______ _______ _______ _____ _____    ______ ____
ROOT
ATOM      1  O   UNL     1      33.850 -23.434 -18.545  0.00  0.00    -0.275 OA
ATOM      2  N   UNL     1      35.241 -22.079 -17.215  0.00  0.00    -0.284 N 
ATOM      3  C   UNL     1      34.524 -22.425 -18.367  0.00  0.00    +0.227 C 
ATOM      4  H   UNL     1      35.748 -21.237 -17.262  0.00  0.00    +0.155 HD
ENDROOT
BRANCH   2  11
ATOM      5  O   UNL     1      38.904 -24.596 -14.696  0.00  0.00    -0.282 OA
ATOM      6  O   UNL     1      34.588 -24.996 -11.584  0.00  0.00    -0.270 OA
ATOM      7  O   UNL     1      39.044 -25.913 -12.398  0.00  0.00    -0.266 OA
ATOM      8  N   UNL     1      36.805 -25.458 -11.984  0.00  0.00    -0.246 N 
ATOM      9  C   UNL     1      36.620 -24.053 -14.415  0.00  0.00    +0.049 C 
ATOM     10  C   UNL     1      35.501 -24.167 -13.589  0.00  0.00    +0.057 C 
ATOM     11  C   UNL     1      35.328 -22.775 -16.009  0.00  0.00    +0.050 C 
ATOM     12  C   UNL     1      36.536 -23.358 -15.627  0.00  0.00    +0.018 C 
ATOM     13  C   UNL     1      34.291 -23.581 -13.979  0.00  0.00    +0.006 C 
ATOM     14  C   UNL     1      34.208 -22.886 -15.187  0.00  0.00    +0.015 C 
ATOM     15  C   UNL     1      37.893 -24.665 -14.015  0.00  0.00    +0.249 C 
ATOM     16  C   UNL     1      35.574 -24.899 -12.308  0.00  0.00    +0.252 C 
ATOM     17  C   UNL     1      37.977 -25.411 -12.717  0.00  0.00    +0.291 C 
ATOM     18  H   UNL     1      36.849 -25.944 -11.129  0.00  0.00    +0.158 HD
ENDBRANCH   2  11
BRANCH   3  19
ATOM     19  C   UNL     1      34.684 -21.399 -19.477  0.00  0.00    +0.095 C 
BRANCH  19  20
ATOM     20  C   UNL     1      36.132 -20.928 -19.591  0.00  0.00    +0.095 C 
BRANCH  20  23
ATOM     21  O   UNL     1      37.335 -19.206 -20.731  0.00  0.00    -0.275 OA
ATOM     22  N   UNL     1      35.091 -19.597 -21.308  0.00  0.00    -0.284 N 
ATOM     23  C   UNL     1      36.269 -19.799 -20.599  0.00  0.00    +0.227 C 
ATOM     24  H   UNL     1      34.339 -20.190 -21.078  0.00  0.00    +0.155 HD
BRANCH  22  25
ATOM     25  C   UNL     1      34.844 -18.642 -22.320  0.00  0.00    +0.053 C 
ATOM     26  C   UNL     1      35.071 -17.288 -22.073  0.00  0.00    +0.052 C 
ATOM     27  C   UNL     1      34.826 -16.346 -23.072  0.00  0.00    +0.140 C 
ATOM     28  C   UNL     1      34.372 -19.054 -23.567  0.00  0.00    +0.015 C 
ATOM     29  C   UNL     1      34.355 -16.758 -24.319  0.00  0.00    +0.037 C 
ATOM     30  C   UNL     1      34.128 -18.112 -24.566  0.00  0.00    +0.004 C 
BRANCH  27  31
ATOM     31  O   UNL     1      35.048 -15.025 -22.832  0.00  0.00    -0.472 OA
BRANCH  31  32
ATOM     32  C   UNL     1      33.904 -14.174 -22.779  0.00  0.00    +0.243 C 
BRANCH  32  34
ATOM     33  F   UNL     1      34.632 -14.284 -20.562  0.00  0.00    -0.230 F 
ATOM     34  C   UNL     1      33.584 -13.876 -21.331  0.00  0.00    +0.240 C 
ENDBRANCH  32  34
ENDBRANCH  31  32
ENDBRANCH  27  31
ENDBRANCH  22  25
ENDBRANCH  20  23
ENDBRANCH  19  20
ENDBRANCH   3  19
TORSDOF 8
ENDMDL
MODEL 5
REMARK VINA RESULT:     -11.3      2.375      4.378
REMARK  Name = 24883488
REMARK  8 active torsions:
REMARK  status: ('A' for Active; 'I' for Inactive)
REMARK    1  A    between atoms: N_2  and  C_11
REMARK    2  A    between atoms: C_3  and  C_19
REMARK    3  A    between atoms: C_19  and  C_20
REMARK    4  A    between atoms: C_20  and  C_23
REMARK    5  A    between atoms: N_22  and  C_25
REMARK    6  A    between atoms: C_27  and  O_31
REMARK    7  A    between atoms: O_31  and  C_32
REMARK    8  A    between atoms: C_32  and  C_34
REMARK                            x       y       z     vdW  Elec       q    Type
REMARK                         _______ _______ _______ _____ _____    ______ ____
ROOT
ATOM      1  O   UNL     1      37.227 -18.979 -19.895  0.00  0.00    -0.275 OA
ATOM      2  N   UNL     1      35.476 -20.409 -20.555  0.00  0.00    -0.284 N 
ATOM      3  C   UNL     1      36.445 -19.413 -20.735  0.00  0.00    +0.227 C 
ATOM      4  H   UNL     1      34.918 -20.611 -21.341  0.00  0.00    +0.155 HD
ENDROOT
BRANCH   2  11
ATOM      5  O   UNL     1      38.122 -21.928 -16.457  0.00  0.00    -0.282 OA
ATOM      6  O   UNL     1      33.207 -23.866 -15.703  0.00  0.00    -0.270 OA
ATOM      7  O   UNL     1      37.572 -23.338 -14.279  0.00  0.00    -0.266 OA
ATOM      8  N   UNL     1      35.378 -23.609 -14.989  0.00  0.00    -0.246 N 
ATOM      9  C   UNL     1      35.925 -22.118 -17.313  0.00  0.00    +0.049 C 
ATOM     10  C   UNL     1      34.646 -22.631 -17.100  0.00  0.00    +0.057 C 
ATOM     11  C   UNL     1      35.201 -21.150 -19.406  0.00  0.00    +0.050 C 
ATOM     12  C   UNL     1      36.207 -21.376 -18.466  0.00  0.00    +0.018 C 
ATOM     13  C   UNL     1      33.641 -22.401 -18.047  0.00  0.00    +0.006 C 
ATOM     14  C   UNL     1      33.921 -21.660 -19.197  0.00  0.00    +0.015 C 
ATOM     15  C   UNL     1      36.985 -22.354 -16.324  0.00  0.00    +0.249 C 
ATOM     16  C   UNL     1      34.335 -23.417 -15.887  0.00  0.00    +0.252 C 
ATOM     17  C   UNL     1      36.679 -23.151 -15.092  0.00  0.00    +0.291 C 
ATOM     18  H   UNL     1      35.166 -24.133 -14.183  0.00  0.00    +0.158 HD
ENDBRANCH   2  11
BRANCH   3  19
ATOM     19  C   UNL     1      36.430 -18.840 -22.143  0.00  0.00    +0.095 C 
BRANCH  19  20
ATOM     20  C   UNL     1      35.338 -19.486 -22.992  0.00  0.00    +0.095 C 
BRANCH  20  23
ATOM     21  O   UNL     1      33.360 -18.770 -24.127  0.00  0.00    -0.275 OA
ATOM     22  N   UNL     1      34.921 -17.155 -23.436  0.00  0.00    -0.284 N 
ATOM     23  C   UNL     1      34.418 -18.440 -23.599  0.00  0.00    +0.227 C 
ATOM     24  H   UNL     1      35.783 -17.083 -22.963  0.00  0.00    +0.155 HD
BRANCH  22  25
ATOM     25  C   UNL     1      34.345 -15.939 -23.867  0.00  0.00    +0.053 C 
ATOM     26  C   UNL     1      34.114 -14.912 -22.952  0.00  0.00    +0.052 C 
ATOM     27  C   UNL     1      33.545 -13.712 -23.377  0.00  0.00    +0.140 C 
ATOM     28  C   UNL     1      34.006 -15.765 -25.209  0.00  0.00    +0.015 C 
ATOM     29  C   UNL     1      33.206 -13.539 -24.720  0.00  0.00    +0.037 C 
ATOM     30  C   UNL     1      33.437 -14.565 -25.636  0.00  0.00    +0.004 C 
BRANCH  27  31
ATOM     31  O   UNL     1      33.320 -12.710 -22.484  0.00  0.00    -0.472 OA
BRANCH  31  32
ATOM     32  C   UNL     1      32.010 -12.621 -21.925  0.00  0.00    +0.243 C 
BRANCH  32  34
ATOM     33  F   UNL     1      32.183 -14.085 -20.113  0.00  0.00    -0.230 F 
ATOM     34  C   UNL     1      32.111 -12.761 -20.423  0.00  0.00    +0.240 C 
ENDBRANCH  32  34
ENDBRANCH  31  32
ENDBRANCH  27  31
ENDBRANCH  22  25
ENDBRANCH  20  23
ENDBRANCH  19  20
ENDBRANCH   3  19
TORSDOF 8
ENDMDL
MODEL 6
REMARK VINA RESULT:     -11.3      3.385     11.724
REMARK  Name = 24883488
REMARK  8 active torsions:
REMARK  status: ('A' for Active; 'I' for Inactive)
REMARK    1  A    between atoms: N_2  and  C_11
REMARK    2  A    between atoms: C_3  and  C_19
REMARK    3  A    between atoms: C_19  and  C_20
REMARK    4  A    between atoms: C_20  and  C_23
REMARK    5  A    between atoms: N_22  and  C_25
REMARK    6  A    between atoms: C_27  and  O_31
REMARK    7  A    between atoms: O_31  and  C_32
REMARK    8  A    between atoms: C_32  and  C_34
REMARK                            x       y       z     vdW  Elec       q    Type
REMARK                         _______ _______ _______ _____ _____    ______ ____
ROOT
ATOM      1  O   UNL     1      37.547 -18.750 -21.125  0.00  0.00    -0.275 OA
ATOM      2  N   UNL     1      35.227 -19.064 -21.372  0.00  0.00    -0.284 N 
ATOM      3  C   UNL     1      36.497 -19.315 -20.837  0.00  0.00    +0.227 C 
ATOM      4  H   UNL     1      34.499 -19.637 -21.038  0.00  0.00    +0.155 HD
ENDROOT
BRANCH   2  11
ATOM      5  O   UNL     1      34.630 -13.990 -21.407  0.00  0.00    -0.282 OA
ATOM      6  O   UNL     1      33.482 -15.533 -26.385  0.00  0.00    -0.270 OA
ATOM      7  O   UNL     1      33.935 -12.189 -23.226  0.00  0.00    -0.266 OA
ATOM      8  N   UNL     1      33.704 -13.864 -24.818  0.00  0.00    -0.246 N 
ATOM      9  C   UNL     1      34.437 -15.803 -22.914  0.00  0.00    +0.049 C 
ATOM     10  C   UNL     1      34.134 -16.188 -24.220  0.00  0.00    +0.057 C 
ATOM     11  C   UNL     1      34.862 -18.106 -22.319  0.00  0.00    +0.050 C 
ATOM     12  C   UNL     1      34.801 -16.760 -21.960  0.00  0.00    +0.018 C 
ATOM     13  C   UNL     1      34.197 -17.541 -24.573  0.00  0.00    +0.006 C 
ATOM     14  C   UNL     1      34.561 -18.497 -23.623  0.00  0.00    +0.015 C 
ATOM     15  C   UNL     1      34.374 -14.385 -22.534  0.00  0.00    +0.249 C 
ATOM     16  C   UNL     1      33.747 -15.189 -25.237  0.00  0.00    +0.252 C 
ATOM     17  C   UNL     1      33.982 -13.364 -23.559  0.00  0.00    +0.291 C 
ATOM     18  H   UNL     1      33.446 -13.202 -25.499  0.00  0.00    +0.158 HD
ENDBRANCH   2  11
BRANCH   3  19
ATOM     19  C   UNL     1      36.483 -20.449 -19.825  0.00  0.00    +0.095 C 
BRANCH  19  20
ATOM     20  C   UNL     1      35.088 -21.054 -19.690  0.00  0.00    +0.095 C 
BRANCH  20  23
ATOM     21  O   UNL     1      34.530 -23.246 -18.917  0.00  0.00    -0.275 OA
ATOM     22  N   UNL     1      35.735 -21.814 -17.498  0.00  0.00    -0.284 N 
ATOM     23  C   UNL     1      35.067 -22.173 -18.662  0.00  0.00    +0.227 C 
ATOM     24  H   UNL     1      36.126 -20.910 -17.483  0.00  0.00    +0.155 HD
BRANCH  22  25
ATOM     25  C   UNL     1      35.921 -22.591 -16.332  0.00  0.00    +0.053 C 
ATOM     26  C   UNL     1      37.210 -22.883 -15.885  0.00  0.00    +0.052 C 
ATOM     27  C   UNL     1      37.393 -23.651 -14.735  0.00  0.00    +0.140 C 
ATOM     28  C   UNL     1      34.815 -23.067 -15.628  0.00  0.00    +0.015 C 
ATOM     29  C   UNL     1      36.286 -24.126 -14.031  0.00  0.00    +0.037 C 
ATOM     30  C   UNL     1      34.997 -23.834 -14.477  0.00  0.00    +0.004 C 
BRANCH  27  31
ATOM     31  O   UNL     1      38.650 -23.936 -14.299  0.00  0.00    -0.472 OA
BRANCH  31  32
ATOM     32  C   UNL     1      38.810 -25.110 -13.503  0.00  0.00    +0.243 C 
BRANCH  32  34
ATOM     33  F   UNL     1      40.554 -25.202 -15.055  0.00  0.00    -0.230 F 
ATOM     34  C   UNL     1      40.001 -25.888 -14.016  0.00  0.00    +0.240 C 
ENDBRANCH  32  34
ENDBRANCH  31  32
ENDBRANCH  27  31
ENDBRANCH  22  25
ENDBRANCH  20  23
ENDBRANCH  19  20
ENDBRANCH   3  19
TORSDOF 8
ENDMDL
MODEL 7
REMARK VINA RESULT:     -11.3      3.877     11.389
REMARK  Name = 24883488
REMARK  8 active torsions:
REMARK  status: ('A' for Active; 'I' for Inactive)
REMARK    1  A    between atoms: N_2  and  C_11
REMARK    2  A    between atoms: C_3  and  C_19
REMARK    3  A    between atoms: C_19  and  C_20
REMARK    4  A    between atoms: C_20  and  C_23
REMARK    5  A    between atoms: N_22  and  C_25
REMARK    6  A    between atoms: C_27  and  O_31
REMARK    7  A    between atoms: O_31  and  C_32
REMARK    8  A    between atoms: C_32  and  C_34
REMARK                            x       y       z     vdW  Elec       q    Type
REMARK                         _______ _______ _______ _____ _____    ______ ____
ROOT
ATOM      1  O   UNL     1      33.560 -20.190 -20.617  0.00  0.00    -0.275 OA
ATOM      2  N   UNL     1      35.516 -19.133 -21.391  0.00  0.00    -0.284 N 
ATOM      3  C   UNL     1      34.779 -20.051 -20.633  0.00  0.00    +0.227 C 
ATOM      4  H   UNL     1      36.491 -19.148 -21.255  0.00  0.00    +0.155 HD
ENDROOT
BRANCH   2  11
ATOM      5  O   UNL     1      34.692 -14.091 -21.406  0.00  0.00    -0.282 OA
ATOM      6  O   UNL     1      33.281 -15.717 -26.289  0.00  0.00    -0.270 OA
ATOM      7  O   UNL     1      33.796 -12.335 -23.181  0.00  0.00    -0.266 OA
ATOM      8  N   UNL     1      33.533 -14.030 -24.746  0.00  0.00    -0.246 N 
ATOM      9  C   UNL     1      34.479 -15.921 -22.889  0.00  0.00    +0.049 C 
ATOM     10  C   UNL     1      34.106 -16.328 -24.170  0.00  0.00    +0.057 C 
ATOM     11  C   UNL     1      35.045 -18.199 -22.315  0.00  0.00    +0.050 C 
ATOM     12  C   UNL     1      34.948 -16.854 -21.958  0.00  0.00    +0.018 C 
ATOM     13  C   UNL     1      34.205 -17.680 -24.521  0.00  0.00    +0.006 C 
ATOM     14  C   UNL     1      34.675 -18.612 -23.594  0.00  0.00    +0.015 C 
ATOM     15  C   UNL     1      34.378 -14.505 -22.511  0.00  0.00    +0.249 C 
ATOM     16  C   UNL     1      33.607 -15.354 -25.162  0.00  0.00    +0.252 C 
ATOM     17  C   UNL     1      33.872 -13.509 -23.511  0.00  0.00    +0.291 C 
ATOM     18  H   UNL     1      33.200 -13.385 -25.412  0.00  0.00    +0.158 HD
ENDBRANCH   2  11
BRANCH   3  19
ATOM     19  C   UNL     1      35.663 -20.901 -19.735  0.00  0.00    +0.095 C 
BRANCH  19  20
ATOM     20  C   UNL     1      35.031 -22.264 -19.466  0.00  0.00    +0.095 C 
BRANCH  20  23
ATOM     21  O   UNL     1      35.705 -22.310 -17.173  0.00  0.00    -0.275 OA
ATOM     22  N   UNL     1      33.481 -22.841 -17.714  0.00  0.00    -0.284 N 
ATOM     23  C   UNL     1      34.797 -22.481 -17.980  0.00  0.00    +0.227 C 
ATOM     24  H   UNL     1      32.884 -22.909 -18.495  0.00  0.00    +0.155 HD
BRANCH  22  25
ATOM     25  C   UNL     1      32.898 -23.122 -16.458  0.00  0.00    +0.053 C 
ATOM     26  C   UNL     1      31.548 -22.849 -16.238  0.00  0.00    +0.052 C 
ATOM     27  C   UNL     1      30.972 -23.125 -14.998  0.00  0.00    +0.140 C 
ATOM     28  C   UNL     1      33.673 -23.672 -15.437  0.00  0.00    +0.015 C 
ATOM     29  C   UNL     1      31.748 -23.676 -13.977  0.00  0.00    +0.037 C 
ATOM     30  C   UNL     1      33.098 -23.949 -14.196  0.00  0.00    +0.004 C 
BRANCH  27  31
ATOM     31  O   UNL     1      29.655 -22.859 -14.783  0.00  0.00    -0.472 OA
BRANCH  31  32
ATOM     32  C   UNL     1      28.709 -23.743 -15.381  0.00  0.00    +0.243 C 
BRANCH  32  34
ATOM     33  F   UNL     1      26.754 -22.478 -15.568  0.00  0.00    -0.230 F 
ATOM     34  C   UNL     1      27.806 -22.946 -16.295  0.00  0.00    +0.240 C 
ENDBRANCH  32  34
ENDBRANCH  31  32
ENDBRANCH  27  31
ENDBRANCH  22  25
ENDBRANCH  20  23
ENDBRANCH  19  20
ENDBRANCH   3  19
TORSDOF 8
ENDMDL
MODEL 8
REMARK VINA RESULT:     -11.2      4.692      7.983
REMARK  Name = 24883488
REMARK  8 active torsions:
REMARK  status: ('A' for Active; 'I' for Inactive)
REMARK    1  A    between atoms: N_2  and  C_11
REMARK    2  A    between atoms: C_3  and  C_19
REMARK    3  A    between atoms: C_19  and  C_20
REMARK    4  A    between atoms: C_20  and  C_23
REMARK    5  A    between atoms: N_22  and  C_25
REMARK    6  A    between atoms: C_27  and  O_31
REMARK    7  A    between atoms: O_31  and  C_32
REMARK    8  A    between atoms: C_32  and  C_34
REMARK                            x       y       z     vdW  Elec       q    Type
REMARK                         _______ _______ _______ _____ _____    ______ ____
ROOT
ATOM      1  O   UNL     1      34.223 -18.187 -24.671  0.00  0.00    -0.275 OA
ATOM      2  N   UNL     1      35.247 -17.165 -22.814  0.00  0.00    -0.284 N 
ATOM      3  C   UNL     1      34.674 -17.205 -24.091  0.00  0.00    +0.227 C 
ATOM      4  H   UNL     1      35.580 -16.286 -22.520  0.00  0.00    +0.155 HD
ENDROOT
BRANCH   2  11
ATOM      5  O   UNL     1      32.141 -20.417 -20.390  0.00  0.00    -0.282 OA
ATOM      6  O   UNL     1      37.043 -21.728 -18.740  0.00  0.00    -0.270 OA
ATOM      7  O   UNL     1      32.471 -22.403 -18.664  0.00  0.00    -0.266 OA
ATOM      8  N   UNL     1      34.769 -22.069 -18.696  0.00  0.00    -0.246 N 
ATOM      9  C   UNL     1      34.456 -19.955 -20.528  0.00  0.00    +0.049 C 
ATOM     10  C   UNL     1      35.730 -20.311 -20.087  0.00  0.00    +0.057 C 
ATOM     11  C   UNL     1      35.407 -18.211 -21.905  0.00  0.00    +0.050 C 
ATOM     12  C   UNL     1      34.290 -18.904 -21.437  0.00  0.00    +0.018 C 
ATOM     13  C   UNL     1      36.846 -19.611 -20.559  0.00  0.00    +0.006 C 
ATOM     14  C   UNL     1      36.682 -18.564 -21.468  0.00  0.00    +0.015 C 
ATOM     15  C   UNL     1      33.279 -20.683 -20.037  0.00  0.00    +0.249 C 
ATOM     16  C   UNL     1      35.920 -21.417 -19.126  0.00  0.00    +0.252 C 
ATOM     17  C   UNL     1      33.461 -21.807 -19.062  0.00  0.00    +0.291 C 
ATOM     18  H   UNL     1      34.901 -22.805 -18.056  0.00  0.00    +0.158 HD
ENDBRANCH   2  11
BRANCH   3  19
ATOM     19  C   UNL     1      34.687 -15.846 -24.773  0.00  0.00    +0.095 C 
BRANCH  19  20
ATOM     20  C   UNL     1      33.511 -14.986 -24.317  0.00  0.00    +0.095 C 
BRANCH  20  23
ATOM     21  O   UNL     1      34.675 -13.765 -22.624  0.00  0.00    -0.275 OA
ATOM     22  N   UNL     1      33.575 -12.578 -24.328  0.00  0.00    -0.284 N 
ATOM     23  C   UNL     1      33.987 -13.712 -23.639  0.00  0.00    +0.227 C 
ATOM     24  H   UNL     1      33.044 -12.734 -25.143  0.00  0.00    +0.155 HD
BRANCH  22  25
ATOM     25  C   UNL     1      33.828 -11.227 -24.000  0.00  0.00    +0.053 C 
ATOM     26  C   UNL     1      32.904 -10.508 -23.242  0.00  0.00    +0.052 C 
ATOM     27  C   UNL     1      33.153  -9.174 -22.918  0.00  0.00    +0.140 C 
ATOM     28  C   UNL     1      35.002 -10.612 -24.434  0.00  0.00    +0.015 C 
ATOM     29  C   UNL     1      34.328  -8.559 -23.352  0.00  0.00    +0.037 C 
ATOM     30  C   UNL     1      35.252  -9.278 -24.111  0.00  0.00    +0.004 C 
BRANCH  27  31
ATOM     31  O   UNL     1      32.251  -8.473 -22.178  0.00  0.00    -0.472 OA
BRANCH  31  32
ATOM     32  C   UNL     1      32.631  -7.161 -21.766  0.00  0.00    +0.243 C 
BRANCH  32  34
ATOM     33  F   UNL     1      33.250  -7.218 -19.514  0.00  0.00    -0.230 F 
ATOM     34  C   UNL     1      32.194  -6.955 -20.333  0.00  0.00    +0.240 C 
ENDBRANCH  32  34
ENDBRANCH  31  32
ENDBRANCH  27  31
ENDBRANCH  22  25
ENDBRANCH  20  23
ENDBRANCH  19  20
ENDBRANCH   3  19
TORSDOF 8
ENDMDL
MODEL 9
REMARK VINA RESULT:     -11.1      2.631      4.269
REMARK  Name = 24883488
REMARK  8 active torsions:
REMARK  status: ('A' for Active; 'I' for Inactive)
REMARK    1  A    between atoms: N_2  and  C_11
REMARK    2  A    between atoms: C_3  and  C_19
REMARK    3  A    between atoms: C_19  and  C_20
REMARK    4  A    between atoms: C_20  and  C_23
REMARK    5  A    between atoms: N_22  and  C_25
REMARK    6  A    between atoms: C_27  and  O_31
REMARK    7  A    between atoms: O_31  and  C_32
REMARK    8  A    between atoms: C_32  and  C_34
REMARK                            x       y       z     vdW  Elec       q    Type
REMARK                         _______ _______ _______ _____ _____    ______ ____
ROOT
ATOM      1  O   UNL     1      37.228 -18.600 -19.910  0.00  0.00    -0.275 OA
ATOM      2  N   UNL     1      35.910 -20.469 -20.471  0.00  0.00    -0.284 N 
ATOM      3  C   UNL     1      36.616 -19.286 -20.723  0.00  0.00    +0.227 C 
ATOM      4  H   UNL     1      35.456 -20.871 -21.247  0.00  0.00    +0.155 HD
ENDROOT
BRANCH   2  11
ATOM      5  O   UNL     1      32.038 -22.574 -17.889  0.00  0.00    -0.282 OA
ATOM      6  O   UNL     1      36.337 -23.445 -14.849  0.00  0.00    -0.270 OA
ATOM      7  O   UNL     1      31.793 -23.867 -15.585  0.00  0.00    -0.266 OA
ATOM      8  N   UNL     1      34.075 -23.657 -15.208  0.00  0.00    -0.246 N 
ATOM      9  C   UNL     1      34.371 -22.281 -17.645  0.00  0.00    +0.049 C 
ATOM     10  C   UNL     1      35.485 -22.517 -16.839  0.00  0.00    +0.057 C 
ATOM     11  C   UNL     1      35.767 -21.149 -19.262  0.00  0.00    +0.050 C 
ATOM     12  C   UNL     1      34.509 -21.596 -18.858  0.00  0.00    +0.018 C 
ATOM     13  C   UNL     1      36.745 -22.066 -17.249  0.00  0.00    +0.006 C 
ATOM     14  C   UNL     1      36.883 -21.384 -18.460  0.00  0.00    +0.015 C 
ATOM     15  C   UNL     1      33.046 -22.751 -17.223  0.00  0.00    +0.249 C 
ATOM     16  C   UNL     1      35.354 -23.238 -15.555  0.00  0.00    +0.252 C 
ATOM     17  C   UNL     1      32.903 -23.482 -15.922  0.00  0.00    +0.291 C 
ATOM     18  H   UNL     1      33.993 -24.137 -14.353  0.00  0.00    +0.158 HD
ENDBRANCH   2  11
BRANCH   3  19
ATOM     19  C   UNL     1      36.531 -18.861 -22.180  0.00  0.00    +0.095 C 
BRANCH  19  20
ATOM     20  C   UNL     1      35.344 -19.519 -22.880  0.00  0.00    +0.095 C 
BRANCH  20  23
ATOM     21  O   UNL     1      33.368 -18.818 -24.028  0.00  0.00    -0.275 OA
ATOM     22  N   UNL     1      34.924 -17.193 -23.349  0.00  0.00    -0.284 N 
ATOM     23  C   UNL     1      34.423 -18.481 -23.500  0.00  0.00    +0.227 C 
ATOM     24  H   UNL     1      35.783 -17.115 -22.874  0.00  0.00    +0.155 HD
BRANCH  22  25
ATOM     25  C   UNL     1      34.346 -15.983 -23.794  0.00  0.00    +0.053 C 
ATOM     26  C   UNL     1      34.120 -14.944 -22.891  0.00  0.00    +0.052 C 
ATOM     27  C   UNL     1      33.549 -13.749 -23.330  0.00  0.00    +0.140 C 
ATOM     28  C   UNL     1      34.001 -15.827 -25.136  0.00  0.00    +0.015 C 
ATOM     29  C   UNL     1      33.204 -13.594 -24.674  0.00  0.00    +0.037 C 
ATOM     30  C   UNL     1      33.431 -14.633 -25.577  0.00  0.00    +0.004 C 
BRANCH  27  31
ATOM     31  O   UNL     1      33.328 -12.735 -22.450  0.00  0.00    -0.472 OA
BRANCH  31  32
ATOM     32  C   UNL     1      32.003 -12.595 -21.940  0.00  0.00    +0.243 C 
BRANCH  32  34
ATOM     33  F   UNL     1      32.030 -13.999 -20.073  0.00  0.00    -0.230 F 
ATOM     34  C   UNL     1      32.048 -12.685 -20.432  0.00  0.00    +0.240 C 
ENDBRANCH  32  34
ENDBRANCH  31  32
ENDBRANCH  27  31
ENDBRANCH  22  25
ENDBRANCH  20  23
ENDBRANCH  19  20
ENDBRANCH   3  19
TORSDOF 8
ENDMDL
