MODEL 1
REMARK VINA RESULT:     -12.3      0.000      0.000
REMARK  Name = 24779676
REMARK  4 active torsions:
REMARK  status: ('A' for Active; 'I' for Inactive)
REMARK    1  A    between atoms: N_2  and  C_22
REMARK    2  A    between atoms: N_3  and  C_14
REMARK    3  A    between atoms: C_10  and  C_21
REMARK    4  A    between atoms: C_22  and  C_24
REMARK                            x       y       z     vdW  Elec       q    Type
REMARK                         _______ _______ _______ _____ _____    ______ ____
ROOT
ATOM      1  N   UNL     1      32.610 -24.035 -14.061  0.00  0.00    -0.123 N 
ATOM      2  N   UNL     1      34.071 -22.825 -17.586  0.00  0.00    -0.254 N 
ATOM      3  N   UNL     1      34.705 -24.876 -13.371  0.00  0.00    -0.274 N 
ATOM      4  N   UNL     1      34.394 -23.850 -15.484  0.00  0.00    -0.295 NA
ATOM      5  N   UNL     1      32.258 -23.011 -16.149  0.00  0.00    -0.314 NA
ATOM      6  N   UNL     1      32.014 -24.398 -12.912  0.00  0.00    -0.170 NA
ATOM      7  C   UNL     1      33.952 -24.255 -14.328  0.00  0.00    +0.279 C 
ATOM      8  C   UNL     1      31.779 -23.424 -14.955  0.00  0.00    +0.219 C 
ATOM      9  C   UNL     1      33.533 -23.228 -16.386  0.00  0.00    +0.203 C 
ATOM     10  C   UNL     1      30.546 -23.387 -14.344  0.00  0.00    +0.203 C 
ATOM     11  C   UNL     1      30.751 -23.999 -13.091  0.00  0.00    +0.116 C 
ATOM     12  H   UNL     1      35.026 -22.990 -17.760  0.00  0.00    +0.161 HD
ATOM     13  H   UNL     1      34.241 -25.130 -12.540  0.00  0.00    +0.156 HD
ENDROOT
BRANCH   3  14
ATOM     14  C   UNL     1      36.064 -25.190 -13.444  0.00  0.00    +0.051 C 
ATOM     15  C   UNL     1      36.494 -26.240 -14.256  0.00  0.00    +0.015 C 
ATOM     16  C   UNL     1      36.990 -24.454 -12.705  0.00  0.00    +0.015 C 
ATOM     17  C   UNL     1      37.851 -26.553 -14.329  0.00  0.00    +0.001 C 
ATOM     18  C   UNL     1      38.348 -24.767 -12.780  0.00  0.00    +0.001 C 
ATOM     19  C   UNL     1      38.778 -25.817 -13.591  0.00  0.00    +0.000 C 
ENDBRANCH   3  14
BRANCH  10  21
ATOM     20  N   UNL     1      28.368 -22.400 -15.317  0.00  0.00    -0.195 NA
ATOM     21  C   UNL     1      29.348 -22.844 -14.880  0.00  0.00    +0.087 C 
ENDBRANCH  10  21
BRANCH   2  22
ATOM     22  C   UNL     1      33.287 -22.177 -18.590  0.00  0.00    +0.125 C 
BRANCH  22  24
ATOM     23 CL   UNL     1      36.731 -18.553 -21.934  0.00  0.00    -0.082 Cl
ATOM     24  C   UNL     1      34.147 -21.272 -19.426  0.00  0.00    -0.002 C 
ATOM     25  C   UNL     1      33.558 -20.373 -20.316  0.00  0.00    -0.002 C 
ATOM     26  C   UNL     1      35.537 -21.328 -19.312  0.00  0.00    -0.002 C 
ATOM     27  C   UNL     1      34.357 -19.533 -21.091  0.00  0.00    +0.011 C 
ATOM     28  C   UNL     1      36.336 -20.488 -20.087  0.00  0.00    +0.011 C 
ATOM     29  C   UNL     1      35.745 -19.590 -20.976  0.00  0.00    +0.058 C 
ENDBRANCH  22  24
ENDBRANCH   2  22
TORSDOF 4
ENDMDL
MODEL 2
REMARK VINA RESULT:     -11.3      1.478      5.435
REMARK  Name = 24779676
REMARK  4 active torsions:
REMARK  status: ('A' for Active; 'I' for Inactive)
REMARK    1  A    between atoms: N_2  and  C_22
REMARK    2  A    between atoms: N_3  and  C_14
REMARK    3  A    between atoms: C_10  and  C_21
REMARK    4  A    between atoms: C_22  and  C_24
REMARK                            x       y       z     vdW  Elec       q    Type
REMARK                         _______ _______ _______ _____ _____    ______ ____
ROOT
ATOM      1  N   UNL     1      34.326 -24.160 -14.348  0.00  0.00    -0.123 N 
ATOM      2  N   UNL     1      34.445 -22.338 -17.910  0.00  0.00    -0.254 N 
ATOM      3  N   UNL     1      31.966 -24.113 -14.292  0.00  0.00    -0.274 N 
ATOM      4  N   UNL     1      33.202 -23.222 -16.107  0.00  0.00    -0.295 NA
ATOM      5  N   UNL     1      35.590 -23.287 -16.128  0.00  0.00    -0.314 NA
ATOM      6  N   UNL     1      34.405 -24.775 -13.154  0.00  0.00    -0.170 NA
ATOM      7  C   UNL     1      33.127 -23.813 -14.950  0.00  0.00    +0.279 C 
ATOM      8  C   UNL     1      35.535 -23.902 -14.926  0.00  0.00    +0.219 C 
ATOM      9  C   UNL     1      34.443 -22.964 -16.685  0.00  0.00    +0.203 C 
ATOM     10  C   UNL     1      36.475 -24.383 -14.044  0.00  0.00    +0.203 C 
ATOM     11  C   UNL     1      35.723 -24.909 -12.974  0.00  0.00    +0.116 C 
ATOM     12  H   UNL     1      33.584 -22.098 -18.324  0.00  0.00    +0.161 HD
ATOM     13  H   UNL     1      32.057 -24.563 -13.421  0.00  0.00    +0.156 HD
ENDROOT
BRANCH   3  14
ATOM     14  C   UNL     1      30.665 -23.847 -14.723  0.00  0.00    +0.051 C 
ATOM     15  C   UNL     1      30.091 -22.599 -14.482  0.00  0.00    +0.015 C 
ATOM     16  C   UNL     1      29.938 -24.832 -15.393  0.00  0.00    +0.015 C 
ATOM     17  C   UNL     1      28.791 -22.334 -14.914  0.00  0.00    +0.001 C 
ATOM     18  C   UNL     1      28.638 -24.566 -15.825  0.00  0.00    +0.001 C 
ATOM     19  C   UNL     1      28.065 -23.318 -15.585  0.00  0.00    +0.000 C 
ENDBRANCH   3  14
BRANCH  10  21
ATOM     20  N   UNL     1      39.039 -24.317 -14.329  0.00  0.00    -0.195 NA
ATOM     21  C   UNL     1      37.886 -24.347 -14.201  0.00  0.00    +0.087 C 
ENDBRANCH  10  21
BRANCH   2  22
ATOM     22  C   UNL     1      35.655 -22.023 -18.600  0.00  0.00    +0.125 C 
BRANCH  22  24
ATOM     23 CL   UNL     1      34.677 -17.765 -22.733  0.00  0.00    -0.082 Cl
ATOM     24  C   UNL     1      35.410 -20.959 -19.634  0.00  0.00    -0.002 C 
ATOM     25  C   UNL     1      34.119 -20.732 -20.110  0.00  0.00    -0.002 C 
ATOM     26  C   UNL     1      36.475 -20.197 -20.116  0.00  0.00    -0.002 C 
ATOM     27  C   UNL     1      33.893 -19.745 -21.069  0.00  0.00    +0.011 C 
ATOM     28  C   UNL     1      36.248 -19.209 -21.074  0.00  0.00    +0.011 C 
ATOM     29  C   UNL     1      34.957 -18.983 -21.550  0.00  0.00    +0.058 C 
ENDBRANCH  22  24
ENDBRANCH   2  22
TORSDOF 4
ENDMDL
MODEL 3
REMARK VINA RESULT:      -9.5      3.042      7.421
REMARK  Name = 24779676
REMARK  4 active torsions:
REMARK  status: ('A' for Active; 'I' for Inactive)
REMARK    1  A    between atoms: N_2  and  C_22
REMARK    2  A    between atoms: N_3  and  C_14
REMARK    3  A    between atoms: C_10  and  C_21
REMARK    4  A    between atoms: C_22  and  C_24
REMARK                            x       y       z     vdW  Elec       q    Type
REMARK                         _______ _______ _______ _____ _____    ______ ____
ROOT
ATOM      1  N   UNL     1      36.310 -22.833 -16.181  0.00  0.00    -0.123 N 
ATOM      2  N   UNL     1      32.339 -23.262 -16.451  0.00  0.00    -0.254 N 
ATOM      3  N   UNL     1      36.399 -21.513 -18.136  0.00  0.00    -0.274 N 
ATOM      4  N   UNL     1      34.363 -22.386 -17.297  0.00  0.00    -0.295 NA
ATOM      5  N   UNL     1      34.311 -23.720 -15.316  0.00  0.00    -0.314 NA
ATOM      6  N   UNL     1      37.639 -22.756 -15.990  0.00  0.00    -0.170 NA
ATOM      7  C   UNL     1      35.653 -22.226 -17.239  0.00  0.00    +0.279 C 
ATOM      8  C   UNL     1      35.651 -23.567 -15.237  0.00  0.00    +0.219 C 
ATOM      9  C   UNL     1      33.703 -23.138 -16.326  0.00  0.00    +0.203 C 
ATOM     10  C   UNL     1      36.623 -24.002 -14.365  0.00  0.00    +0.203 C 
ATOM     11  C   UNL     1      37.824 -23.473 -14.878  0.00  0.00    +0.116 C 
ATOM     12  H   UNL     1      31.888 -22.825 -17.209  0.00  0.00    +0.161 HD
ATOM     13  H   UNL     1      37.369 -21.474 -17.969  0.00  0.00    +0.156 HD
ENDROOT
BRANCH   3  14
ATOM     14  C   UNL     1      35.933 -20.833 -19.263  0.00  0.00    +0.051 C 
ATOM     15  C   UNL     1      34.610 -20.991 -19.675  0.00  0.00    +0.015 C 
ATOM     16  C   UNL     1      36.792 -19.997 -19.977  0.00  0.00    +0.015 C 
ATOM     17  C   UNL     1      34.145 -20.311 -20.801  0.00  0.00    +0.001 C 
ATOM     18  C   UNL     1      36.326 -19.317 -21.103  0.00  0.00    +0.001 C 
ATOM     19  C   UNL     1      35.003 -19.475 -21.515  0.00  0.00    +0.000 C 
ENDBRANCH   3  14
BRANCH  10  21
ATOM     20  N   UNL     1      36.274 -25.462 -12.265  0.00  0.00    -0.195 NA
ATOM     21  C   UNL     1      36.431 -24.805 -13.209  0.00  0.00    +0.087 C 
ENDBRANCH  10  21
BRANCH   2  22
ATOM     22  C   UNL     1      31.556 -24.007 -15.517  0.00  0.00    +0.125 C 
BRANCH  22  24
ATOM     23 CL   UNL     1      25.866 -22.059 -15.507  0.00  0.00    -0.082 Cl
ATOM     24  C   UNL     1      30.134 -23.520 -15.516  0.00  0.00    -0.002 C 
ATOM     25  C   UNL     1      29.250 -23.939 -16.511  0.00  0.00    -0.002 C 
ATOM     26  C   UNL     1      29.696 -22.649 -14.517  0.00  0.00    -0.002 C 
ATOM     27  C   UNL     1      27.931 -23.487 -16.508  0.00  0.00    +0.011 C 
ATOM     28  C   UNL     1      28.377 -22.197 -14.514  0.00  0.00    +0.011 C 
ATOM     29  C   UNL     1      27.495 -22.617 -15.510  0.00  0.00    +0.058 C 
ENDBRANCH  22  24
ENDBRANCH   2  22
TORSDOF 4
ENDMDL
