MODEL 1
REMARK VINA RESULT:     -11.4      0.000      0.000
REMARK  Name = 9976892
REMARK  4 active torsions:
REMARK  status: ('A' for Active; 'I' for Inactive)
REMARK    1  A    between atoms: N_1  and  C_13
REMARK    2  A    between atoms: C_10  and  O_17
REMARK    3  A    between atoms: O_17  and  C_20
REMARK    4  A    between atoms: C_19  and  N_25
REMARK                            x       y       z     vdW  Elec       q    Type
REMARK                         _______ _______ _______ _____ _____    ______ ____
ROOT
ATOM      1  N   UNL     1      35.833 -24.168 -13.736  0.00  0.00    +0.389 N 
ATOM      2  C   UNL     1      36.964 -23.756 -14.579  0.00  0.00    -0.073 C 
ATOM      3  C   UNL     1      34.617 -24.480 -14.504  0.00  0.00    -0.073 C 
ATOM      4  C   UNL     1      36.784 -22.368 -15.204  0.00  0.00    +0.003 C 
ATOM      5  C   UNL     1      33.946 -23.243 -15.110  0.00  0.00    +0.003 C 
ATOM      6  C   UNL     1      35.926 -22.375 -16.444  0.00  0.00    -0.025 C 
ATOM      7  C   UNL     1      34.583 -22.789 -16.399  0.00  0.00    -0.028 C 
ATOM      8  C   UNL     1      36.472 -21.947 -17.664  0.00  0.00    +0.033 C 
ATOM      9  C   UNL     1      33.816 -22.764 -17.577  0.00  0.00    -0.002 C 
ATOM     10  C   UNL     1      35.701 -21.931 -18.826  0.00  0.00    +0.147 C 
ATOM     11  C   UNL     1      34.373 -22.339 -18.782  0.00  0.00    +0.037 C 
ATOM     12  H   UNL     1      35.607 -23.383 -13.123  0.00  0.00    -0.080 HD
ENDROOT
BRANCH   1  13
ATOM     13  C   UNL     1      36.223 -25.341 -12.997  0.00  0.00    -0.058 C 
ATOM     14  C   UNL     1      37.603 -25.849 -13.461  0.00  0.00    -0.021 C 
ATOM     15  C   UNL     1      36.897 -24.954 -11.665  0.00  0.00    -0.021 C 
ATOM     16  C   UNL     1      37.947 -26.043 -11.969  0.00  0.00    -0.004 C 
ENDBRANCH   1  13
BRANCH  10  17
ATOM     17  O   UNL     1      36.248 -21.514 -20.000  0.00  0.00    -0.436 OA
BRANCH  17  20
ATOM     18  N   UNL     1      36.778 -19.283 -20.351  0.00  0.00    -0.209 NA
ATOM     19  C   UNL     1      35.170 -17.818 -21.407  0.00  0.00    +0.073 C 
ATOM     20  C   UNL     1      35.873 -20.269 -20.479  0.00  0.00    +0.230 C 
ATOM     21  C   UNL     1      34.271 -18.873 -21.515  0.00  0.00    +0.021 C 
ATOM     22  C   UNL     1      36.400 -18.072 -20.822  0.00  0.00    +0.117 C 
ATOM     23  C   UNL     1      34.622 -20.132 -21.043  0.00  0.00    +0.059 C 
BRANCH  19  25
ATOM     24  O   UNL     1      35.044 -16.713 -24.252  0.00  0.00    -0.275 OA
ATOM     25  N   UNL     1      34.836 -16.516 -21.882  0.00  0.00    -0.257 N 
ATOM     26  C   UNL     1      33.871 -14.388 -21.865  0.00  0.00    +0.031 C 
ATOM     27  C   UNL     1      34.555 -15.412 -20.984  0.00  0.00    +0.099 C 
ATOM     28  C   UNL     1      34.505 -14.612 -23.223  0.00  0.00    +0.087 C 
ATOM     29  C   UNL     1      34.812 -16.092 -23.225  0.00  0.00    +0.229 C 
ENDBRANCH  19  25
ENDBRANCH  17  20
ENDBRANCH  10  17
TORSDOF 4
ENDMDL
MODEL 2
REMARK VINA RESULT:     -11.0      1.825      2.684
REMARK  Name = 9976892
REMARK  4 active torsions:
REMARK  status: ('A' for Active; 'I' for Inactive)
REMARK    1  A    between atoms: N_1  and  C_13
REMARK    2  A    between atoms: C_10  and  O_17
REMARK    3  A    between atoms: O_17  and  C_20
REMARK    4  A    between atoms: C_19  and  N_25
REMARK                            x       y       z     vdW  Elec       q    Type
REMARK                         _______ _______ _______ _____ _____    ______ ____
ROOT
ATOM      1  N   UNL     1      37.686 -24.041 -13.504  0.00  0.00    +0.389 N 
ATOM      2  C   UNL     1      37.789 -23.837 -14.957  0.00  0.00    -0.073 C 
ATOM      3  C   UNL     1      36.368 -24.539 -13.079  0.00  0.00    -0.073 C 
ATOM      4  C   UNL     1      36.974 -22.642 -15.463  0.00  0.00    +0.003 C 
ATOM      5  C   UNL     1      35.257 -23.490 -13.191  0.00  0.00    +0.003 C 
ATOM      6  C   UNL     1      35.512 -22.955 -15.661  0.00  0.00    -0.025 C 
ATOM      7  C   UNL     1      34.700 -23.356 -14.585  0.00  0.00    -0.028 C 
ATOM      8  C   UNL     1      34.946 -22.830 -16.939  0.00  0.00    +0.033 C 
ATOM      9  C   UNL     1      33.339 -23.622 -14.814  0.00  0.00    -0.002 C 
ATOM     10  C   UNL     1      33.595 -23.102 -17.153  0.00  0.00    +0.147 C 
ATOM     11  C   UNL     1      32.792 -23.497 -16.090  0.00  0.00    +0.037 C 
ATOM     12  H   UNL     1      37.823 -23.134 -13.058  0.00  0.00    -0.080 HD
ENDROOT
BRANCH   1  13
ATOM     13  C   UNL     1      38.687 -24.999 -13.110  0.00  0.00    -0.058 C 
ATOM     14  C   UNL     1      38.525 -26.318 -13.892  0.00  0.00    -0.021 C 
ATOM     15  C   UNL     1      39.996 -24.782 -13.897  0.00  0.00    -0.021 C 
ATOM     16  C   UNL     1      40.058 -26.314 -14.065  0.00  0.00    -0.004 C 
ENDBRANCH   1  13
BRANCH  10  17
ATOM     17  O   UNL     1      33.064 -22.977 -18.400  0.00  0.00    -0.436 OA
BRANCH  17  20
ATOM     18  N   UNL     1      32.539 -21.132 -19.705  0.00  0.00    -0.209 NA
ATOM     19  C   UNL     1      34.311 -19.832 -20.715  0.00  0.00    +0.073 C 
ATOM     20  C   UNL     1      33.496 -21.917 -19.180  0.00  0.00    +0.230 C 
ATOM     21  C   UNL     1      35.261 -20.675 -20.148  0.00  0.00    +0.021 C 
ATOM     22  C   UNL     1      32.975 -20.101 -20.465  0.00  0.00    +0.117 C 
ATOM     23  C   UNL     1      34.853 -21.745 -19.361  0.00  0.00    +0.059 C 
BRANCH  19  25
ATOM     24  O   UNL     1      34.461 -19.555 -23.753  0.00  0.00    -0.275 OA
ATOM     25  N   UNL     1      34.700 -18.727 -21.527  0.00  0.00    -0.257 N 
ATOM     26  C   UNL     1      35.088 -16.495 -22.102  0.00  0.00    +0.031 C 
ATOM     27  C   UNL     1      35.194 -17.486 -20.961  0.00  0.00    +0.099 C 
ATOM     28  C   UNL     1      35.314 -17.350 -23.333  0.00  0.00    +0.087 C 
ATOM     29  C   UNL     1      34.745 -18.693 -22.935  0.00  0.00    +0.229 C 
ENDBRANCH  19  25
ENDBRANCH  17  20
ENDBRANCH  10  17
TORSDOF 4
ENDMDL
MODEL 3
REMARK VINA RESULT:     -10.7      4.148     12.108
REMARK  Name = 9976892
REMARK  4 active torsions:
REMARK  status: ('A' for Active; 'I' for Inactive)
REMARK    1  A    between atoms: N_1  and  C_13
REMARK    2  A    between atoms: C_10  and  O_17
REMARK    3  A    between atoms: O_17  and  C_20
REMARK    4  A    between atoms: C_19  and  N_25
REMARK                            x       y       z     vdW  Elec       q    Type
REMARK                         _______ _______ _______ _____ _____    ______ ____
ROOT
ATOM      1  N   UNL     1      32.588  -8.983 -22.369  0.00  0.00    +0.389 N 
ATOM      2  C   UNL     1      33.648  -9.539 -23.222  0.00  0.00    -0.073 C 
ATOM      3  C   UNL     1      32.294  -9.812 -21.189  0.00  0.00    -0.073 C 
ATOM      4  C   UNL     1      33.218 -10.796 -23.987  0.00  0.00    +0.003 C 
ATOM      5  C   UNL     1      31.580 -11.124 -21.530  0.00  0.00    +0.003 C 
ATOM      6  C   UNL     1      33.290 -12.055 -23.161  0.00  0.00    -0.025 C 
ATOM      7  C   UNL     1      32.514 -12.210 -21.998  0.00  0.00    -0.028 C 
ATOM      8  C   UNL     1      34.135 -13.100 -23.567  0.00  0.00    +0.033 C 
ATOM      9  C   UNL     1      32.602 -13.408 -21.268  0.00  0.00    -0.002 C 
ATOM     10  C   UNL     1      34.217 -14.281 -22.830  0.00  0.00    +0.147 C 
ATOM     11  C   UNL     1      33.449 -14.435 -21.682  0.00  0.00    +0.037 C 
ATOM     12  H   UNL     1      31.735  -8.944 -22.928  0.00  0.00    -0.080 HD
ENDROOT
BRANCH   1  13
ATOM     13  C   UNL     1      33.005  -7.680 -21.921  0.00  0.00    -0.058 C 
ATOM     14  C   UNL     1      31.946  -6.613 -22.268  0.00  0.00    -0.021 C 
ATOM     15  C   UNL     1      32.630  -7.461 -20.441  0.00  0.00    -0.021 C 
ATOM     16  C   UNL     1      32.162  -6.048 -20.849  0.00  0.00    -0.004 C 
ENDBRANCH   1  13
BRANCH  10  17
ATOM     17  O   UNL     1      35.043 -15.282 -23.238  0.00  0.00    -0.436 OA
BRANCH  17  20
ATOM     18  N   UNL     1      35.275 -16.452 -21.248  0.00  0.00    -0.209 NA
ATOM     19  C   UNL     1      34.859 -18.834 -21.199  0.00  0.00    +0.073 C 
ATOM     20  C   UNL     1      34.977 -16.488 -22.559  0.00  0.00    +0.230 C 
ATOM     21  C   UNL     1      34.560 -18.816 -22.557  0.00  0.00    +0.021 C 
ATOM     22  C   UNL     1      35.208 -17.636 -20.597  0.00  0.00    +0.117 C 
ATOM     23  C   UNL     1      34.619 -17.619 -23.261  0.00  0.00    +0.059 C 
BRANCH  19  25
ATOM     24  O   UNL     1      32.477 -20.550 -20.357  0.00  0.00    -0.275 OA
ATOM     25  N   UNL     1      34.808 -20.047 -20.451  0.00  0.00    -0.257 N 
ATOM     26  C   UNL     1      35.565 -22.064 -19.547  0.00  0.00    +0.031 C 
ATOM     27  C   UNL     1      35.993 -20.648 -19.871  0.00  0.00    +0.099 C 
ATOM     28  C   UNL     1      34.091 -21.921 -19.225  0.00  0.00    +0.087 C 
ATOM     29  C   UNL     1      33.652 -20.770 -20.101  0.00  0.00    +0.229 C 
ENDBRANCH  19  25
ENDBRANCH  17  20
ENDBRANCH  10  17
TORSDOF 4
ENDMDL
MODEL 4
REMARK VINA RESULT:     -10.6      6.232     13.986
REMARK  Name = 9976892
REMARK  4 active torsions:
REMARK  status: ('A' for Active; 'I' for Inactive)
REMARK    1  A    between atoms: N_1  and  C_13
REMARK    2  A    between atoms: C_10  and  O_17
REMARK    3  A    between atoms: O_17  and  C_20
REMARK    4  A    between atoms: C_19  and  N_25
REMARK                            x       y       z     vdW  Elec       q    Type
REMARK                         _______ _______ _______ _____ _____    ______ ____
ROOT
ATOM      1  N   UNL     1      32.981  -6.616 -22.167  0.00  0.00    +0.389 N 
ATOM      2  C   UNL     1      32.040  -7.735 -22.322  0.00  0.00    -0.073 C 
ATOM      3  C   UNL     1      34.031  -6.591 -23.198  0.00  0.00    -0.073 C 
ATOM      4  C   UNL     1      32.654  -9.098 -21.987  0.00  0.00    +0.003 C 
ATOM      5  C   UNL     1      35.061  -7.714 -23.045  0.00  0.00    +0.003 C 
ATOM      6  C   UNL     1      33.462  -9.686 -23.116  0.00  0.00    -0.025 C 
ATOM      7  C   UNL     1      34.601  -9.031 -23.617  0.00  0.00    -0.028 C 
ATOM      8  C   UNL     1      33.080 -10.918 -23.671  0.00  0.00    +0.033 C 
ATOM      9  C   UNL     1      35.332  -9.624 -24.660  0.00  0.00    -0.002 C 
ATOM     10  C   UNL     1      33.812 -11.493 -24.709  0.00  0.00    +0.147 C 
ATOM     11  C   UNL     1      34.938 -10.846 -25.203  0.00  0.00    +0.037 C 
ATOM     12  H   UNL     1      33.448  -6.732 -21.267  0.00  0.00    -0.080 HD
ENDROOT
BRANCH   1  13
ATOM     13  C   UNL     1      32.237  -5.386 -22.240  0.00  0.00    -0.058 C 
ATOM     14  C   UNL     1      32.300  -4.788 -23.661  0.00  0.00    -0.021 C 
ATOM     15  C   UNL     1      30.742  -5.662 -22.505  0.00  0.00    -0.021 C 
ATOM     16  C   UNL     1      30.789  -4.505 -23.526  0.00  0.00    -0.004 C 
ENDBRANCH   1  13
BRANCH  10  17
ATOM     17  O   UNL     1      33.425 -12.687 -25.235  0.00  0.00    -0.436 OA
BRANCH  17  20
ATOM     18  N   UNL     1      33.709 -14.989 -25.234  0.00  0.00    -0.209 NA
ATOM     19  C   UNL     1      34.439 -16.108 -23.219  0.00  0.00    +0.073 C 
ATOM     20  C   UNL     1      33.770 -13.837 -24.544  0.00  0.00    +0.230 C 
ATOM     21  C   UNL     1      34.486 -14.890 -22.552  0.00  0.00    +0.021 C 
ATOM     22  C   UNL     1      34.048 -16.105 -24.548  0.00  0.00    +0.117 C 
ATOM     23  C   UNL     1      34.145 -13.721 -23.222  0.00  0.00    +0.059 C 
BRANCH  19  25
ATOM     24  O   UNL     1      34.146 -19.013 -24.118  0.00  0.00    -0.275 OA
ATOM     25  N   UNL     1      34.783 -17.324 -22.557  0.00  0.00    -0.257 N 
ATOM     26  C   UNL     1      35.899 -18.732 -21.063  0.00  0.00    +0.031 C 
ATOM     27  C   UNL     1      35.304 -17.347 -21.203  0.00  0.00    +0.099 C 
ATOM     28  C   UNL     1      35.020 -19.585 -21.955  0.00  0.00    +0.087 C 
ATOM     29  C   UNL     1      34.603 -18.630 -23.051  0.00  0.00    +0.229 C 
ENDBRANCH  19  25
ENDBRANCH  17  20
ENDBRANCH  10  17
TORSDOF 4
ENDMDL
MODEL 5
REMARK VINA RESULT:     -10.5      2.929     10.241
REMARK  Name = 9976892
REMARK  4 active torsions:
REMARK  status: ('A' for Active; 'I' for Inactive)
REMARK    1  A    between atoms: N_1  and  C_13
REMARK    2  A    between atoms: C_10  and  O_17
REMARK    3  A    between atoms: O_17  and  C_20
REMARK    4  A    between atoms: C_19  and  N_25
REMARK                            x       y       z     vdW  Elec       q    Type
REMARK                         _______ _______ _______ _____ _____    ______ ____
ROOT
ATOM      1  N   UNL     1      32.725 -12.796 -21.041  0.00  0.00    +0.389 N 
ATOM      2  C   UNL     1      33.147 -14.010 -20.327  0.00  0.00    -0.073 C 
ATOM      3  C   UNL     1      32.431 -13.030 -22.464  0.00  0.00    -0.073 C 
ATOM      4  C   UNL     1      34.547 -14.493 -20.723  0.00  0.00    +0.003 C 
ATOM      5  C   UNL     1      33.681 -13.306 -23.305  0.00  0.00    +0.003 C 
ATOM      6  C   UNL     1      34.565 -15.297 -21.999  0.00  0.00    -0.025 C 
ATOM      7  C   UNL     1      34.155 -14.735 -23.221  0.00  0.00    -0.028 C 
ATOM      8  C   UNL     1      35.013 -16.627 -21.970  0.00  0.00    +0.033 C 
ATOM      9  C   UNL     1      34.204 -15.517 -24.387  0.00  0.00    -0.002 C 
ATOM     10  C   UNL     1      35.052 -17.394 -23.135  0.00  0.00    +0.147 C 
ATOM     11  C   UNL     1      34.648 -16.838 -24.343  0.00  0.00    +0.037 C 
ATOM     12  H   UNL     1      33.499 -12.132 -21.000  0.00  0.00    -0.080 HD
ENDROOT
BRANCH   1  13
ATOM     13  C   UNL     1      31.537 -12.288 -20.405  0.00  0.00    -0.058 C 
ATOM     14  C   UNL     1      31.893 -11.229 -19.341  0.00  0.00    -0.021 C 
ATOM     15  C   UNL     1      30.919 -11.141 -21.230  0.00  0.00    -0.021 C 
ATOM     16  C   UNL     1      30.723 -10.390 -19.897  0.00  0.00    -0.004 C 
ENDBRANCH   1  13
BRANCH  10  17
ATOM     17  O   UNL     1      35.488 -18.682 -23.088  0.00  0.00    -0.436 OA
BRANCH  17  20
ATOM     18  N   UNL     1      36.181 -19.907 -21.244  0.00  0.00    -0.209 NA
ATOM     19  C   UNL     1      34.535 -20.912 -19.784  0.00  0.00    +0.073 C 
ATOM     20  C   UNL     1      35.155 -19.434 -21.974  0.00  0.00    +0.230 C 
ATOM     21  C   UNL     1      33.512 -20.399 -20.573  0.00  0.00    +0.021 C 
ATOM     22  C   UNL     1      35.841 -20.641 -20.159  0.00  0.00    +0.117 C 
ATOM     23  C   UNL     1      33.820 -19.641 -21.697  0.00  0.00    +0.059 C 
BRANCH  19  25
ATOM     24  O   UNL     1      36.366 -21.873 -17.535  0.00  0.00    -0.275 OA
ATOM     25  N   UNL     1      34.250 -21.694 -18.626  0.00  0.00    -0.257 N 
ATOM     26  C   UNL     1      32.972 -22.627 -16.907  0.00  0.00    +0.031 C 
ATOM     27  C   UNL     1      32.936 -22.253 -18.374  0.00  0.00    +0.099 C 
ATOM     28  C   UNL     1      34.424 -22.991 -16.671  0.00  0.00    +0.087 C 
ATOM     29  C   UNL     1      35.169 -22.098 -17.638  0.00  0.00    +0.229 C 
ENDBRANCH  19  25
ENDBRANCH  17  20
ENDBRANCH  10  17
TORSDOF 4
ENDMDL
MODEL 6
REMARK VINA RESULT:     -10.4      2.291      4.112
REMARK  Name = 9976892
REMARK  4 active torsions:
REMARK  status: ('A' for Active; 'I' for Inactive)
REMARK    1  A    between atoms: N_1  and  C_13
REMARK    2  A    between atoms: C_10  and  O_17
REMARK    3  A    between atoms: O_17  and  C_20
REMARK    4  A    between atoms: C_19  and  N_25
REMARK                            x       y       z     vdW  Elec       q    Type
REMARK                         _______ _______ _______ _____ _____    ______ ____
ROOT
ATOM      1  N   UNL     1      31.690 -23.410 -15.616  0.00  0.00    +0.389 N 
ATOM      2  C   UNL     1      31.916 -22.739 -16.904  0.00  0.00    -0.073 C 
ATOM      3  C   UNL     1      32.724 -23.110 -14.613  0.00  0.00    -0.073 C 
ATOM      4  C   UNL     1      33.100 -23.312 -17.690  0.00  0.00    +0.003 C 
ATOM      5  C   UNL     1      34.075 -23.763 -14.919  0.00  0.00    +0.003 C 
ATOM      6  C   UNL     1      34.436 -22.781 -17.234  0.00  0.00    -0.025 C 
ATOM      7  C   UNL     1      34.897 -22.995 -15.923  0.00  0.00    -0.028 C 
ATOM      8  C   UNL     1      35.242 -22.072 -18.138  0.00  0.00    +0.033 C 
ATOM      9  C   UNL     1      36.156 -22.495 -15.547  0.00  0.00    -0.002 C 
ATOM     10  C   UNL     1      36.487 -21.577 -17.751  0.00  0.00    +0.147 C 
ATOM     11  C   UNL     1      36.944 -21.790 -16.455  0.00  0.00    +0.037 C 
ATOM     12  H   UNL     1      31.719 -24.416 -15.786  0.00  0.00    -0.080 HD
ENDROOT
BRANCH   1  13
ATOM     13  C   UNL     1      30.414 -22.983 -15.101  0.00  0.00    -0.058 C 
ATOM     14  C   UNL     1      29.404 -22.764 -16.246  0.00  0.00    -0.021 C 
ATOM     15  C   UNL     1      29.557 -24.194 -14.679  0.00  0.00    -0.021 C 
ATOM     16  C   UNL     1      28.367 -23.494 -15.367  0.00  0.00    -0.004 C 
ENDBRANCH   1  13
BRANCH  10  17
ATOM     17  O   UNL     1      37.254 -20.891 -18.641  0.00  0.00    -0.436 OA
BRANCH  17  20
ATOM     18  N   UNL     1      37.259 -19.162 -20.188  0.00  0.00    -0.209 NA
ATOM     19  C   UNL     1      35.365 -18.864 -21.662  0.00  0.00    +0.073 C 
ATOM     20  C   UNL     1      36.607 -20.213 -19.661  0.00  0.00    +0.230 C 
ATOM     21  C   UNL     1      34.734 -19.960 -21.082  0.00  0.00    +0.021 C 
ATOM     22  C   UNL     1      36.615 -18.509 -21.183  0.00  0.00    +0.117 C 
ATOM     23  C   UNL     1      35.362 -20.656 -20.057  0.00  0.00    +0.059 C 
BRANCH  19  25
ATOM     24  O   UNL     1      35.004 -15.855 -22.041  0.00  0.00    -0.275 OA
ATOM     25  N   UNL     1      34.744 -18.130 -22.715  0.00  0.00    -0.257 N 
ATOM     26  C   UNL     1      33.939 -17.693 -24.864  0.00  0.00    +0.031 C 
ATOM     27  C   UNL     1      34.071 -18.783 -23.821  0.00  0.00    +0.099 C 
ATOM     28  C   UNL     1      33.801 -16.430 -24.038  0.00  0.00    +0.087 C 
ATOM     29  C   UNL     1      34.618 -16.730 -22.802  0.00  0.00    +0.229 C 
ENDBRANCH  19  25
ENDBRANCH  17  20
ENDBRANCH  10  17
TORSDOF 4
ENDMDL
MODEL 7
REMARK VINA RESULT:     -10.4      1.987      3.709
REMARK  Name = 9976892
REMARK  4 active torsions:
REMARK  status: ('A' for Active; 'I' for Inactive)
REMARK    1  A    between atoms: N_1  and  C_13
REMARK    2  A    between atoms: C_10  and  O_17
REMARK    3  A    between atoms: O_17  and  C_20
REMARK    4  A    between atoms: C_19  and  N_25
REMARK                            x       y       z     vdW  Elec       q    Type
REMARK                         _______ _______ _______ _____ _____    ______ ____
ROOT
ATOM      1  N   UNL     1      31.916 -23.342 -15.388  0.00  0.00    +0.389 N 
ATOM      2  C   UNL     1      31.918 -23.026 -16.824  0.00  0.00    -0.073 C 
ATOM      3  C   UNL     1      33.018 -22.705 -14.650  0.00  0.00    -0.073 C 
ATOM      4  C   UNL     1      33.061 -23.698 -17.593  0.00  0.00    +0.003 C 
ATOM      5  C   UNL     1      34.390 -23.312 -14.964  0.00  0.00    +0.003 C 
ATOM      6  C   UNL     1      34.373 -22.963 -17.480  0.00  0.00    -0.025 C 
ATOM      7  C   UNL     1      35.002 -22.780 -16.235  0.00  0.00    -0.028 C 
ATOM      8  C   UNL     1      34.987 -22.464 -18.639  0.00  0.00    +0.033 C 
ATOM      9  C   UNL     1      36.232 -22.103 -16.179  0.00  0.00    -0.002 C 
ATOM     10  C   UNL     1      36.206 -21.789 -18.569  0.00  0.00    +0.147 C 
ATOM     11  C   UNL     1      36.828 -21.610 -17.339  0.00  0.00    +0.037 C 
ATOM     12  H   UNL     1      32.037 -24.351 -15.297  0.00  0.00    -0.080 HD
ENDROOT
BRANCH   1  13
ATOM     13  C   UNL     1      30.668 -22.891 -14.828  0.00  0.00    -0.058 C 
ATOM     14  C   UNL     1      29.612 -22.683 -15.933  0.00  0.00    -0.021 C 
ATOM     15  C   UNL     1      29.818 -24.084 -14.346  0.00  0.00    -0.021 C 
ATOM     16  C   UNL     1      28.606 -23.384 -14.997  0.00  0.00    -0.004 C 
ENDBRANCH   1  13
BRANCH  10  17
ATOM     17  O   UNL     1      36.786 -21.311 -19.703  0.00  0.00    -0.436 OA
BRANCH  17  20
ATOM     18  N   UNL     1      37.160 -19.097 -20.288  0.00  0.00    -0.209 NA
ATOM     19  C   UNL     1      35.366 -17.789 -21.246  0.00  0.00    +0.073 C 
ATOM     20  C   UNL     1      36.296 -20.126 -20.226  0.00  0.00    +0.230 C 
ATOM     21  C   UNL     1      34.513 -18.883 -21.160  0.00  0.00    +0.021 C 
ATOM     22  C   UNL     1      36.669 -17.946 -20.800  0.00  0.00    +0.117 C 
ATOM     23  C   UNL     1      34.981 -20.084 -20.639  0.00  0.00    +0.059 C 
BRANCH  19  25
ATOM     24  O   UNL     1      35.058 -16.854 -24.138  0.00  0.00    -0.275 OA
ATOM     25  N   UNL     1      34.915 -16.544 -21.776  0.00  0.00    -0.257 N 
ATOM     26  C   UNL     1      33.784 -14.500 -21.832  0.00  0.00    +0.031 C 
ATOM     27  C   UNL     1      34.577 -15.418 -20.926  0.00  0.00    +0.099 C 
ATOM     28  C   UNL     1      34.388 -14.748 -23.200  0.00  0.00    +0.087 C 
ATOM     29  C   UNL     1      34.812 -16.198 -23.137  0.00  0.00    +0.229 C 
ENDBRANCH  19  25
ENDBRANCH  17  20
ENDBRANCH  10  17
TORSDOF 4
ENDMDL
MODEL 8
REMARK VINA RESULT:      -9.3      6.662     11.363
REMARK  Name = 9976892
REMARK  4 active torsions:
REMARK  status: ('A' for Active; 'I' for Inactive)
REMARK    1  A    between atoms: N_1  and  C_13
REMARK    2  A    between atoms: C_10  and  O_17
REMARK    3  A    between atoms: O_17  and  C_20
REMARK    4  A    between atoms: C_19  and  N_25
REMARK                            x       y       z     vdW  Elec       q    Type
REMARK                         _______ _______ _______ _____ _____    ______ ____
ROOT
ATOM      1  N   UNL     1      34.210 -17.173 -23.250  0.00  0.00    +0.389 N 
ATOM      2  C   UNL     1      34.922 -16.078 -22.576  0.00  0.00    -0.073 C 
ATOM      3  C   UNL     1      33.957 -16.914 -24.676  0.00  0.00    -0.073 C 
ATOM      4  C   UNL     1      34.063 -14.823 -22.381  0.00  0.00    +0.003 C 
ATOM      5  C   UNL     1      32.896 -15.836 -24.919  0.00  0.00    +0.003 C 
ATOM      6  C   UNL     1      33.987 -13.952 -23.610  0.00  0.00    -0.025 C 
ATOM      7  C   UNL     1      33.434 -14.432 -24.811  0.00  0.00    -0.028 C 
ATOM      8  C   UNL     1      34.463 -12.633 -23.552  0.00  0.00    +0.033 C 
ATOM      9  C   UNL     1      33.370 -13.579 -25.926  0.00  0.00    -0.002 C 
ATOM     10  C   UNL     1      34.397 -11.798 -24.668  0.00  0.00    +0.147 C 
ATOM     11  C   UNL     1      33.849 -12.272 -25.854  0.00  0.00    +0.037 C 
ATOM     12  H   UNL     1      33.300 -17.271 -22.797  0.00  0.00    -0.080 HD
ENDROOT
BRANCH   1  13
ATOM     13  C   UNL     1      35.006 -18.368 -23.135  0.00  0.00    -0.058 C 
ATOM     14  C   UNL     1      36.099 -18.200 -22.060  0.00  0.00    -0.021 C 
ATOM     15  C   UNL     1      34.338 -19.386 -22.188  0.00  0.00    -0.021 C 
ATOM     16  C   UNL     1      35.736 -19.620 -21.579  0.00  0.00    -0.004 C 
ENDBRANCH   1  13
BRANCH  10  17
ATOM     17  O   UNL     1      34.864 -10.523 -24.593  0.00  0.00    -0.436 OA
BRANCH  17  20
ATOM     18  N   UNL     1      32.893 -10.006 -23.484  0.00  0.00    -0.209 NA
ATOM     19  C   UNL     1      32.615  -7.822 -22.483  0.00  0.00    +0.073 C 
ATOM     20  C   UNL     1      34.113  -9.602 -23.881  0.00  0.00    +0.230 C 
ATOM     21  C   UNL     1      33.884  -7.455 -22.916  0.00  0.00    +0.021 C 
ATOM     22  C   UNL     1      32.169  -9.098 -22.790  0.00  0.00    +0.117 C 
ATOM     23  C   UNL     1      34.658  -8.361 -23.633  0.00  0.00    +0.059 C 
BRANCH  19  25
ATOM     24  O   UNL     1      32.714  -6.996 -19.544  0.00  0.00    -0.275 OA
ATOM     25  N   UNL     1      31.798  -6.915 -21.747  0.00  0.00    -0.257 N 
ATOM     26  C   UNL     1      30.349  -5.119 -21.378  0.00  0.00    +0.031 C 
ATOM     27  C   UNL     1      30.651  -6.252 -22.337  0.00  0.00    +0.099 C 
ATOM     28  C   UNL     1      30.769  -5.675 -20.033  0.00  0.00    +0.087 C 
ATOM     29  C   UNL     1      31.915  -6.599 -20.379  0.00  0.00    +0.229 C 
ENDBRANCH  19  25
ENDBRANCH  17  20
ENDBRANCH  10  17
TORSDOF 4
ENDMDL
MODEL 9
REMARK VINA RESULT:      -9.2      4.173     11.226
REMARK  Name = 9976892
REMARK  4 active torsions:
REMARK  status: ('A' for Active; 'I' for Inactive)
REMARK    1  A    between atoms: N_1  and  C_13
REMARK    2  A    between atoms: C_10  and  O_17
REMARK    3  A    between atoms: O_17  and  C_20
REMARK    4  A    between atoms: C_19  and  N_25
REMARK                            x       y       z     vdW  Elec       q    Type
REMARK                         _______ _______ _______ _____ _____    ______ ____
ROOT
ATOM      1  N   UNL     1      32.655 -10.979 -21.725  0.00  0.00    +0.389 N 
ATOM      2  C   UNL     1      32.731 -12.386 -21.307  0.00  0.00    -0.073 C 
ATOM      3  C   UNL     1      32.404 -10.812 -23.165  0.00  0.00    -0.073 C 
ATOM      4  C   UNL     1      33.998 -13.098 -21.794  0.00  0.00    +0.003 C 
ATOM      5  C   UNL     1      33.602 -11.193 -24.040  0.00  0.00    +0.003 C 
ATOM      6  C   UNL     1      33.905 -13.578 -23.221  0.00  0.00    -0.025 C 
ATOM      7  C   UNL     1      33.718 -12.676 -24.283  0.00  0.00    -0.028 C 
ATOM      8  C   UNL     1      34.021 -14.949 -23.497  0.00  0.00    +0.033 C 
ATOM      9  C   UNL     1      33.653 -13.167 -25.598  0.00  0.00    -0.002 C 
ATOM     10  C   UNL     1      33.950 -15.424 -24.807  0.00  0.00    +0.147 C 
ATOM     11  C   UNL     1      33.767 -14.532 -25.857  0.00  0.00    +0.037 C 
ATOM     12  H   UNL     1      33.560 -10.551 -21.527  0.00  0.00    -0.080 HD
ENDROOT
BRANCH   1  13
ATOM     13  C   UNL     1      31.584 -10.348 -20.997  0.00  0.00    -0.058 C 
ATOM     14  C   UNL     1      31.659 -10.698 -19.496  0.00  0.00    -0.021 C 
ATOM     15  C   UNL     1      31.962  -8.906 -20.602  0.00  0.00    -0.021 C 
ATOM     16  C   UNL     1      31.360  -9.210 -19.214  0.00  0.00    -0.004 C 
ENDBRANCH   1  13
BRANCH  10  17
ATOM     17  O   UNL     1      34.064 -16.757 -25.055  0.00  0.00    -0.436 OA
BRANCH  17  20
ATOM     18  N   UNL     1      33.604 -18.773 -24.003  0.00  0.00    -0.209 NA
ATOM     19  C   UNL     1      34.621 -19.272 -21.867  0.00  0.00    +0.073 C 
ATOM     20  C   UNL     1      34.259 -17.599 -23.973  0.00  0.00    +0.230 C 
ATOM     21  C   UNL     1      35.276 -18.046 -21.885  0.00  0.00    +0.021 C 
ATOM     22  C   UNL     1      33.803 -19.586 -22.941  0.00  0.00    +0.117 C 
ATOM     23  C   UNL     1      35.097 -17.183 -22.960  0.00  0.00    +0.059 C 
BRANCH  19  25
ATOM     24  O   UNL     1      32.547 -20.766 -20.194  0.00  0.00    -0.275 OA
ATOM     25  N   UNL     1      34.786 -20.178 -20.778  0.00  0.00    -0.257 N 
ATOM     26  C   UNL     1      35.850 -21.745 -19.410  0.00  0.00    +0.031 C 
ATOM     27  C   UNL     1      36.088 -20.486 -20.218  0.00  0.00    +0.099 C 
ATOM     28  C   UNL     1      34.418 -21.595 -18.937  0.00  0.00    +0.087 C 
ATOM     29  C   UNL     1      33.761 -20.819 -20.056  0.00  0.00    +0.229 C 
ENDBRANCH  19  25
ENDBRANCH  17  20
ENDBRANCH  10  17
TORSDOF 4
ENDMDL
