MODEL 1
REMARK VINA RESULT:     -10.9      0.000      0.000
REMARK  Name = 24901696
REMARK  4 active torsions:
REMARK  status: ('A' for Active; 'I' for Inactive)
REMARK    1  A    between atoms: C_5  and  C_16
REMARK    2  A    between atoms: C_7  and  C_10
REMARK    3  A    between atoms: C_16  and  C_17
REMARK    4  A    between atoms: C_22  and  O_23
REMARK                            x       y       z     vdW  Elec       q    Type
REMARK                         _______ _______ _______ _____ _____    ______ ____
ROOT
ATOM      1  N   UNL     1      34.541 -16.998 -23.131  0.00  0.00    -0.195 N 
ATOM      2  N   UNL     1      34.691 -17.734 -22.001  0.00  0.00    -0.163 NA
ATOM      3  N   UNL     1      34.394 -15.284 -24.490  0.00  0.00    -0.131 NA
ATOM      4  N   UNL     1      34.220 -16.436 -25.230  0.00  0.00    -0.127 NA
ATOM      5  C   UNL     1      34.586 -15.639 -23.239  0.00  0.00    +0.168 A 
ATOM      6  C   UNL     1      34.310 -17.459 -24.406  0.00  0.00    +0.186 A 
ATOM      7  C   UNL     1      34.592 -19.018 -22.192  0.00  0.00    +0.101 C 
ATOM      8  C   UNL     1      34.225 -18.854 -24.586  0.00  0.00    +0.042 C 
ATOM      9  C   UNL     1      34.360 -19.662 -23.526  0.00  0.00    +0.024 C 
ENDROOT
BRANCH   7  10
ATOM     10  C   UNL     1      34.732 -19.932 -21.029  0.00  0.00    +0.019 C 
ATOM     11  C   UNL     1      33.596 -20.466 -20.420  0.00  0.00    +0.002 C 
ATOM     12  C   UNL     1      36.000 -20.259 -20.547  0.00  0.00    +0.002 C 
ATOM     13  C   UNL     1      33.728 -21.324 -19.328  0.00  0.00    +0.000 C 
ATOM     14  C   UNL     1      36.131 -21.116 -19.455  0.00  0.00    +0.000 C 
ATOM     15  C   UNL     1      34.995 -21.650 -18.846  0.00  0.00    +0.000 C 
ENDBRANCH   7  10
BRANCH   5  16
ATOM     16  C   UNL     1      34.818 -14.747 -22.088  0.00  0.00    +0.094 C 
BRANCH  16  17
ATOM     17  C   UNL     1      33.660 -13.811 -21.769  0.00  0.00    -0.014 C 
ATOM     18  C   UNL     1      33.328 -12.786 -22.655  0.00  0.00    -0.001 C 
ATOM     19  C   UNL     1      32.933 -13.978 -20.591  0.00  0.00    -0.001 C 
ATOM     20  C   UNL     1      32.268 -11.928 -22.362  0.00  0.00    +0.036 C 
ATOM     21  C   UNL     1      31.873 -13.120 -20.298  0.00  0.00    +0.036 C 
ATOM     22  C   UNL     1      31.541 -12.095 -21.183  0.00  0.00    +0.134 C 
BRANCH  22  23
ATOM     23  O   UNL     1      30.507 -11.257 -20.898  0.00  0.00    -0.506 OA
ATOM     24  H   UNL     1      30.190 -10.664 -21.550  0.00  0.00    +0.292 HD
ENDBRANCH  22  23
ENDBRANCH  16  17
ENDBRANCH   5  16
TORSDOF 4
ENDMDL
MODEL 2
REMARK VINA RESULT:     -10.9      0.036      1.425
REMARK  Name = 24901696
REMARK  4 active torsions:
REMARK  status: ('A' for Active; 'I' for Inactive)
REMARK    1  A    between atoms: C_5  and  C_16
REMARK    2  A    between atoms: C_7  and  C_10
REMARK    3  A    between atoms: C_16  and  C_17
REMARK    4  A    between atoms: C_22  and  O_23
REMARK                            x       y       z     vdW  Elec       q    Type
REMARK                         _______ _______ _______ _____ _____    ______ ____
ROOT
ATOM      1  N   UNL     1      34.561 -17.028 -23.128  0.00  0.00    -0.195 N 
ATOM      2  N   UNL     1      34.710 -17.761 -21.996  0.00  0.00    -0.163 NA
ATOM      3  N   UNL     1      34.413 -15.318 -24.491  0.00  0.00    -0.131 NA
ATOM      4  N   UNL     1      34.240 -16.472 -25.228  0.00  0.00    -0.127 NA
ATOM      5  C   UNL     1      34.605 -15.670 -23.239  0.00  0.00    +0.168 A 
ATOM      6  C   UNL     1      34.330 -17.493 -24.402  0.00  0.00    +0.186 A 
ATOM      7  C   UNL     1      34.612 -19.046 -22.184  0.00  0.00    +0.101 C 
ATOM      8  C   UNL     1      34.246 -18.888 -24.578  0.00  0.00    +0.042 C 
ATOM      9  C   UNL     1      34.381 -19.694 -23.516  0.00  0.00    +0.024 C 
ENDROOT
BRANCH   7  10
ATOM     10  C   UNL     1      34.752 -19.957 -21.018  0.00  0.00    +0.019 C 
ATOM     11  C   UNL     1      36.019 -20.289 -20.539  0.00  0.00    +0.002 C 
ATOM     12  C   UNL     1      33.614 -20.480 -20.401  0.00  0.00    +0.002 C 
ATOM     13  C   UNL     1      36.150 -21.144 -19.445  0.00  0.00    +0.000 C 
ATOM     14  C   UNL     1      33.745 -21.334 -19.308  0.00  0.00    +0.000 C 
ATOM     15  C   UNL     1      35.013 -21.666 -18.828  0.00  0.00    +0.000 C 
ENDBRANCH   7  10
BRANCH   5  16
ATOM     16  C   UNL     1      34.837 -14.775 -22.091  0.00  0.00    +0.094 C 
BRANCH  16  17
ATOM     17  C   UNL     1      33.681 -13.834 -21.778  0.00  0.00    -0.014 C 
ATOM     18  C   UNL     1      32.956 -13.988 -20.597  0.00  0.00    -0.001 C 
ATOM     19  C   UNL     1      33.347 -12.819 -22.674  0.00  0.00    -0.001 C 
ATOM     20  C   UNL     1      31.896 -13.126 -20.312  0.00  0.00    +0.036 C 
ATOM     21  C   UNL     1      32.288 -11.957 -22.389  0.00  0.00    +0.036 C 
ATOM     22  C   UNL     1      31.563 -12.111 -21.208  0.00  0.00    +0.134 C 
BRANCH  22  23
ATOM     23  O   UNL     1      30.529 -11.270 -20.929  0.00  0.00    -0.506 OA
ATOM     24  H   UNL     1      30.569 -10.373 -21.196  0.00  0.00    +0.292 HD
ENDBRANCH  22  23
ENDBRANCH  16  17
ENDBRANCH   5  16
TORSDOF 4
ENDMDL
MODEL 3
REMARK VINA RESULT:     -10.5      5.054      8.208
REMARK  Name = 24901696
REMARK  4 active torsions:
REMARK  status: ('A' for Active; 'I' for Inactive)
REMARK    1  A    between atoms: C_5  and  C_16
REMARK    2  A    between atoms: C_7  and  C_10
REMARK    3  A    between atoms: C_16  and  C_17
REMARK    4  A    between atoms: C_22  and  O_23
REMARK                            x       y       z     vdW  Elec       q    Type
REMARK                         _______ _______ _______ _____ _____    ______ ____
ROOT
ATOM      1  N   UNL     1      34.308 -22.723 -17.252  0.00  0.00    -0.195 N 
ATOM      2  N   UNL     1      35.344 -23.093 -16.458  0.00  0.00    -0.163 NA
ATOM      3  N   UNL     1      33.173 -21.953 -18.962  0.00  0.00    -0.131 NA
ATOM      4  N   UNL     1      32.274 -22.344 -17.989  0.00  0.00    -0.127 NA
ATOM      5  C   UNL     1      34.382 -22.189 -18.504  0.00  0.00    +0.168 A 
ATOM      6  C   UNL     1      32.965 -22.805 -16.967  0.00  0.00    +0.186 A 
ATOM      7  C   UNL     1      34.978 -23.569 -15.302  0.00  0.00    +0.101 C 
ATOM      8  C   UNL     1      32.597 -23.340 -15.716  0.00  0.00    +0.042 C 
ATOM      9  C   UNL     1      33.554 -23.732 -14.864  0.00  0.00    +0.024 C 
ENDROOT
BRANCH   7  10
ATOM     10  C   UNL     1      36.023 -24.003 -14.338  0.00  0.00    +0.019 C 
ATOM     11  C   UNL     1      36.802 -25.127 -14.613  0.00  0.00    +0.002 C 
ATOM     12  C   UNL     1      36.225 -23.285 -13.158  0.00  0.00    +0.002 C 
ATOM     13  C   UNL     1      37.783 -25.534 -13.708  0.00  0.00    +0.000 C 
ATOM     14  C   UNL     1      37.205 -23.693 -12.254  0.00  0.00    +0.000 C 
ATOM     15  C   UNL     1      37.985 -24.817 -12.529  0.00  0.00    +0.000 C 
ENDBRANCH   7  10
BRANCH   5  16
ATOM     16  C   UNL     1      35.659 -21.933 -19.196  0.00  0.00    +0.094 C 
BRANCH  16  17
ATOM     17  C   UNL     1      35.669 -20.681 -20.063  0.00  0.00    -0.014 C 
ATOM     18  C   UNL     1      34.520 -20.305 -20.758  0.00  0.00    -0.001 C 
ATOM     19  C   UNL     1      36.828 -19.912 -20.163  0.00  0.00    -0.001 C 
ATOM     20  C   UNL     1      34.530 -19.159 -21.554  0.00  0.00    +0.036 C 
ATOM     21  C   UNL     1      36.839 -18.766 -20.958  0.00  0.00    +0.036 C 
ATOM     22  C   UNL     1      35.690 -18.390 -21.653  0.00  0.00    +0.134 C 
BRANCH  22  23
ATOM     23  O   UNL     1      35.699 -17.272 -22.430  0.00  0.00    -0.506 OA
ATOM     24  H   UNL     1      35.628 -16.426 -22.034  0.00  0.00    +0.292 HD
ENDBRANCH  22  23
ENDBRANCH  16  17
ENDBRANCH   5  16
TORSDOF 4
ENDMDL
MODEL 4
REMARK VINA RESULT:     -10.5      6.069      9.391
REMARK  Name = 24901696
REMARK  4 active torsions:
REMARK  status: ('A' for Active; 'I' for Inactive)
REMARK    1  A    between atoms: C_5  and  C_16
REMARK    2  A    between atoms: C_7  and  C_10
REMARK    3  A    between atoms: C_16  and  C_17
REMARK    4  A    between atoms: C_22  and  O_23
REMARK                            x       y       z     vdW  Elec       q    Type
REMARK                         _______ _______ _______ _____ _____    ______ ____
ROOT
ATOM      1  N   UNL     1      33.446 -23.552 -15.995  0.00  0.00    -0.195 N 
ATOM      2  N   UNL     1      34.644 -24.053 -15.604  0.00  0.00    -0.163 NA
ATOM      3  N   UNL     1      31.837 -22.762 -17.256  0.00  0.00    -0.131 NA
ATOM      4  N   UNL     1      31.386 -22.792 -15.952  0.00  0.00    -0.127 NA
ATOM      5  C   UNL     1      33.068 -23.220 -17.263  0.00  0.00    +0.168 A 
ATOM      6  C   UNL     1      32.358 -23.267 -15.203  0.00  0.00    +0.186 A 
ATOM      7  C   UNL     1      34.731 -24.269 -14.323  0.00  0.00    +0.101 C 
ATOM      8  C   UNL     1      32.475 -23.528 -13.823  0.00  0.00    +0.042 C 
ATOM      9  C   UNL     1      33.624 -24.024 -13.343  0.00  0.00    +0.024 C 
ENDROOT
BRANCH   7  10
ATOM     10  C   UNL     1      35.999 -24.813 -13.768  0.00  0.00    +0.019 C 
ATOM     11  C   UNL     1      36.104 -25.086 -12.405  0.00  0.00    +0.002 C 
ATOM     12  C   UNL     1      37.084 -25.052 -14.614  0.00  0.00    +0.002 C 
ATOM     13  C   UNL     1      37.294 -25.596 -11.885  0.00  0.00    +0.000 C 
ATOM     14  C   UNL     1      38.273 -25.561 -14.094  0.00  0.00    +0.000 C 
ATOM     15  C   UNL     1      38.378 -25.834 -12.729  0.00  0.00    +0.000 C 
ENDBRANCH   7  10
BRANCH   5  16
ATOM     16  C   UNL     1      33.952 -23.374 -18.433  0.00  0.00    +0.094 C 
BRANCH  16  17
ATOM     17  C   UNL     1      34.211 -22.087 -19.204  0.00  0.00    -0.014 C 
ATOM     18  C   UNL     1      33.141 -21.346 -19.704  0.00  0.00    -0.001 C 
ATOM     19  C   UNL     1      35.519 -21.650 -19.411  0.00  0.00    -0.001 C 
ATOM     20  C   UNL     1      33.378 -20.167 -20.412  0.00  0.00    +0.036 C 
ATOM     21  C   UNL     1      35.757 -20.472 -20.118  0.00  0.00    +0.036 C 
ATOM     22  C   UNL     1      34.687 -19.731 -20.619  0.00  0.00    +0.134 C 
BRANCH  22  23
ATOM     23  O   UNL     1      34.919 -18.581 -21.309  0.00  0.00    -0.506 OA
ATOM     24  H   UNL     1      34.877 -18.579 -22.245  0.00  0.00    +0.292 HD
ENDBRANCH  22  23
ENDBRANCH  16  17
ENDBRANCH   5  16
TORSDOF 4
ENDMDL
MODEL 5
REMARK VINA RESULT:     -10.3      4.204      9.564
REMARK  Name = 24901696
REMARK  4 active torsions:
REMARK  status: ('A' for Active; 'I' for Inactive)
REMARK    1  A    between atoms: C_5  and  C_16
REMARK    2  A    between atoms: C_7  and  C_10
REMARK    3  A    between atoms: C_16  and  C_17
REMARK    4  A    between atoms: C_22  and  O_23
REMARK                            x       y       z     vdW  Elec       q    Type
REMARK                         _______ _______ _______ _____ _____    ______ ____
ROOT
ATOM      1  N   UNL     1      32.726 -11.377 -22.284  0.00  0.00    -0.195 N 
ATOM      2  N   UNL     1      33.190 -10.288 -22.945  0.00  0.00    -0.163 NA
ATOM      3  N   UNL     1      32.400 -13.460 -21.682  0.00  0.00    -0.131 NA
ATOM      4  N   UNL     1      31.627 -12.653 -20.873  0.00  0.00    -0.127 NA
ATOM      5  C   UNL     1      33.050 -12.681 -22.518  0.00  0.00    +0.168 A 
ATOM      6  C   UNL     1      31.829 -11.405 -21.241  0.00  0.00    +0.186 A 
ATOM      7  C   UNL     1      32.700  -9.161 -22.513  0.00  0.00    +0.101 C 
ATOM      8  C   UNL     1      31.329 -10.170 -20.783  0.00  0.00    +0.042 C 
ATOM      9  C   UNL     1      31.731  -9.038 -21.376  0.00  0.00    +0.024 C 
ENDROOT
BRANCH   7  10
ATOM     10  C   UNL     1      33.127  -7.894 -23.162  0.00  0.00    +0.019 C 
ATOM     11  C   UNL     1      34.478  -7.665 -23.424  0.00  0.00    +0.002 C 
ATOM     12  C   UNL     1      32.176  -6.934 -23.511  0.00  0.00    +0.002 C 
ATOM     13  C   UNL     1      34.878  -6.475 -24.033  0.00  0.00    +0.000 C 
ATOM     14  C   UNL     1      32.576  -5.746 -24.119  0.00  0.00    +0.000 C 
ATOM     15  C   UNL     1      33.928  -5.516 -24.381  0.00  0.00    +0.000 C 
ENDBRANCH   7  10
BRANCH   5  16
ATOM     16  C   UNL     1      33.998 -13.099 -23.567  0.00  0.00    +0.094 C 
BRANCH  16  17
ATOM     17  C   UNL     1      34.034 -14.599 -23.826  0.00  0.00    -0.014 C 
ATOM     18  C   UNL     1      34.824 -15.425 -23.027  0.00  0.00    -0.001 C 
ATOM     19  C   UNL     1      33.280 -15.146 -24.863  0.00  0.00    -0.001 C 
ATOM     20  C   UNL     1      34.858 -16.800 -23.265  0.00  0.00    +0.036 C 
ATOM     21  C   UNL     1      33.313 -16.520 -25.102  0.00  0.00    +0.036 C 
ATOM     22  C   UNL     1      34.103 -17.346 -24.302  0.00  0.00    +0.134 C 
BRANCH  22  23
ATOM     23  O   UNL     1      34.136 -18.687 -24.534  0.00  0.00    -0.506 OA
ATOM     24  H   UNL     1      34.485 -19.016 -25.339  0.00  0.00    +0.292 HD
ENDBRANCH  22  23
ENDBRANCH  16  17
ENDBRANCH   5  16
TORSDOF 4
ENDMDL
MODEL 6
REMARK VINA RESULT:     -10.2      5.416     10.575
REMARK  Name = 24901696
REMARK  4 active torsions:
REMARK  status: ('A' for Active; 'I' for Inactive)
REMARK    1  A    between atoms: C_5  and  C_16
REMARK    2  A    between atoms: C_7  and  C_10
REMARK    3  A    between atoms: C_16  and  C_17
REMARK    4  A    between atoms: C_22  and  O_23
REMARK                            x       y       z     vdW  Elec       q    Type
REMARK                         _______ _______ _______ _____ _____    ______ ____
ROOT
ATOM      1  N   UNL     1      32.088  -8.983 -20.940  0.00  0.00    -0.195 N 
ATOM      2  N   UNL     1      32.474  -8.447 -22.124  0.00  0.00    -0.163 NA
ATOM      3  N   UNL     1      31.319 -10.396 -19.451  0.00  0.00    -0.131 NA
ATOM      4  N   UNL     1      31.659  -9.227 -18.799  0.00  0.00    -0.127 NA
ATOM      5  C   UNL     1      31.583 -10.232 -20.727  0.00  0.00    +0.168 A 
ATOM      6  C   UNL     1      32.120  -8.386 -19.700  0.00  0.00    +0.186 A 
ATOM      7  C   UNL     1      32.912  -7.224 -22.031  0.00  0.00    +0.101 C 
ATOM      8  C   UNL     1      32.615  -7.068 -19.628  0.00  0.00    +0.042 C 
ATOM      9  C   UNL     1      33.019  -6.456 -20.749  0.00  0.00    +0.024 C 
ENDROOT
BRANCH   7  10
ATOM     10  C   UNL     1      33.359  -6.524 -23.264  0.00  0.00    +0.019 C 
ATOM     11  C   UNL     1      32.462  -5.733 -23.982  0.00  0.00    +0.002 C 
ATOM     12  C   UNL     1      34.678  -6.656 -23.701  0.00  0.00    +0.002 C 
ATOM     13  C   UNL     1      32.882  -5.076 -25.139  0.00  0.00    +0.000 C 
ATOM     14  C   UNL     1      35.097  -5.999 -24.857  0.00  0.00    +0.000 C 
ATOM     15  C   UNL     1      34.200  -5.208 -25.576  0.00  0.00    +0.000 C 
ENDBRANCH   7  10
BRANCH   5  16
ATOM     16  C   UNL     1      31.384 -11.214 -21.809  0.00  0.00    +0.094 C 
BRANCH  16  17
ATOM     17  C   UNL     1      32.329 -12.406 -21.764  0.00  0.00    -0.014 C 
ATOM     18  C   UNL     1      32.332 -13.253 -20.655  0.00  0.00    -0.001 C 
ATOM     19  C   UNL     1      33.194 -12.651 -22.830  0.00  0.00    -0.001 C 
ATOM     20  C   UNL     1      33.200 -14.345 -20.614  0.00  0.00    +0.036 C 
ATOM     21  C   UNL     1      34.062 -13.742 -22.789  0.00  0.00    +0.036 C 
ATOM     22  C   UNL     1      34.064 -14.589 -21.681  0.00  0.00    +0.134 C 
BRANCH  22  23
ATOM     23  O   UNL     1      34.910 -15.654 -21.640  0.00  0.00    -0.506 OA
ATOM     24  H   UNL     1      35.592 -15.687 -20.999  0.00  0.00    +0.292 HD
ENDBRANCH  22  23
ENDBRANCH  16  17
ENDBRANCH   5  16
TORSDOF 4
ENDMDL
MODEL 7
REMARK VINA RESULT:     -10.2      6.204     10.236
REMARK  Name = 24901696
REMARK  4 active torsions:
REMARK  status: ('A' for Active; 'I' for Inactive)
REMARK    1  A    between atoms: C_5  and  C_16
REMARK    2  A    between atoms: C_7  and  C_10
REMARK    3  A    between atoms: C_16  and  C_17
REMARK    4  A    between atoms: C_22  and  O_23
REMARK                            x       y       z     vdW  Elec       q    Type
REMARK                         _______ _______ _______ _____ _____    ______ ____
ROOT
ATOM      1  N   UNL     1      34.968 -22.344 -17.481  0.00  0.00    -0.195 N 
ATOM      2  N   UNL     1      35.595 -21.511 -18.349  0.00  0.00    -0.163 NA
ATOM      3  N   UNL     1      34.599 -23.678 -15.781  0.00  0.00    -0.131 NA
ATOM      4  N   UNL     1      33.431 -23.578 -16.511  0.00  0.00    -0.127 NA
ATOM      5  C   UNL     1      35.505 -22.933 -16.374  0.00  0.00    +0.168 A 
ATOM      6  C   UNL     1      33.663 -22.775 -17.529  0.00  0.00    +0.186 A 
ATOM      7  C   UNL     1      34.838 -21.102 -19.326  0.00  0.00    +0.101 C 
ATOM      8  C   UNL     1      32.862 -22.303 -18.588  0.00  0.00    +0.042 C 
ATOM      9  C   UNL     1      33.396 -21.475 -19.496  0.00  0.00    +0.024 C 
ENDROOT
BRANCH   7  10
ATOM     10  C   UNL     1      35.412 -20.189 -20.349  0.00  0.00    +0.019 C 
ATOM     11  C   UNL     1      34.619 -19.732 -21.401  0.00  0.00    +0.002 C 
ATOM     12  C   UNL     1      36.745 -19.786 -20.254  0.00  0.00    +0.002 C 
ATOM     13  C   UNL     1      35.159 -18.875 -22.360  0.00  0.00    +0.000 C 
ATOM     14  C   UNL     1      37.284 -18.930 -21.213  0.00  0.00    +0.000 C 
ATOM     15  C   UNL     1      36.490 -18.473 -22.266  0.00  0.00    +0.000 C 
ENDBRANCH   7  10
BRANCH   5  16
ATOM     16  C   UNL     1      36.903 -22.731 -15.952  0.00  0.00    +0.094 C 
BRANCH  16  17
ATOM     17  C   UNL     1      37.239 -23.303 -14.582  0.00  0.00    -0.014 C 
ATOM     18  C   UNL     1      36.791 -22.660 -13.428  0.00  0.00    -0.001 C 
ATOM     19  C   UNL     1      37.997 -24.470 -14.481  0.00  0.00    -0.001 C 
ATOM     20  C   UNL     1      37.101 -23.184 -12.172  0.00  0.00    +0.036 C 
ATOM     21  C   UNL     1      38.306 -24.994 -13.226  0.00  0.00    +0.036 C 
ATOM     22  C   UNL     1      37.859 -24.351 -12.072  0.00  0.00    +0.134 C 
BRANCH  22  23
ATOM     23  O   UNL     1      38.160 -24.862 -10.847  0.00  0.00    -0.506 OA
ATOM     24  H   UNL     1      37.850 -24.437 -10.072  0.00  0.00    +0.292 HD
ENDBRANCH  22  23
ENDBRANCH  16  17
ENDBRANCH   5  16
TORSDOF 4
ENDMDL
MODEL 8
REMARK VINA RESULT:     -10.1      5.491      8.594
REMARK  Name = 24901696
REMARK  4 active torsions:
REMARK  status: ('A' for Active; 'I' for Inactive)
REMARK    1  A    between atoms: C_5  and  C_16
REMARK    2  A    between atoms: C_7  and  C_10
REMARK    3  A    between atoms: C_16  and  C_17
REMARK    4  A    between atoms: C_22  and  O_23
REMARK                            x       y       z     vdW  Elec       q    Type
REMARK                         _______ _______ _______ _____ _____    ______ ____
ROOT
ATOM      1  N   UNL     1      34.592 -22.726 -16.712  0.00  0.00    -0.195 N 
ATOM      2  N   UNL     1      33.281 -23.046 -16.575  0.00  0.00    -0.163 NA
ATOM      3  N   UNL     1      36.490 -22.074 -17.593  0.00  0.00    -0.131 NA
ATOM      4  N   UNL     1      36.719 -22.398 -16.271  0.00  0.00    -0.127 NA
ATOM      5  C   UNL     1      35.215 -22.274 -17.838  0.00  0.00    +0.168 A 
ATOM      6  C   UNL     1      35.574 -22.788 -15.750  0.00  0.00    +0.186 A 
ATOM      7  C   UNL     1      32.962 -23.460 -15.382  0.00  0.00    +0.101 C 
ATOM      8  C   UNL     1      35.196 -23.223 -14.464  0.00  0.00    +0.042 C 
ATOM      9  C   UNL     1      33.921 -23.562 -14.234  0.00  0.00    +0.024 C 
ENDROOT
BRANCH   7  10
ATOM     10  C   UNL     1      31.554 -23.848 -15.107  0.00  0.00    +0.019 C 
ATOM     11  C   UNL     1      31.274 -24.850 -14.178  0.00  0.00    +0.002 C 
ATOM     12  C   UNL     1      30.510 -23.208 -15.778  0.00  0.00    +0.002 C 
ATOM     13  C   UNL     1      29.952 -25.214 -13.920  0.00  0.00    +0.000 C 
ATOM     14  C   UNL     1      29.189 -23.572 -15.520  0.00  0.00    +0.000 C 
ATOM     15  C   UNL     1      28.910 -24.575 -14.590  0.00  0.00    +0.000 C 
ENDBRANCH   7  10
BRANCH   5  16
ATOM     16  C   UNL     1      34.511 -22.061 -19.116  0.00  0.00    +0.094 C 
BRANCH  16  17
ATOM     17  C   UNL     1      35.025 -20.883 -19.932  0.00  0.00    -0.014 C 
ATOM     18  C   UNL     1      34.135 -20.108 -20.675  0.00  0.00    -0.001 C 
ATOM     19  C   UNL     1      36.387 -20.580 -19.938  0.00  0.00    -0.001 C 
ATOM     20  C   UNL     1      34.606 -19.029 -21.424  0.00  0.00    +0.036 C 
ATOM     21  C   UNL     1      36.858 -19.501 -20.686  0.00  0.00    +0.036 C 
ATOM     22  C   UNL     1      35.968 -18.726 -21.429  0.00  0.00    +0.134 C 
BRANCH  22  23
ATOM     23  O   UNL     1      36.428 -17.674 -22.160  0.00  0.00    -0.506 OA
ATOM     24  H   UNL     1      37.006 -17.821 -22.882  0.00  0.00    +0.292 HD
ENDBRANCH  22  23
ENDBRANCH  16  17
ENDBRANCH   5  16
TORSDOF 4
ENDMDL
MODEL 9
REMARK VINA RESULT:     -10.0      1.484      2.372
REMARK  Name = 24901696
REMARK  4 active torsions:
REMARK  status: ('A' for Active; 'I' for Inactive)
REMARK    1  A    between atoms: C_5  and  C_16
REMARK    2  A    between atoms: C_7  and  C_10
REMARK    3  A    between atoms: C_16  and  C_17
REMARK    4  A    between atoms: C_22  and  O_23
REMARK                            x       y       z     vdW  Elec       q    Type
REMARK                         _______ _______ _______ _____ _____    ______ ____
ROOT
ATOM      1  N   UNL     1      34.025 -15.691 -23.717  0.00  0.00    -0.195 N 
ATOM      2  N   UNL     1      34.579 -16.417 -22.715  0.00  0.00    -0.163 NA
ATOM      3  N   UNL     1      33.269 -13.994 -24.881  0.00  0.00    -0.131 NA
ATOM      4  N   UNL     1      33.068 -15.144 -25.617  0.00  0.00    -0.127 NA
ATOM      5  C   UNL     1      33.843 -14.339 -23.750  0.00  0.00    +0.168 A 
ATOM      6  C   UNL     1      33.524 -16.157 -24.911  0.00  0.00    +0.186 A 
ATOM      7  C   UNL     1      34.618 -17.697 -22.951  0.00  0.00    +0.101 C 
ATOM      8  C   UNL     1      33.595 -17.544 -25.146  0.00  0.00    +0.042 C 
ATOM      9  C   UNL     1      34.127 -18.342 -24.211  0.00  0.00    +0.024 C 
ENDROOT
BRANCH   7  10
ATOM     10  C   UNL     1      35.198 -18.601 -21.924  0.00  0.00    +0.019 C 
ATOM     11  C   UNL     1      36.537 -18.473 -21.557  0.00  0.00    +0.002 C 
ATOM     12  C   UNL     1      34.401 -19.579 -21.325  0.00  0.00    +0.002 C 
ATOM     13  C   UNL     1      37.082 -19.322 -20.593  0.00  0.00    +0.000 C 
ATOM     14  C   UNL     1      34.946 -20.427 -20.362  0.00  0.00    +0.000 C 
ATOM     15  C   UNL     1      36.286 -20.298 -19.995  0.00  0.00    +0.000 C 
ENDBRANCH   7  10
BRANCH   5  16
ATOM     16  C   UNL     1      34.248 -13.445 -22.650  0.00  0.00    +0.094 C 
BRANCH  16  17
ATOM     17  C   UNL     1      33.420 -12.173 -22.531  0.00  0.00    -0.014 C 
ATOM     18  C   UNL     1      32.335 -12.128 -21.656  0.00  0.00    -0.001 C 
ATOM     19  C   UNL     1      33.746 -11.055 -23.297  0.00  0.00    -0.001 C 
ATOM     20  C   UNL     1      31.575 -10.962 -21.547  0.00  0.00    +0.036 C 
ATOM     21  C   UNL     1      32.988  -9.889 -23.188  0.00  0.00    +0.036 C 
ATOM     22  C   UNL     1      31.902  -9.844 -22.314  0.00  0.00    +0.134 C 
BRANCH  22  23
ATOM     23  O   UNL     1      31.161  -8.707 -22.207  0.00  0.00    -0.506 OA
ATOM     24  H   UNL     1      30.541  -8.487 -22.874  0.00  0.00    +0.292 HD
ENDBRANCH  22  23
ENDBRANCH  16  17
ENDBRANCH   5  16
TORSDOF 4
ENDMDL
