MODEL 1
REMARK VINA RESULT:     -11.6      0.000      0.000
REMARK  Name = 24880024
REMARK  5 active torsions:
REMARK  status: ('A' for Active; 'I' for Inactive)
REMARK    1  A    between atoms: N_5  and  C_12
REMARK    2  A    between atoms: C_6  and  C_22
REMARK    3  A    between atoms: C_13  and  C_21
REMARK    4  A    between atoms: C_22  and  C_23
REMARK    5  A    between atoms: C_23  and  N_25
REMARK                            x       y       z     vdW  Elec       q    Type
REMARK                         _______ _______ _______ _____ _____    ______ ____
ROOT
ATOM      1  S   UNL     1      36.440 -20.644 -19.508  0.00  0.00    -0.056 S 
ATOM      2  O   UNL     1      35.136 -23.421 -15.989  0.00  0.00    -0.252 OA
ATOM      3  N   UNL     1      34.430 -21.899 -18.475  0.00  0.00    -0.223 NA
ATOM      4  N   UNL     1      36.543 -22.108 -17.337  0.00  0.00    -0.248 N 
ATOM      5  N   UNL     1      37.398 -23.180 -15.447  0.00  0.00    -0.268 N 
ATOM      6  C   UNL     1      34.923 -20.518 -20.298  0.00  0.00    +0.031 C 
ATOM      7  C   UNL     1      33.979 -21.247 -19.606  0.00  0.00    +0.103 C 
ATOM      8  C   UNL     1      35.712 -21.652 -18.326  0.00  0.00    +0.166 C 
ATOM      9  C   UNL     1      36.248 -22.958 -16.221  0.00  0.00    +0.310 C 
ATOM     10  H   UNL     1      37.479 -21.809 -17.401  0.00  0.00    +0.158 HD
ATOM     11  H   UNL     1      38.221 -22.740 -15.761  0.00  0.00    +0.156 HD
ENDROOT
BRANCH   5  12
ATOM     12  C   UNL     1      37.520 -23.959 -14.272  0.00  0.00    +0.052 C 
ATOM     13  C   UNL     1      36.807 -24.479 -12.023  0.00  0.00    +0.073 C 
ATOM     14  C   UNL     1      36.688 -23.711 -13.181  0.00  0.00    +0.019 C 
ATOM     15  C   UNL     1      38.472 -24.976 -14.206  0.00  0.00    +0.015 C 
ATOM     16  C   UNL     1      37.759 -25.496 -11.957  0.00  0.00    +0.004 C 
ATOM     17  C   UNL     1      38.592 -25.745 -13.048  0.00  0.00    +0.001 C 
BRANCH  13  21
ATOM     18  F   UNL     1      35.454 -25.347 -10.253  0.00  0.00    -0.166 F 
ATOM     19  F   UNL     1      36.523 -23.502  -9.859  0.00  0.00    -0.166 F 
ATOM     20  F   UNL     1      34.807 -23.498 -11.194  0.00  0.00    -0.166 F 
ATOM     21  C   UNL     1      35.918 -24.214 -10.856  0.00  0.00    +0.419 C 
ENDBRANCH  13  21
ENDBRANCH   5  12
BRANCH   6  22
ATOM     22  C   UNL     1      34.779 -19.697 -21.557  0.00  0.00    +0.056 C 
BRANCH  22  23
ATOM     23  C   UNL     1      35.886 -18.656 -21.724  0.00  0.00    +0.093 C 
BRANCH  23  25
ATOM     24  S   UNL     1      34.191 -14.345 -21.474  0.00  0.00    -0.101 S 
ATOM     25  N   UNL     1      35.347 -17.329 -21.713  0.00  0.00    -0.320 N 
ATOM     26  N   UNL     1      34.806 -17.377 -24.031  0.00  0.00    -0.233 NA
ATOM     27  N   UNL     1      33.771 -15.503 -25.158  0.00  0.00    -0.247 NA
ATOM     28  C   UNL     1      34.818 -16.709 -22.860  0.00  0.00    +0.118 C 
ATOM     29  C   UNL     1      34.305 -15.418 -22.808  0.00  0.00    +0.145 C 
ATOM     30  C   UNL     1      33.790 -14.843 -23.969  0.00  0.00    +0.073 C 
ATOM     31  C   UNL     1      33.307 -13.520 -23.739  0.00  0.00    +0.022 C 
ATOM     32  C   UNL     1      33.464 -13.128 -22.429  0.00  0.00    +0.033 C 
ATOM     33  C   UNL     1      34.288 -16.740 -25.097  0.00  0.00    +0.251 C 
ATOM     34  H   UNL     1      35.350 -16.828 -20.867  0.00  0.00    +0.148 HD
ENDBRANCH  23  25
ENDBRANCH  22  23
ENDBRANCH   6  22
TORSDOF 5
ENDMDL
MODEL 2
REMARK VINA RESULT:     -11.4      1.203      1.751
REMARK  Name = 24880024
REMARK  5 active torsions:
REMARK  status: ('A' for Active; 'I' for Inactive)
REMARK    1  A    between atoms: N_5  and  C_12
REMARK    2  A    between atoms: C_6  and  C_22
REMARK    3  A    between atoms: C_13  and  C_21
REMARK    4  A    between atoms: C_22  and  C_23
REMARK    5  A    between atoms: C_23  and  N_25
REMARK                            x       y       z     vdW  Elec       q    Type
REMARK                         _______ _______ _______ _____ _____    ______ ____
ROOT
ATOM      1  S   UNL     1      36.633 -20.604 -19.585  0.00  0.00    -0.056 S 
ATOM      2  O   UNL     1      35.249 -23.317 -16.046  0.00  0.00    -0.252 OA
ATOM      3  N   UNL     1      34.590 -21.805 -18.551  0.00  0.00    -0.223 NA
ATOM      4  N   UNL     1      36.691 -22.049 -17.398  0.00  0.00    -0.248 N 
ATOM      5  N   UNL     1      37.513 -23.120 -15.493  0.00  0.00    -0.268 N 
ATOM      6  C   UNL     1      35.123 -20.453 -20.385  0.00  0.00    +0.031 C 
ATOM      7  C   UNL     1      34.160 -21.154 -19.690  0.00  0.00    +0.103 C 
ATOM      8  C   UNL     1      35.877 -21.585 -18.397  0.00  0.00    +0.166 C 
ATOM      9  C   UNL     1      36.372 -22.881 -16.276  0.00  0.00    +0.310 C 
ATOM     10  H   UNL     1      37.634 -21.771 -17.460  0.00  0.00    +0.158 HD
ATOM     11  H   UNL     1      38.347 -22.701 -15.806  0.00  0.00    +0.156 HD
ENDROOT
BRANCH   5  12
ATOM     12  C   UNL     1      37.611 -23.889 -14.310  0.00  0.00    +0.052 C 
ATOM     13  C   UNL     1      36.862 -24.384 -12.067  0.00  0.00    +0.073 C 
ATOM     14  C   UNL     1      36.765 -23.625 -13.233  0.00  0.00    +0.019 C 
ATOM     15  C   UNL     1      38.553 -24.914 -14.221  0.00  0.00    +0.015 C 
ATOM     16  C   UNL     1      37.804 -25.408 -11.979  0.00  0.00    +0.004 C 
ATOM     17  C   UNL     1      38.650 -25.674 -13.056  0.00  0.00    +0.001 C 
BRANCH  13  21
ATOM     18  F   UNL     1      36.523 -23.309  -9.957  0.00  0.00    -0.166 F 
ATOM     19  F   UNL     1      34.804 -23.463 -11.270  0.00  0.00    -0.166 F 
ATOM     20  F   UNL     1      35.565 -25.236 -10.266  0.00  0.00    -0.166 F 
ATOM     21  C   UNL     1      35.958 -24.101 -10.915  0.00  0.00    +0.419 C 
ENDBRANCH  13  21
ENDBRANCH   5  12
BRANCH   6  22
ATOM     22  C   UNL     1      35.004 -19.641 -21.652  0.00  0.00    +0.056 C 
BRANCH  22  23
ATOM     23  C   UNL     1      35.358 -18.168 -21.456  0.00  0.00    +0.093 C 
BRANCH  23  25
ATOM     24  S   UNL     1      33.923 -15.798 -25.177  0.00  0.00    -0.101 S 
ATOM     25  N   UNL     1      34.908 -17.381 -22.564  0.00  0.00    -0.320 N 
ATOM     26  N   UNL     1      34.624 -15.421 -21.243  0.00  0.00    -0.233 NA
ATOM     27  N   UNL     1      33.841 -13.332 -22.178  0.00  0.00    -0.247 NA
ATOM     28  C   UNL     1      34.548 -16.026 -22.445  0.00  0.00    +0.118 C 
ATOM     29  C   UNL     1      34.116 -15.297 -23.547  0.00  0.00    +0.145 C 
ATOM     30  C   UNL     1      33.770 -13.956 -23.383  0.00  0.00    +0.073 C 
ATOM     31  C   UNL     1      33.349 -13.360 -24.610  0.00  0.00    +0.022 C 
ATOM     32  C   UNL     1      33.385 -14.249 -25.660  0.00  0.00    +0.033 C 
ATOM     33  C   UNL     1      34.270 -14.124 -21.183  0.00  0.00    +0.251 C 
ATOM     34  H   UNL     1      34.846 -17.808 -23.449  0.00  0.00    +0.148 HD
ENDBRANCH  23  25
ENDBRANCH  22  23
ENDBRANCH   6  22
TORSDOF 5
ENDMDL
MODEL 3
REMARK VINA RESULT:     -11.3      7.955     13.953
REMARK  Name = 24880024
REMARK  5 active torsions:
REMARK  status: ('A' for Active; 'I' for Inactive)
REMARK    1  A    between atoms: N_5  and  C_12
REMARK    2  A    between atoms: C_6  and  C_22
REMARK    3  A    between atoms: C_13  and  C_21
REMARK    4  A    between atoms: C_22  and  C_23
REMARK    5  A    between atoms: C_23  and  N_25
REMARK                            x       y       z     vdW  Elec       q    Type
REMARK                         _______ _______ _______ _____ _____    ______ ____
ROOT
ATOM      1  S   UNL     1      34.570 -15.537 -22.734  0.00  0.00    -0.056 S 
ATOM      2  O   UNL     1      33.481 -11.623 -25.037  0.00  0.00    -0.252 OA
ATOM      3  N   UNL     1      33.721 -14.613 -24.995  0.00  0.00    -0.223 NA
ATOM      4  N   UNL     1      34.197 -12.998 -23.271  0.00  0.00    -0.248 N 
ATOM      5  N   UNL     1      34.118 -10.682 -22.992  0.00  0.00    -0.268 N 
ATOM      6  C   UNL     1      34.218 -16.662 -23.980  0.00  0.00    +0.031 C 
ATOM      7  C   UNL     1      33.783 -15.988 -25.102  0.00  0.00    +0.103 C 
ATOM      8  C   UNL     1      34.113 -14.263 -23.790  0.00  0.00    +0.166 C 
ATOM      9  C   UNL     1      33.889 -11.741 -23.886  0.00  0.00    +0.310 C 
ATOM     10  H   UNL     1      34.516 -12.944 -22.341  0.00  0.00    +0.158 HD
ATOM     11  H   UNL     1      34.447 -10.933 -22.099  0.00  0.00    +0.156 HD
ENDROOT
BRANCH   5  12
ATOM     12  C   UNL     1      33.934  -9.297 -23.219  0.00  0.00    +0.052 C 
ATOM     13  C   UNL     1      32.530  -7.333 -23.141  0.00  0.00    +0.073 C 
ATOM     14  C   UNL     1      32.712  -8.697 -22.918  0.00  0.00    +0.019 C 
ATOM     15  C   UNL     1      34.976  -8.532 -23.742  0.00  0.00    +0.015 C 
ATOM     16  C   UNL     1      33.573  -6.567 -23.664  0.00  0.00    +0.004 C 
ATOM     17  C   UNL     1      34.796  -7.166 -23.964  0.00  0.00    +0.001 C 
BRANCH  13  21
ATOM     18  F   UNL     1      31.098  -5.425 -23.316  0.00  0.00    -0.166 F 
ATOM     19  F   UNL     1      30.145  -7.373 -23.309  0.00  0.00    -0.166 F 
ATOM     20  F   UNL     1      31.008  -6.580 -21.477  0.00  0.00    -0.166 F 
ATOM     21  C   UNL     1      31.223  -6.690 -22.820  0.00  0.00    +0.419 C 
ENDBRANCH  13  21
ENDBRANCH   5  12
BRANCH   6  22
ATOM     22  C   UNL     1      34.403 -18.142 -23.752  0.00  0.00    +0.056 C 
BRANCH  22  23
ATOM     23  C   UNL     1      35.257 -18.458 -22.525  0.00  0.00    +0.093 C 
BRANCH  23  25
ATOM     24  S   UNL     1      32.816 -21.236 -19.723  0.00  0.00    -0.101 S 
ATOM     25  N   UNL     1      34.562 -19.329 -21.626  0.00  0.00    -0.320 N 
ATOM     26  N   UNL     1      36.534 -19.893 -20.419  0.00  0.00    -0.233 NA
ATOM     27  N   UNL     1      36.511 -21.418 -18.541  0.00  0.00    -0.247 NA
ATOM     28  C   UNL     1      35.205 -20.033 -20.591  0.00  0.00    +0.118 C 
ATOM     29  C   UNL     1      34.493 -20.870 -19.740  0.00  0.00    +0.145 C 
ATOM     30  C   UNL     1      35.171 -21.548 -18.728  0.00  0.00    +0.073 C 
ATOM     31  C   UNL     1      34.292 -22.361 -17.950  0.00  0.00    +0.022 C 
ATOM     32  C   UNL     1      32.989 -22.283 -18.384  0.00  0.00    +0.033 C 
ATOM     33  C   UNL     1      37.101 -20.587 -19.414  0.00  0.00    +0.251 C 
ATOM     34  H   UNL     1      33.591 -19.443 -21.740  0.00  0.00    +0.148 HD
ENDBRANCH  23  25
ENDBRANCH  22  23
ENDBRANCH   6  22
TORSDOF 5
ENDMDL
MODEL 4
REMARK VINA RESULT:     -11.1      3.866      4.609
REMARK  Name = 24880024
REMARK  5 active torsions:
REMARK  status: ('A' for Active; 'I' for Inactive)
REMARK    1  A    between atoms: N_5  and  C_12
REMARK    2  A    between atoms: C_6  and  C_22
REMARK    3  A    between atoms: C_13  and  C_21
REMARK    4  A    between atoms: C_22  and  C_23
REMARK    5  A    between atoms: C_23  and  N_25
REMARK                            x       y       z     vdW  Elec       q    Type
REMARK                         _______ _______ _______ _____ _____    ______ ____
ROOT
ATOM      1  S   UNL     1      35.637 -20.951 -19.955  0.00  0.00    -0.056 S 
ATOM      2  O   UNL     1      31.772 -22.211 -17.660  0.00  0.00    -0.252 OA
ATOM      3  N   UNL     1      33.060 -20.748 -19.939  0.00  0.00    -0.223 NA
ATOM      4  N   UNL     1      34.059 -22.044 -18.171  0.00  0.00    -0.248 N 
ATOM      5  N   UNL     1      33.362 -23.269 -16.309  0.00  0.00    -0.268 N 
ATOM      6  C   UNL     1      34.896 -20.038 -21.203  0.00  0.00    +0.031 C 
ATOM      7  C   UNL     1      33.528 -20.042 -21.029  0.00  0.00    +0.103 C 
ATOM      8  C   UNL     1      34.083 -21.270 -19.300  0.00  0.00    +0.166 C 
ATOM      9  C   UNL     1      32.938 -22.487 -17.396  0.00  0.00    +0.310 C 
ATOM     10  H   UNL     1      34.939 -22.341 -17.843  0.00  0.00    +0.158 HD
ATOM     11  H   UNL     1      34.334 -23.404 -16.227  0.00  0.00    +0.156 HD
ENDROOT
BRANCH   5  12
ATOM     12  C   UNL     1      32.564 -23.887 -15.318  0.00  0.00    +0.052 C 
ATOM     13  C   UNL     1      30.404 -24.633 -14.535  0.00  0.00    +0.073 C 
ATOM     14  C   UNL     1      31.190 -24.023 -15.512  0.00  0.00    +0.019 C 
ATOM     15  C   UNL     1      33.153 -24.363 -14.146  0.00  0.00    +0.015 C 
ATOM     16  C   UNL     1      30.992 -25.109 -13.364  0.00  0.00    +0.004 C 
ATOM     17  C   UNL     1      32.367 -24.974 -13.169  0.00  0.00    +0.001 C 
BRANCH  13  21
ATOM     18  F   UNL     1      28.600 -25.296 -15.960  0.00  0.00    -0.166 F 
ATOM     19  F   UNL     1      28.332 -25.597 -13.829  0.00  0.00    -0.166 F 
ATOM     20  F   UNL     1      28.272 -23.587 -14.657  0.00  0.00    -0.166 F 
ATOM     21  C   UNL     1      28.934 -24.778 -14.742  0.00  0.00    +0.419 C 
ENDBRANCH  13  21
ENDBRANCH   5  12
BRANCH   6  22
ATOM     22  C   UNL     1      35.733 -19.378 -22.272  0.00  0.00    +0.056 C 
BRANCH  22  23
ATOM     23  C   UNL     1      35.981 -17.893 -22.009  0.00  0.00    +0.093 C 
BRANCH  23  25
ATOM     24  S   UNL     1      34.013 -15.423 -25.408  0.00  0.00    -0.101 S 
ATOM     25  N   UNL     1      35.356 -17.084 -23.011  0.00  0.00    -0.320 N 
ATOM     26  N   UNL     1      34.685 -15.416 -21.451  0.00  0.00    -0.233 NA
ATOM     27  N   UNL     1      33.460 -13.439 -22.115  0.00  0.00    -0.247 NA
ATOM     28  C   UNL     1      34.719 -15.863 -22.722  0.00  0.00    +0.118 C 
ATOM     29  C   UNL     1      34.123 -15.107 -23.724  0.00  0.00    +0.145 C 
ATOM     30  C   UNL     1      33.503 -13.903 -23.392  0.00  0.00    +0.073 C 
ATOM     31  C   UNL     1      32.945 -13.257 -24.536  0.00  0.00    +0.022 C 
ATOM     32  C   UNL     1      33.151 -13.975 -25.692  0.00  0.00    +0.033 C 
ATOM     33  C   UNL     1      34.064 -14.243 -21.227  0.00  0.00    +0.251 C 
ATOM     34  H   UNL     1      35.371 -17.397 -23.944  0.00  0.00    +0.148 HD
ENDBRANCH  23  25
ENDBRANCH  22  23
ENDBRANCH   6  22
TORSDOF 5
ENDMDL
MODEL 5
REMARK VINA RESULT:     -11.0      4.776      7.629
REMARK  Name = 24880024
REMARK  5 active torsions:
REMARK  status: ('A' for Active; 'I' for Inactive)
REMARK    1  A    between atoms: N_5  and  C_12
REMARK    2  A    between atoms: C_6  and  C_22
REMARK    3  A    between atoms: C_13  and  C_21
REMARK    4  A    between atoms: C_22  and  C_23
REMARK    5  A    between atoms: C_23  and  N_25
REMARK                            x       y       z     vdW  Elec       q    Type
REMARK                         _______ _______ _______ _____ _____    ______ ____
ROOT
ATOM      1  S   UNL     1      33.920 -15.568 -24.526  0.00  0.00    -0.056 S 
ATOM      2  O   UNL     1      35.173 -17.151 -20.315  0.00  0.00    -0.252 OA
ATOM      3  N   UNL     1      34.542 -14.842 -22.123  0.00  0.00    -0.223 NA
ATOM      4  N   UNL     1      34.554 -17.207 -22.581  0.00  0.00    -0.248 N 
ATOM      5  N   UNL     1      34.983 -19.196 -21.435  0.00  0.00    -0.268 N 
ATOM      6  C   UNL     1      33.917 -13.891 -24.168  0.00  0.00    +0.031 C 
ATOM      7  C   UNL     1      34.273 -13.699 -22.849  0.00  0.00    +0.103 C 
ATOM      8  C   UNL     1      34.388 -15.888 -22.906  0.00  0.00    +0.166 C 
ATOM      9  C   UNL     1      34.932 -17.796 -21.330  0.00  0.00    +0.310 C 
ATOM     10  H   UNL     1      34.390 -17.845 -23.313  0.00  0.00    +0.158 HD
ATOM     11  H   UNL     1      34.762 -19.571 -22.318  0.00  0.00    +0.156 HD
ENDROOT
BRANCH   5  12
ATOM     12  C   UNL     1      35.313 -20.132 -20.427  0.00  0.00    +0.052 C 
ATOM     13  C   UNL     1      34.631 -21.774 -18.792  0.00  0.00    +0.073 C 
ATOM     14  C   UNL     1      34.305 -20.850 -19.785  0.00  0.00    +0.019 C 
ATOM     15  C   UNL     1      36.647 -20.338 -20.076  0.00  0.00    +0.015 C 
ATOM     16  C   UNL     1      35.965 -21.979 -18.441  0.00  0.00    +0.004 C 
ATOM     17  C   UNL     1      36.974 -21.261 -19.083  0.00  0.00    +0.001 C 
BRANCH  13  21
ATOM     18  F   UNL     1      33.383 -23.805 -18.593  0.00  0.00    -0.166 F 
ATOM     19  F   UNL     1      33.768 -22.705 -16.764  0.00  0.00    -0.166 F 
ATOM     20  F   UNL     1      32.332 -21.941 -18.207  0.00  0.00    -0.166 F 
ATOM     21  C   UNL     1      33.553 -22.542 -18.104  0.00  0.00    +0.419 C 
ENDBRANCH  13  21
ENDBRANCH   5  12
BRANCH   6  22
ATOM     22  C   UNL     1      33.560 -12.880 -25.230  0.00  0.00    +0.056 C 
BRANCH  22  23
ATOM     23  C   UNL     1      34.161 -11.499 -24.970  0.00  0.00    +0.093 C 
BRANCH  23  25
ATOM     24  S   UNL     1      31.742  -9.482 -21.563  0.00  0.00    -0.101 S 
ATOM     25  N   UNL     1      33.456 -10.823 -23.923  0.00  0.00    -0.320 N 
ATOM     26  N   UNL     1      34.880  -8.917 -24.000  0.00  0.00    -0.233 NA
ATOM     27  N   UNL     1      34.575  -7.012 -22.540  0.00  0.00    -0.247 NA
ATOM     28  C   UNL     1      33.823  -9.548 -23.453  0.00  0.00    +0.118 C 
ATOM     29  C   UNL     1      33.112  -8.925 -22.434  0.00  0.00    +0.145 C 
ATOM     30  C   UNL     1      33.511  -7.662 -21.999  0.00  0.00    +0.073 C 
ATOM     31  C   UNL     1      32.675  -7.171 -20.951  0.00  0.00    +0.022 C 
ATOM     32  C   UNL     1      31.678  -8.059 -20.619  0.00  0.00    +0.033 C 
ATOM     33  C   UNL     1      35.189  -7.700 -23.516  0.00  0.00    +0.251 C 
ATOM     34  H   UNL     1      32.682 -11.270 -23.512  0.00  0.00    +0.148 HD
ENDBRANCH  23  25
ENDBRANCH  22  23
ENDBRANCH   6  22
TORSDOF 5
ENDMDL
MODEL 6
REMARK VINA RESULT:     -10.9      5.891     11.683
REMARK  Name = 24880024
REMARK  5 active torsions:
REMARK  status: ('A' for Active; 'I' for Inactive)
REMARK    1  A    between atoms: N_5  and  C_12
REMARK    2  A    between atoms: C_6  and  C_22
REMARK    3  A    between atoms: C_13  and  C_21
REMARK    4  A    between atoms: C_22  and  C_23
REMARK    5  A    between atoms: C_23  and  N_25
REMARK                            x       y       z     vdW  Elec       q    Type
REMARK                         _______ _______ _______ _____ _____    ______ ____
ROOT
ATOM      1  S   UNL     1      33.609 -23.684 -15.815  0.00  0.00    -0.056 S 
ATOM      2  O   UNL     1      32.966 -20.890 -19.500  0.00  0.00    -0.252 OA
ATOM      3  N   UNL     1      31.810 -22.547 -17.283  0.00  0.00    -0.223 NA
ATOM      4  N   UNL     1      34.111 -22.141 -17.874  0.00  0.00    -0.248 N 
ATOM      5  N   UNL     1      35.305 -20.943 -19.483  0.00  0.00    -0.268 N 
ATOM      6  C   UNL     1      31.963 -23.950 -15.417  0.00  0.00    +0.031 C 
ATOM      7  C   UNL     1      31.156 -23.270 -16.305  0.00  0.00    +0.103 C 
ATOM      8  C   UNL     1      33.107 -22.692 -17.122  0.00  0.00    +0.166 C 
ATOM      9  C   UNL     1      34.024 -21.277 -19.013  0.00  0.00    +0.310 C 
ATOM     10  H   UNL     1      35.025 -22.372 -17.590  0.00  0.00    +0.158 HD
ATOM     11  H   UNL     1      36.061 -21.331 -18.987  0.00  0.00    +0.156 HD
ENDROOT
BRANCH   5  12
ATOM     12  C   UNL     1      35.641 -20.117 -20.581  0.00  0.00    +0.052 C 
ATOM     13  C   UNL     1      35.132 -19.242 -22.775  0.00  0.00    +0.073 C 
ATOM     14  C   UNL     1      34.801 -20.057 -21.693  0.00  0.00    +0.019 C 
ATOM     15  C   UNL     1      36.813 -19.361 -20.551  0.00  0.00    +0.015 C 
ATOM     16  C   UNL     1      36.304 -18.486 -22.745  0.00  0.00    +0.004 C 
ATOM     17  C   UNL     1      37.145 -18.545 -21.633  0.00  0.00    +0.001 C 
BRANCH  13  21
ATOM     18  F   UNL     1      32.913 -19.336 -23.662  0.00  0.00    -0.166 F 
ATOM     19  F   UNL     1      34.306 -17.991 -24.639  0.00  0.00    -0.166 F 
ATOM     20  F   UNL     1      34.518 -20.141 -24.888  0.00  0.00    -0.166 F 
ATOM     21  C   UNL     1      34.235 -19.177 -23.964  0.00  0.00    +0.419 C 
ENDBRANCH  13  21
ENDBRANCH   5  12
BRANCH   6  22
ATOM     22  C   UNL     1      31.588 -24.823 -14.244  0.00  0.00    +0.056 C 
BRANCH  22  23
ATOM     23  C   UNL     1      32.515 -24.643 -13.042  0.00  0.00    +0.093 C 
BRANCH  23  25
ATOM     24  S   UNL     1      36.798 -25.896 -14.311  0.00  0.00    -0.101 S 
ATOM     25  N   UNL     1      33.859 -25.009 -13.373  0.00  0.00    -0.320 N 
ATOM     26  N   UNL     1      34.724 -24.280 -11.278  0.00  0.00    -0.233 NA
ATOM     27  N   UNL     1      37.072 -24.443 -10.719  0.00  0.00    -0.247 NA
ATOM     28  C   UNL     1      34.941 -24.823 -12.492  0.00  0.00    +0.118 C 
ATOM     29  C   UNL     1      36.232 -25.192 -12.852  0.00  0.00    +0.145 C 
ATOM     30  C   UNL     1      37.275 -24.989 -11.948  0.00  0.00    +0.073 C 
ATOM     31  C   UNL     1      38.529 -25.422 -12.475  0.00  0.00    +0.022 C 
ATOM     32  C   UNL     1      38.411 -25.932 -13.747  0.00  0.00    +0.033 C 
ATOM     33  C   UNL     1      35.791 -24.125 -10.473  0.00  0.00    +0.251 C 
ATOM     34  H   UNL     1      34.034 -25.405 -14.256  0.00  0.00    +0.148 HD
ENDBRANCH  23  25
ENDBRANCH  22  23
ENDBRANCH   6  22
TORSDOF 5
ENDMDL
MODEL 7
REMARK VINA RESULT:     -10.9      1.937      2.404
REMARK  Name = 24880024
REMARK  5 active torsions:
REMARK  status: ('A' for Active; 'I' for Inactive)
REMARK    1  A    between atoms: N_5  and  C_12
REMARK    2  A    between atoms: C_6  and  C_22
REMARK    3  A    between atoms: C_13  and  C_21
REMARK    4  A    between atoms: C_22  and  C_23
REMARK    5  A    between atoms: C_23  and  N_25
REMARK                            x       y       z     vdW  Elec       q    Type
REMARK                         _______ _______ _______ _____ _____    ______ ____
ROOT
ATOM      1  S   UNL     1      34.010 -20.984 -20.131  0.00  0.00    -0.056 S 
ATOM      2  O   UNL     1      36.758 -22.234 -16.569  0.00  0.00    -0.252 OA
ATOM      3  N   UNL     1      36.402 -20.784 -19.171  0.00  0.00    -0.223 NA
ATOM      4  N   UNL     1      34.821 -22.074 -17.889  0.00  0.00    -0.248 N 
ATOM      5  N   UNL     1      34.781 -23.287 -15.895  0.00  0.00    -0.268 N 
ATOM      6  C   UNL     1      35.157 -20.069 -21.019  0.00  0.00    +0.031 C 
ATOM      7  C   UNL     1      36.367 -20.077 -20.356  0.00  0.00    +0.103 C 
ATOM      8  C   UNL     1      35.215 -21.305 -18.952  0.00  0.00    +0.166 C 
ATOM      9  C   UNL     1      35.577 -22.510 -16.753  0.00  0.00    +0.310 C 
ATOM     10  H   UNL     1      33.882 -22.370 -17.908  0.00  0.00    +0.158 HD
ATOM     11  H   UNL     1      33.848 -23.422 -16.176  0.00  0.00    +0.156 HD
ENDROOT
BRANCH   5  12
ATOM     12  C   UNL     1      35.156 -23.897 -14.674  0.00  0.00    +0.052 C 
ATOM     13  C   UNL     1      36.744 -25.168 -13.372  0.00  0.00    +0.073 C 
ATOM     14  C   UNL     1      36.375 -24.567 -14.575  0.00  0.00    +0.019 C 
ATOM     15  C   UNL     1      34.307 -23.826 -13.570  0.00  0.00    +0.015 C 
ATOM     16  C   UNL     1      35.895 -25.098 -12.268  0.00  0.00    +0.004 C 
ATOM     17  C   UNL     1      34.676 -24.426 -12.367  0.00  0.00    +0.001 C 
BRANCH  13  21
ATOM     18  F   UNL     1      38.118 -27.010 -14.036  0.00  0.00    -0.166 F 
ATOM     19  F   UNL     1      39.121 -25.128 -13.639  0.00  0.00    -0.166 F 
ATOM     20  F   UNL     1      38.316 -26.298 -11.992  0.00  0.00    -0.166 F 
ATOM     21  C   UNL     1      38.047 -25.886 -13.265  0.00  0.00    +0.419 C 
ENDBRANCH  13  21
ENDBRANCH   5  12
BRANCH   6  22
ATOM     22  C   UNL     1      34.770 -19.406 -22.318  0.00  0.00    +0.056 C 
BRANCH  22  23
ATOM     23  C   UNL     1      35.710 -18.267 -22.713  0.00  0.00    +0.093 C 
BRANCH  23  25
ATOM     24  S   UNL     1      33.990 -14.194 -21.308  0.00  0.00    -0.101 S 
ATOM     25  N   UNL     1      35.160 -16.998 -22.344  0.00  0.00    -0.320 N 
ATOM     26  N   UNL     1      34.478 -16.486 -24.567  0.00  0.00    -0.233 NA
ATOM     27  N   UNL     1      33.357 -14.419 -25.134  0.00  0.00    -0.247 NA
ATOM     28  C   UNL     1      34.555 -16.128 -23.270  0.00  0.00    +0.118 C 
ATOM     29  C   UNL     1      34.033 -14.903 -22.871  0.00  0.00    +0.145 C 
ATOM     30  C   UNL     1      33.443 -14.072 -23.822  0.00  0.00    +0.073 C 
ATOM     31  C   UNL     1      32.961 -12.859 -23.245  0.00  0.00    +0.022 C 
ATOM     32  C   UNL     1      33.194 -12.798 -21.890  0.00  0.00    +0.033 C 
ATOM     33  C   UNL     1      33.890 -15.619 -25.412  0.00  0.00    +0.251 C 
ATOM     34  H   UNL     1      35.209 -16.721 -21.401  0.00  0.00    +0.148 HD
ENDBRANCH  23  25
ENDBRANCH  22  23
ENDBRANCH   6  22
TORSDOF 5
ENDMDL
MODEL 8
REMARK VINA RESULT:     -10.6      5.386     11.889
REMARK  Name = 24880024
REMARK  5 active torsions:
REMARK  status: ('A' for Active; 'I' for Inactive)
REMARK    1  A    between atoms: N_5  and  C_12
REMARK    2  A    between atoms: C_6  and  C_22
REMARK    3  A    between atoms: C_13  and  C_21
REMARK    4  A    between atoms: C_22  and  C_23
REMARK    5  A    between atoms: C_23  and  N_25
REMARK                            x       y       z     vdW  Elec       q    Type
REMARK                         _______ _______ _______ _____ _____    ______ ____
ROOT
ATOM      1  S   UNL     1      34.309 -22.973 -16.816  0.00  0.00    -0.056 S 
ATOM      2  O   UNL     1      32.408 -20.466 -20.265  0.00  0.00    -0.252 OA
ATOM      3  N   UNL     1      32.065 -22.197 -17.840  0.00  0.00    -0.223 NA
ATOM      4  N   UNL     1      34.077 -21.453 -18.938  0.00  0.00    -0.248 N 
ATOM      5  N   UNL     1      34.667 -20.144 -20.779  0.00  0.00    -0.268 N 
ATOM      6  C   UNL     1      32.860 -23.484 -16.054  0.00  0.00    +0.031 C 
ATOM      7  C   UNL     1      31.774 -22.977 -16.738  0.00  0.00    +0.103 C 
ATOM      8  C   UNL     1      33.371 -22.127 -17.977  0.00  0.00    +0.166 C 
ATOM      9  C   UNL     1      33.596 -20.659 -20.030  0.00  0.00    +0.310 C 
ATOM     10  H   UNL     1      35.057 -21.523 -18.868  0.00  0.00    +0.158 HD
ATOM     11  H   UNL     1      35.569 -20.386 -20.467  0.00  0.00    +0.156 HD
ENDROOT
BRANCH   5  12
ATOM     12  C   UNL     1      34.609 -19.319 -21.927  0.00  0.00    +0.052 C 
ATOM     13  C   UNL     1      34.599 -17.118 -22.923  0.00  0.00    +0.073 C 
ATOM     14  C   UNL     1      34.656 -17.932 -21.792  0.00  0.00    +0.019 C 
ATOM     15  C   UNL     1      34.506 -19.893 -23.194  0.00  0.00    +0.015 C 
ATOM     16  C   UNL     1      34.496 -17.693 -24.190  0.00  0.00    +0.004 C 
ATOM     17  C   UNL     1      34.450 -19.080 -24.326  0.00  0.00    +0.001 C 
BRANCH  13  21
ATOM     18  F   UNL     1      35.602 -15.041 -23.556  0.00  0.00    -0.166 F 
ATOM     19  F   UNL     1      33.478 -15.014 -23.117  0.00  0.00    -0.166 F 
ATOM     20  F   UNL     1      34.917 -15.239 -21.502  0.00  0.00    -0.166 F 
ATOM     21  C   UNL     1      34.648 -15.634 -22.780  0.00  0.00    +0.419 C 
ENDBRANCH  13  21
ENDBRANCH   5  12
BRANCH   6  22
ATOM     22  C   UNL     1      32.905 -24.358 -14.825  0.00  0.00    +0.056 C 
BRANCH  22  23
ATOM     23  C   UNL     1      33.898 -23.864 -13.774  0.00  0.00    +0.093 C 
BRANCH  23  25
ATOM     24  S   UNL     1      37.949 -26.013 -14.480  0.00  0.00    -0.101 S 
ATOM     25  N   UNL     1      35.174 -24.493 -13.937  0.00  0.00    -0.320 N 
ATOM     26  N   UNL     1      36.137 -23.350 -12.085  0.00  0.00    -0.233 NA
ATOM     27  N   UNL     1      38.435 -23.686 -11.408  0.00  0.00    -0.247 NA
ATOM     28  C   UNL     1      36.271 -24.230 -13.097  0.00  0.00    +0.118 C 
ATOM     29  C   UNL     1      37.494 -24.863 -13.290  0.00  0.00    +0.145 C 
ATOM     30  C   UNL     1      38.554 -24.571 -12.433  0.00  0.00    +0.073 C 
ATOM     31  C   UNL     1      39.730 -25.306 -12.772  0.00  0.00    +0.022 C 
ATOM     32  C   UNL     1      39.538 -26.123 -13.862  0.00  0.00    +0.033 C 
ATOM     33  C   UNL     1      37.215 -23.134 -11.310  0.00  0.00    +0.251 C 
ATOM     34  H   UNL     1      35.288 -25.138 -14.672  0.00  0.00    +0.148 HD
ENDBRANCH  23  25
ENDBRANCH  22  23
ENDBRANCH   6  22
TORSDOF 5
ENDMDL
MODEL 9
REMARK VINA RESULT:     -10.6      2.249      2.954
REMARK  Name = 24880024
REMARK  5 active torsions:
REMARK  status: ('A' for Active; 'I' for Inactive)
REMARK    1  A    between atoms: N_5  and  C_12
REMARK    2  A    between atoms: C_6  and  C_22
REMARK    3  A    between atoms: C_13  and  C_21
REMARK    4  A    between atoms: C_22  and  C_23
REMARK    5  A    between atoms: C_23  and  N_25
REMARK                            x       y       z     vdW  Elec       q    Type
REMARK                         _______ _______ _______ _____ _____    ______ ____
ROOT
ATOM      1  S   UNL     1      36.828 -19.399 -20.557  0.00  0.00    -0.056 S 
ATOM      2  O   UNL     1      34.999 -22.469 -17.552  0.00  0.00    -0.252 OA
ATOM      3  N   UNL     1      34.749 -20.856 -20.069  0.00  0.00    -0.223 NA
ATOM      4  N   UNL     1      36.559 -20.980 -18.483  0.00  0.00    -0.248 N 
ATOM      5  N   UNL     1      37.051 -22.097 -16.493  0.00  0.00    -0.268 N 
ATOM      6  C   UNL     1      35.525 -19.336 -21.669  0.00  0.00    +0.031 C 
ATOM      7  C   UNL     1      34.514 -20.172 -21.244  0.00  0.00    +0.103 C 
ATOM      8  C   UNL     1      35.939 -20.527 -19.617  0.00  0.00    +0.166 C 
ATOM      9  C   UNL     1      36.091 -21.914 -17.502  0.00  0.00    +0.310 C 
ATOM     10  H   UNL     1      37.456 -20.610 -18.317  0.00  0.00    +0.158 HD
ATOM     11  H   UNL     1      37.883 -21.581 -16.589  0.00  0.00    +0.156 HD
ENDROOT
BRANCH   5  12
ATOM     12  C   UNL     1      36.968 -22.934 -15.355  0.00  0.00    +0.052 C 
ATOM     13  C   UNL     1      37.921 -24.648 -13.944  0.00  0.00    +0.073 C 
ATOM     14  C   UNL     1      38.002 -23.823 -15.066  0.00  0.00    +0.019 C 
ATOM     15  C   UNL     1      35.851 -22.869 -14.522  0.00  0.00    +0.015 C 
ATOM     16  C   UNL     1      36.804 -24.583 -13.111  0.00  0.00    +0.004 C 
ATOM     17  C   UNL     1      35.769 -23.693 -13.399  0.00  0.00    +0.001 C 
BRANCH  13  21
ATOM     18  F   UNL     1      40.268 -25.034 -13.691  0.00  0.00    -0.166 F 
ATOM     19  F   UNL     1      38.942 -26.148 -12.386  0.00  0.00    -0.166 F 
ATOM     20  F   UNL     1      39.066 -26.657 -14.496  0.00  0.00    -0.166 F 
ATOM     21  C   UNL     1      39.027 -25.600 -13.634  0.00  0.00    +0.419 C 
ENDBRANCH  13  21
ENDBRANCH   5  12
BRANCH   6  22
ATOM     22  C   UNL     1      35.601 -18.454 -22.892  0.00  0.00    +0.056 C 
BRANCH  22  23
ATOM     23  C   UNL     1      34.326 -18.484 -23.733  0.00  0.00    +0.093 C 
BRANCH  23  25
ATOM     24  S   UNL     1      33.497 -14.459 -25.886  0.00  0.00    -0.101 S 
ATOM     25  N   UNL     1      34.081 -17.210 -24.338  0.00  0.00    -0.320 N 
ATOM     26  N   UNL     1      34.439 -16.017 -22.310  0.00  0.00    -0.233 NA
ATOM     27  N   UNL     1      34.264 -13.608 -22.175  0.00  0.00    -0.247 NA
ATOM     28  C   UNL     1      34.140 -15.999 -23.623  0.00  0.00    +0.118 C 
ATOM     29  C   UNL     1      33.895 -14.782 -24.248  0.00  0.00    +0.145 C 
ATOM     30  C   UNL     1      33.964 -13.607 -23.501  0.00  0.00    +0.073 C 
ATOM     31  C   UNL     1      33.686 -12.453 -24.295  0.00  0.00    +0.022 C 
ATOM     32  C   UNL     1      33.417 -12.775 -25.605  0.00  0.00    +0.033 C 
ATOM     33  C   UNL     1      34.483 -14.833 -21.672  0.00  0.00    +0.251 C 
ATOM     34  H   UNL     1      33.861 -17.179 -25.297  0.00  0.00    +0.148 HD
ENDBRANCH  23  25
ENDBRANCH  22  23
ENDBRANCH   6  22
TORSDOF 5
ENDMDL
