MODEL 1
REMARK VINA RESULT:     -11.8      0.000      0.000
REMARK  Name = 9799284
REMARK  5 active torsions:
REMARK  status: ('A' for Active; 'I' for Inactive)
REMARK    1  A    between atoms: N_1  and  C_19
REMARK    2  A    between atoms: C_2  and  C_8
REMARK    3  A    between atoms: C_8  and  N_10
REMARK    4  A    between atoms: C_19  and  C_21
REMARK    5  A    between atoms: C_21  and  C_23
REMARK                            x       y       z     vdW  Elec       q    Type
REMARK                         _______ _______ _______ _____ _____    ______ ____
ROOT
ATOM      1  N   UNL     1      34.087 -13.889 -23.060  0.00  0.00    +0.392 N 
ATOM      2  C   UNL     1      34.654 -16.756 -22.822  0.00  0.00    +0.016 C 
ATOM      3  C   UNL     1      34.565 -16.044 -24.177  0.00  0.00    -0.021 C 
ATOM      4  C   UNL     1      35.036 -15.748 -21.732  0.00  0.00    -0.021 C 
ATOM      5  C   UNL     1      33.647 -14.823 -24.104  0.00  0.00    -0.077 C 
ATOM      6  C   UNL     1      34.102 -14.537 -21.741  0.00  0.00    -0.077 C 
ATOM      7  H   UNL     1      35.041 -13.599 -23.278  0.00  0.00    -0.079 HD
ENDROOT
BRANCH   2   8
ATOM      8  C   UNL     1      35.648 -17.913 -22.873  0.00  0.00    +0.094 C 
BRANCH   8  10
ATOM      9  O   UNL     1      37.498 -19.289 -20.924  0.00  0.00    -0.270 OA
ATOM     10  N   UNL     1      35.362 -18.881 -21.858  0.00  0.00    -0.272 N 
ATOM     11  C   UNL     1      34.001 -19.369 -21.614  0.00  0.00    +0.121 C 
ATOM     12  C   UNL     1      36.296 -19.467 -20.995  0.00  0.00    +0.249 C 
ATOM     13  C   UNL     1      34.201 -20.331 -20.493  0.00  0.00    +0.002 C 
ATOM     14  C   UNL     1      35.547 -20.387 -20.132  0.00  0.00    +0.051 C 
ATOM     15  C   UNL     1      33.268 -21.108 -19.832  0.00  0.00    -0.002 C 
ATOM     16  C   UNL     1      36.015 -21.200 -19.119  0.00  0.00    +0.004 C 
ATOM     17  C   UNL     1      33.715 -21.941 -18.801  0.00  0.00    -0.000 C 
ATOM     18  C   UNL     1      35.077 -21.986 -18.448  0.00  0.00    +0.000 C 
ENDBRANCH   8  10
ENDBRANCH   2   8
BRANCH   1  19
ATOM     19  C   UNL     1      33.231 -12.704 -23.038  0.00  0.00    -0.006 C 
BRANCH  19  21
ATOM     20  O   UNL     1      34.229 -11.964 -25.107  0.00  0.00    -0.294 OA
ATOM     21  C   UNL     1      33.791 -11.669 -23.998  0.00  0.00    +0.152 C 
BRANCH  21  23
ATOM     22  F   UNL     1      33.848  -6.319 -22.404  0.00  0.00    -0.204 F 
ATOM     23  C   UNL     1      33.806 -10.238 -23.571  0.00  0.00    +0.033 C 
ATOM     24  C   UNL     1      34.893  -9.463 -23.905  0.00  0.00    +0.005 C 
ATOM     25  C   UNL     1      32.734  -9.751 -22.861  0.00  0.00    +0.005 C 
ATOM     26  C   UNL     1      34.908  -8.126 -23.508  0.00  0.00    +0.030 C 
ATOM     27  C   UNL     1      32.747  -8.415 -22.464  0.00  0.00    +0.030 C 
ATOM     28  C   UNL     1      33.834  -7.602 -22.787  0.00  0.00    +0.140 C 
ENDBRANCH  21  23
ENDBRANCH  19  21
ENDBRANCH   1  19
TORSDOF 5
ENDMDL
MODEL 2
REMARK VINA RESULT:     -11.5      3.731     10.125
REMARK  Name = 9799284
REMARK  5 active torsions:
REMARK  status: ('A' for Active; 'I' for Inactive)
REMARK    1  A    between atoms: N_1  and  C_19
REMARK    2  A    between atoms: C_2  and  C_8
REMARK    3  A    between atoms: C_8  and  N_10
REMARK    4  A    between atoms: C_19  and  C_21
REMARK    5  A    between atoms: C_21  and  C_23
REMARK                            x       y       z     vdW  Elec       q    Type
REMARK                         _______ _______ _______ _____ _____    ______ ____
ROOT
ATOM      1  N   UNL     1      34.169 -15.368 -22.712  0.00  0.00    +0.392 N 
ATOM      2  C   UNL     1      32.873 -12.891 -21.828  0.00  0.00    +0.016 C 
ATOM      3  C   UNL     1      32.671 -13.469 -23.233  0.00  0.00    -0.021 C 
ATOM      4  C   UNL     1      33.252 -14.013 -20.856  0.00  0.00    -0.021 C 
ATOM      5  C   UNL     1      33.881 -14.296 -23.674  0.00  0.00    -0.077 C 
ATOM      6  C   UNL     1      34.442 -14.821 -21.375  0.00  0.00    -0.077 C 
ATOM      7  H   UNL     1      33.343 -15.962 -22.645  0.00  0.00    -0.079 HD
ENDROOT
BRANCH   2   8
ATOM      8  C   UNL     1      31.625 -12.152 -21.354  0.00  0.00    +0.094 C 
BRANCH   8  10
ATOM      9  O   UNL     1      31.232 -10.147 -19.131  0.00  0.00    -0.270 OA
ATOM     10  N   UNL     1      31.840 -10.736 -21.341  0.00  0.00    -0.272 N 
ATOM     11  C   UNL     1      32.327 -10.016 -22.521  0.00  0.00    +0.121 C 
ATOM     12  C   UNL     1      31.627  -9.883 -20.252  0.00  0.00    +0.249 C 
ATOM     13  C   UNL     1      32.393  -8.609 -22.034  0.00  0.00    +0.002 C 
ATOM     14  C   UNL     1      31.982  -8.534 -20.703  0.00  0.00    +0.051 C 
ATOM     15  C   UNL     1      32.785  -7.468 -22.709  0.00  0.00    -0.002 C 
ATOM     16  C   UNL     1      31.944  -7.346 -20.000  0.00  0.00    +0.004 C 
ATOM     17  C   UNL     1      32.757  -6.251 -22.020  0.00  0.00    -0.000 C 
ATOM     18  C   UNL     1      32.340  -6.191 -20.677  0.00  0.00    +0.000 C 
ENDBRANCH   8  10
ENDBRANCH   2   8
BRANCH   1  19
ATOM     19  C   UNL     1      35.295 -16.180 -23.172  0.00  0.00    -0.006 C 
BRANCH  19  21
ATOM     20  O   UNL     1      34.186 -18.077 -24.172  0.00  0.00    -0.294 OA
ATOM     21  C   UNL     1      34.861 -17.633 -23.246  0.00  0.00    +0.152 C 
BRANCH  21  23
ATOM     22  F   UNL     1      36.405 -21.074 -19.130  0.00  0.00    -0.204 F 
ATOM     23  C   UNL     1      35.274 -18.554 -22.145  0.00  0.00    +0.033 C 
ATOM     24  C   UNL     1      36.577 -18.511 -21.706  0.00  0.00    +0.005 C 
ATOM     25  C   UNL     1      34.336 -19.408 -21.614  0.00  0.00    +0.005 C 
ATOM     26  C   UNL     1      36.963 -19.370 -20.677  0.00  0.00    +0.030 C 
ATOM     27  C   UNL     1      34.721 -20.267 -20.586  0.00  0.00    +0.030 C 
ATOM     28  C   UNL     1      36.035 -20.249 -20.117  0.00  0.00    +0.140 C 
ENDBRANCH  21  23
ENDBRANCH  19  21
ENDBRANCH   1  19
TORSDOF 5
ENDMDL
MODEL 3
REMARK VINA RESULT:     -11.2      4.620     10.743
REMARK  Name = 9799284
REMARK  5 active torsions:
REMARK  status: ('A' for Active; 'I' for Inactive)
REMARK    1  A    between atoms: N_1  and  C_19
REMARK    2  A    between atoms: C_2  and  C_8
REMARK    3  A    between atoms: C_8  and  N_10
REMARK    4  A    between atoms: C_19  and  C_21
REMARK    5  A    between atoms: C_21  and  C_23
REMARK                            x       y       z     vdW  Elec       q    Type
REMARK                         _______ _______ _______ _____ _____    ______ ____
ROOT
ATOM      1  N   UNL     1      35.291 -21.288 -19.609  0.00  0.00    +0.392 N 
ATOM      2  C   UNL     1      35.286 -19.127 -21.590  0.00  0.00    +0.016 C 
ATOM      3  C   UNL     1      36.565 -19.868 -21.185  0.00  0.00    -0.021 C 
ATOM      4  C   UNL     1      34.068 -20.025 -21.351  0.00  0.00    -0.021 C 
ATOM      5  C   UNL     1      36.462 -20.414 -19.760  0.00  0.00    -0.077 C 
ATOM      6  C   UNL     1      34.049 -20.567 -19.920  0.00  0.00    -0.077 C 
ATOM      7  H   UNL     1      35.383 -22.056 -20.274  0.00  0.00    -0.079 HD
ENDROOT
BRANCH   2   8
ATOM      8  C   UNL     1      35.353 -18.670 -23.045  0.00  0.00    +0.094 C 
BRANCH   8  10
ATOM      9  O   UNL     1      34.242 -17.213 -25.444  0.00  0.00    -0.270 OA
ATOM     10  N   UNL     1      34.917 -17.313 -23.178  0.00  0.00    -0.272 N 
ATOM     11  C   UNL     1      34.958 -16.372 -22.056  0.00  0.00    +0.121 C 
ATOM     12  C   UNL     1      34.412 -16.723 -24.343  0.00  0.00    +0.249 C 
ATOM     13  C   UNL     1      34.417 -15.123 -22.662  0.00  0.00    +0.002 C 
ATOM     14  C   UNL     1      34.097 -15.332 -24.004  0.00  0.00    +0.051 C 
ATOM     15  C   UNL     1      34.217 -13.885 -22.082  0.00  0.00    -0.002 C 
ATOM     16  C   UNL     1      33.575 -14.339 -24.810  0.00  0.00    +0.004 C 
ATOM     17  C   UNL     1      33.689 -12.861 -22.876  0.00  0.00    -0.000 C 
ATOM     18  C   UNL     1      33.371 -13.087 -24.228  0.00  0.00    +0.000 C 
ENDBRANCH   8  10
ENDBRANCH   2   8
BRANCH   1  19
ATOM     19  C   UNL     1      35.236 -21.843 -18.258  0.00  0.00    -0.006 C 
BRANCH  19  21
ATOM     20  O   UNL     1      33.845 -23.605 -19.145  0.00  0.00    -0.294 OA
ATOM     21  C   UNL     1      34.132 -22.883 -18.193  0.00  0.00    +0.152 C 
BRANCH  21  23
ATOM     22  F   UNL     1      31.276 -23.427 -13.426  0.00  0.00    -0.204 F 
ATOM     23  C   UNL     1      33.367 -23.030 -16.918  0.00  0.00    +0.033 C 
ATOM     24  C   UNL     1      34.059 -23.331 -15.767  0.00  0.00    +0.005 C 
ATOM     25  C   UNL     1      32.003 -22.857 -16.944  0.00  0.00    +0.005 C 
ATOM     26  C   UNL     1      33.346 -23.466 -14.576  0.00  0.00    +0.030 C 
ATOM     27  C   UNL     1      31.290 -22.991 -15.754  0.00  0.00    +0.030 C 
ATOM     28  C   UNL     1      31.961 -23.297 -14.570  0.00  0.00    +0.140 C 
ENDBRANCH  21  23
ENDBRANCH  19  21
ENDBRANCH   1  19
TORSDOF 5
ENDMDL
MODEL 4
REMARK VINA RESULT:     -11.1      3.598     10.402
REMARK  Name = 9799284
REMARK  5 active torsions:
REMARK  status: ('A' for Active; 'I' for Inactive)
REMARK    1  A    between atoms: N_1  and  C_19
REMARK    2  A    between atoms: C_2  and  C_8
REMARK    3  A    between atoms: C_8  and  N_10
REMARK    4  A    between atoms: C_19  and  C_21
REMARK    5  A    between atoms: C_21  and  C_23
REMARK                            x       y       z     vdW  Elec       q    Type
REMARK                         _______ _______ _______ _____ _____    ______ ____
ROOT
ATOM      1  N   UNL     1      34.494 -16.222 -22.158  0.00  0.00    +0.392 N 
ATOM      2  C   UNL     1      33.525 -13.477 -22.508  0.00  0.00    +0.016 C 
ATOM      3  C   UNL     1      33.554 -14.492 -23.656  0.00  0.00    -0.021 C 
ATOM      4  C   UNL     1      33.441 -14.214 -21.167  0.00  0.00    -0.021 C 
ATOM      5  C   UNL     1      34.652 -15.536 -23.448  0.00  0.00    -0.077 C 
ATOM      6  C   UNL     1      34.543 -15.268 -21.041  0.00  0.00    -0.077 C 
ATOM      7  H   UNL     1      33.578 -16.670 -22.149  0.00  0.00    -0.079 HD
ENDROOT
BRANCH   2   8
ATOM      8  C   UNL     1      32.365 -12.498 -22.669  0.00  0.00    +0.094 C 
BRANCH   8  10
ATOM      9  O   UNL     1      31.282  -9.938 -21.493  0.00  0.00    -0.270 OA
ATOM     10  N   UNL     1      32.842 -11.154 -22.793  0.00  0.00    -0.272 N 
ATOM     11  C   UNL     1      34.032 -10.822 -23.580  0.00  0.00    +0.121 C 
ATOM     12  C   UNL     1      32.266 -10.021 -22.204  0.00  0.00    +0.249 C 
ATOM     13  C   UNL     1      34.129  -9.345 -23.411  0.00  0.00    +0.002 C 
ATOM     14  C   UNL     1      33.092  -8.878 -22.603  0.00  0.00    +0.051 C 
ATOM     15  C   UNL     1      35.061  -8.465 -23.928  0.00  0.00    -0.002 C 
ATOM     16  C   UNL     1      32.941  -7.543 -22.281  0.00  0.00    +0.004 C 
ATOM     17  C   UNL     1      34.931  -7.108 -23.618  0.00  0.00    -0.000 C 
ATOM     18  C   UNL     1      33.880  -6.651 -22.801  0.00  0.00    +0.000 C 
ENDBRANCH   8  10
ENDBRANCH   2   8
BRANCH   1  19
ATOM     19  C   UNL     1      35.520 -17.252 -21.997  0.00  0.00    -0.006 C 
BRANCH  19  21
ATOM     20  O   UNL     1      34.438 -18.916 -23.369  0.00  0.00    -0.294 OA
ATOM     21  C   UNL     1      34.905 -18.612 -22.274  0.00  0.00    +0.152 C 
BRANCH  21  23
ATOM     22  F   UNL     1      34.775 -22.366 -18.144  0.00  0.00    -0.204 F 
ATOM     23  C   UNL     1      34.870 -19.615 -21.169  0.00  0.00    +0.033 C 
ATOM     24  C   UNL     1      33.648 -20.085 -20.745  0.00  0.00    +0.005 C 
ATOM     25  C   UNL     1      36.060 -20.031 -20.619  0.00  0.00    +0.005 C 
ATOM     26  C   UNL     1      33.616 -21.024 -19.713  0.00  0.00    +0.030 C 
ATOM     27  C   UNL     1      36.029 -20.969 -19.588  0.00  0.00    +0.030 C 
ATOM     28  C   UNL     1      34.806 -21.465 -19.134  0.00  0.00    +0.140 C 
ENDBRANCH  21  23
ENDBRANCH  19  21
ENDBRANCH   1  19
TORSDOF 5
ENDMDL
MODEL 5
REMARK VINA RESULT:     -11.1      4.021      6.916
REMARK  Name = 9799284
REMARK  5 active torsions:
REMARK  status: ('A' for Active; 'I' for Inactive)
REMARK    1  A    between atoms: N_1  and  C_19
REMARK    2  A    between atoms: C_2  and  C_8
REMARK    3  A    between atoms: C_8  and  N_10
REMARK    4  A    between atoms: C_19  and  C_21
REMARK    5  A    between atoms: C_21  and  C_23
REMARK                            x       y       z     vdW  Elec       q    Type
REMARK                         _______ _______ _______ _____ _____    ______ ____
ROOT
ATOM      1  N   UNL     1      35.015 -19.984 -20.945  0.00  0.00    +0.392 N 
ATOM      2  C   UNL     1      34.270 -21.901 -18.856  0.00  0.00    +0.016 C 
ATOM      3  C   UNL     1      33.262 -21.367 -19.880  0.00  0.00    -0.021 C 
ATOM      4  C   UNL     1      35.687 -21.825 -19.436  0.00  0.00    -0.021 C 
ATOM      5  C   UNL     1      33.660 -19.977 -20.378  0.00  0.00    -0.077 C 
ATOM      6  C   UNL     1      36.004 -20.420 -19.950  0.00  0.00    -0.077 C 
ATOM      7  H   UNL     1      35.030 -20.651 -21.717  0.00  0.00    -0.079 HD
ENDROOT
BRANCH   2   8
ATOM      8  C   UNL     1      33.925 -23.327 -18.437  0.00  0.00    +0.094 C 
BRANCH   8  10
ATOM      9  O   UNL     1      35.127 -24.101 -15.778  0.00  0.00    -0.270 OA
ATOM     10  N   UNL     1      33.337 -23.351 -17.132  0.00  0.00    -0.272 N 
ATOM     11  C   UNL     1      31.943 -22.961 -16.902  0.00  0.00    +0.121 C 
ATOM     12  C   UNL     1      33.982 -23.728 -15.948  0.00  0.00    +0.249 C 
ATOM     13  C   UNL     1      31.796 -23.141 -15.430  0.00  0.00    +0.002 C 
ATOM     14  C   UNL     1      32.993 -23.592 -14.873  0.00  0.00    +0.051 C 
ATOM     15  C   UNL     1      30.690 -22.928 -14.629  0.00  0.00    -0.002 C 
ATOM     16  C   UNL     1      33.140 -23.843 -13.522  0.00  0.00    +0.004 C 
ATOM     17  C   UNL     1      30.811 -23.174 -13.258  0.00  0.00    -0.000 C 
ATOM     18  C   UNL     1      32.026 -23.627 -12.709  0.00  0.00    +0.000 C 
ENDBRANCH   8  10
ENDBRANCH   2   8
BRANCH   1  19
ATOM     19  C   UNL     1      35.360 -18.661 -21.465  0.00  0.00    -0.006 C 
BRANCH  19  21
ATOM     20  O   UNL     1      34.989 -19.562 -23.672  0.00  0.00    -0.294 OA
ATOM     21  C   UNL     1      34.966 -18.584 -22.929  0.00  0.00    +0.152 C 
BRANCH  21  23
ATOM     22  F   UNL     1      33.353 -13.652 -24.989  0.00  0.00    -0.204 F 
ATOM     23  C   UNL     1      34.536 -17.264 -23.480  0.00  0.00    +0.033 C 
ATOM     24  C   UNL     1      33.865 -17.241 -24.682  0.00  0.00    +0.005 C 
ATOM     25  C   UNL     1      34.825 -16.126 -22.765  0.00  0.00    +0.005 C 
ATOM     26  C   UNL     1      33.461 -16.009 -25.197  0.00  0.00    +0.030 C 
ATOM     27  C   UNL     1      34.421 -14.894 -23.279  0.00  0.00    +0.030 C 
ATOM     28  C   UNL     1      33.740 -14.835 -24.495  0.00  0.00    +0.140 C 
ENDBRANCH  21  23
ENDBRANCH  19  21
ENDBRANCH   1  19
TORSDOF 5
ENDMDL
MODEL 6
REMARK VINA RESULT:     -10.9      3.540      9.646
REMARK  Name = 9799284
REMARK  5 active torsions:
REMARK  status: ('A' for Active; 'I' for Inactive)
REMARK    1  A    between atoms: N_1  and  C_19
REMARK    2  A    between atoms: C_2  and  C_8
REMARK    3  A    between atoms: C_8  and  N_10
REMARK    4  A    between atoms: C_19  and  C_21
REMARK    5  A    between atoms: C_21  and  C_23
REMARK                            x       y       z     vdW  Elec       q    Type
REMARK                         _______ _______ _______ _____ _____    ______ ____
ROOT
ATOM      1  N   UNL     1      34.942 -17.924 -23.572  0.00  0.00    +0.392 N 
ATOM      2  C   UNL     1      33.832 -15.224 -23.839  0.00  0.00    +0.016 C 
ATOM      3  C   UNL     1      34.942 -15.562 -22.837  0.00  0.00    -0.021 C 
ATOM      4  C   UNL     1      33.866 -16.218 -25.005  0.00  0.00    -0.021 C 
ATOM      5  C   UNL     1      34.877 -17.029 -22.409  0.00  0.00    -0.077 C 
ATOM      6  C   UNL     1      33.837 -17.664 -24.505  0.00  0.00    -0.077 C 
ATOM      7  H   UNL     1      35.818 -17.740 -24.063  0.00  0.00    -0.079 HD
ENDROOT
BRANCH   2   8
ATOM      8  C   UNL     1      33.962 -13.788 -24.339  0.00  0.00    +0.094 C 
BRANCH   8  10
ATOM      9  O   UNL     1      34.067 -10.772 -24.259  0.00  0.00    -0.270 OA
ATOM     10  N   UNL     1      33.357 -12.869 -23.422  0.00  0.00    -0.272 N 
ATOM     11  C   UNL     1      32.529 -13.323 -22.301  0.00  0.00    +0.121 C 
ATOM     12  C   UNL     1      33.464 -11.474 -23.468  0.00  0.00    +0.249 C 
ATOM     13  C   UNL     1      32.133 -12.041 -21.653  0.00  0.00    +0.002 C 
ATOM     14  C   UNL     1      32.683 -10.958 -22.339  0.00  0.00    +0.051 C 
ATOM     15  C   UNL     1      31.345 -11.833 -20.537  0.00  0.00    -0.002 C 
ATOM     16  C   UNL     1      32.477  -9.648 -21.953  0.00  0.00    +0.004 C 
ATOM     17  C   UNL     1      31.120 -10.516 -20.125  0.00  0.00    -0.000 C 
ATOM     18  C   UNL     1      31.681  -9.433 -20.827  0.00  0.00    +0.000 C 
ENDBRANCH   8  10
ENDBRANCH   2   8
BRANCH   1  19
ATOM     19  C   UNL     1      34.932 -19.322 -23.144  0.00  0.00    -0.006 C 
BRANCH  19  21
ATOM     20  O   UNL     1      36.625 -18.870 -21.485  0.00  0.00    -0.294 OA
ATOM     21  C   UNL     1      35.567 -19.425 -21.769  0.00  0.00    +0.152 C 
BRANCH  21  23
ATOM     22  F   UNL     1      32.965 -22.452 -17.865  0.00  0.00    -0.204 F 
ATOM     23  C   UNL     1      34.871 -20.234 -20.724  0.00  0.00    +0.033 C 
ATOM     24  C   UNL     1      33.499 -20.160 -20.639  0.00  0.00    +0.005 C 
ATOM     25  C   UNL     1      35.628 -21.022 -19.888  0.00  0.00    +0.005 C 
ATOM     26  C   UNL     1      32.849 -20.917 -19.665  0.00  0.00    +0.030 C 
ATOM     27  C   UNL     1      34.979 -21.779 -18.914  0.00  0.00    +0.030 C 
ATOM     28  C   UNL     1      33.589 -21.726 -18.801  0.00  0.00    +0.140 C 
ENDBRANCH  21  23
ENDBRANCH  19  21
ENDBRANCH   1  19
TORSDOF 5
ENDMDL
MODEL 7
REMARK VINA RESULT:     -10.9      1.713      2.153
REMARK  Name = 9799284
REMARK  5 active torsions:
REMARK  status: ('A' for Active; 'I' for Inactive)
REMARK    1  A    between atoms: N_1  and  C_19
REMARK    2  A    between atoms: C_2  and  C_8
REMARK    3  A    between atoms: C_8  and  N_10
REMARK    4  A    between atoms: C_19  and  C_21
REMARK    5  A    between atoms: C_21  and  C_23
REMARK                            x       y       z     vdW  Elec       q    Type
REMARK                         _______ _______ _______ _____ _____    ______ ____
ROOT
ATOM      1  N   UNL     1      33.936 -14.457 -23.820  0.00  0.00    +0.392 N 
ATOM      2  C   UNL     1      34.797 -17.112 -22.923  0.00  0.00    +0.016 C 
ATOM      3  C   UNL     1      34.811 -16.697 -24.398  0.00  0.00    -0.021 C 
ATOM      4  C   UNL     1      34.906 -15.868 -22.034  0.00  0.00    -0.021 C 
ATOM      5  C   UNL     1      33.755 -15.629 -24.686  0.00  0.00    -0.077 C 
ATOM      6  C   UNL     1      33.847 -14.827 -22.401  0.00  0.00    -0.077 C 
ATOM      7  H   UNL     1      34.870 -14.082 -23.989  0.00  0.00    -0.079 HD
ENDROOT
BRANCH   2   8
ATOM      8  C   UNL     1      35.918 -18.103 -22.619  0.00  0.00    +0.094 C 
BRANCH   8  10
ATOM      9  O   UNL     1      37.553 -19.657 -20.613  0.00  0.00    -0.270 OA
ATOM     10  N   UNL     1      35.505 -19.060 -21.638  0.00  0.00    -0.272 N 
ATOM     11  C   UNL     1      34.099 -19.439 -21.468  0.00  0.00    +0.121 C 
ATOM     12  C   UNL     1      36.346 -19.734 -20.744  0.00  0.00    +0.249 C 
ATOM     13  C   UNL     1      34.165 -20.432 -20.358  0.00  0.00    +0.002 C 
ATOM     14  C   UNL     1      35.484 -20.603 -19.936  0.00  0.00    +0.051 C 
ATOM     15  C   UNL     1      33.142 -21.140 -19.757  0.00  0.00    -0.002 C 
ATOM     16  C   UNL     1      35.835 -21.468 -18.917  0.00  0.00    +0.004 C 
ATOM     17  C   UNL     1      33.470 -22.023 -18.723  0.00  0.00    -0.000 C 
ATOM     18  C   UNL     1      34.805 -22.185 -18.307  0.00  0.00    +0.000 C 
ENDBRANCH   8  10
ENDBRANCH   2   8
BRANCH   1  19
ATOM     19  C   UNL     1      32.952 -13.424 -24.142  0.00  0.00    -0.006 C 
BRANCH  19  21
ATOM     20  O   UNL     1      34.359 -11.471 -23.973  0.00  0.00    -0.294 OA
ATOM     21  C   UNL     1      33.400 -12.105 -23.539  0.00  0.00    +0.152 C 
BRANCH  21  23
ATOM     22  F   UNL     1      30.562 -10.079 -19.179  0.00  0.00    -0.204 F 
ATOM     23  C   UNL     1      32.642 -11.564 -22.372  0.00  0.00    +0.033 C 
ATOM     24  C   UNL     1      32.515 -10.199 -22.246  0.00  0.00    +0.005 C 
ATOM     25  C   UNL     1      32.099 -12.449 -21.470  0.00  0.00    +0.005 C 
ATOM     26  C   UNL     1      31.805  -9.692 -21.157  0.00  0.00    +0.030 C 
ATOM     27  C   UNL     1      31.390 -11.943 -20.382  0.00  0.00    +0.030 C 
ATOM     28  C   UNL     1      31.243 -10.565 -20.225  0.00  0.00    +0.140 C 
ENDBRANCH  21  23
ENDBRANCH  19  21
ENDBRANCH   1  19
TORSDOF 5
ENDMDL
MODEL 8
REMARK VINA RESULT:     -10.8      0.902      1.451
REMARK  Name = 9799284
REMARK  5 active torsions:
REMARK  status: ('A' for Active; 'I' for Inactive)
REMARK    1  A    between atoms: N_1  and  C_19
REMARK    2  A    between atoms: C_2  and  C_8
REMARK    3  A    between atoms: C_8  and  N_10
REMARK    4  A    between atoms: C_19  and  C_21
REMARK    5  A    between atoms: C_21  and  C_23
REMARK                            x       y       z     vdW  Elec       q    Type
REMARK                         _______ _______ _______ _____ _____    ______ ____
ROOT
ATOM      1  N   UNL     1      34.149 -14.024 -23.071  0.00  0.00    +0.392 N 
ATOM      2  C   UNL     1      34.701 -16.896 -22.862  0.00  0.00    +0.016 C 
ATOM      3  C   UNL     1      34.566 -16.181 -24.210  0.00  0.00    -0.021 C 
ATOM      4  C   UNL     1      35.134 -15.895 -21.785  0.00  0.00    -0.021 C 
ATOM      5  C   UNL     1      33.661 -14.952 -24.100  0.00  0.00    -0.077 C 
ATOM      6  C   UNL     1      34.210 -14.676 -21.755  0.00  0.00    -0.077 C 
ATOM      7  H   UNL     1      35.096 -13.742 -23.326  0.00  0.00    -0.079 HD
ENDROOT
BRANCH   2   8
ATOM      8  C   UNL     1      35.683 -18.061 -22.954  0.00  0.00    +0.094 C 
BRANCH   8  10
ATOM      9  O   UNL     1      33.202 -19.571 -22.131  0.00  0.00    -0.270 OA
ATOM     10  N   UNL     1      35.482 -18.988 -21.881  0.00  0.00    -0.272 N 
ATOM     11  C   UNL     1      36.563 -19.356 -20.962  0.00  0.00    +0.121 C 
ATOM     12  C   UNL     1      34.283 -19.644 -21.577  0.00  0.00    +0.249 C 
ATOM     13  C   UNL     1      35.891 -20.322 -20.046  0.00  0.00    +0.002 C 
ATOM     14  C   UNL     1      34.554 -20.488 -20.409  0.00  0.00    +0.051 C 
ATOM     15  C   UNL     1      36.412 -21.009 -18.967  0.00  0.00    -0.002 C 
ATOM     16  C   UNL     1      33.696 -21.329 -19.728  0.00  0.00    +0.004 C 
ATOM     17  C   UNL     1      35.564 -21.868 -18.259  0.00  0.00    -0.000 C 
ATOM     18  C   UNL     1      34.218 -22.026 -18.637  0.00  0.00    +0.000 C 
ENDBRANCH   8  10
ENDBRANCH   2   8
BRANCH   1  19
ATOM     19  C   UNL     1      33.304 -12.832 -23.013  0.00  0.00    -0.006 C 
BRANCH  19  21
ATOM     20  O   UNL     1      34.231 -12.107 -25.120  0.00  0.00    -0.294 OA
ATOM     21  C   UNL     1      33.828 -11.804 -23.999  0.00  0.00    +0.152 C 
BRANCH  21  23
ATOM     22  F   UNL     1      33.915  -6.440 -22.454  0.00  0.00    -0.204 F 
ATOM     23  C   UNL     1      33.852 -10.370 -23.585  0.00  0.00    +0.033 C 
ATOM     24  C   UNL     1      34.927  -9.595 -23.957  0.00  0.00    +0.005 C 
ATOM     25  C   UNL     1      32.798  -9.879 -22.850  0.00  0.00    +0.005 C 
ATOM     26  C   UNL     1      34.948  -8.254 -23.572  0.00  0.00    +0.030 C 
ATOM     27  C   UNL     1      32.819  -8.539 -22.464  0.00  0.00    +0.030 C 
ATOM     28  C   UNL     1      33.894  -7.727 -22.825  0.00  0.00    +0.140 C 
ENDBRANCH  21  23
ENDBRANCH  19  21
ENDBRANCH   1  19
TORSDOF 5
ENDMDL
MODEL 9
REMARK VINA RESULT:     -10.7      5.420     11.102
REMARK  Name = 9799284
REMARK  5 active torsions:
REMARK  status: ('A' for Active; 'I' for Inactive)
REMARK    1  A    between atoms: N_1  and  C_19
REMARK    2  A    between atoms: C_2  and  C_8
REMARK    3  A    between atoms: C_8  and  N_10
REMARK    4  A    between atoms: C_19  and  C_21
REMARK    5  A    between atoms: C_21  and  C_23
REMARK                            x       y       z     vdW  Elec       q    Type
REMARK                         _______ _______ _______ _____ _____    ______ ____
ROOT
ATOM      1  N   UNL     1      33.986 -21.646 -18.639  0.00  0.00    +0.392 N 
ATOM      2  C   UNL     1      35.505 -20.279 -20.740  0.00  0.00    +0.016 C 
ATOM      3  C   UNL     1      34.109 -19.820 -20.304  0.00  0.00    -0.021 C 
ATOM      4  C   UNL     1      36.185 -21.034 -19.593  0.00  0.00    -0.021 C 
ATOM      5  C   UNL     1      33.289 -20.987 -19.751  0.00  0.00    -0.077 C 
ATOM      6  C   UNL     1      35.295 -22.161 -19.064  0.00  0.00    -0.077 C 
ATOM      7  H   UNL     1      34.143 -20.951 -17.909  0.00  0.00    -0.079 HD
ENDROOT
BRANCH   2   8
ATOM      8  C   UNL     1      36.354 -19.095 -21.197  0.00  0.00    +0.094 C 
BRANCH   8  10
ATOM      9  O   UNL     1      34.911 -19.794 -23.755  0.00  0.00    -0.270 OA
ATOM     10  N   UNL     1      35.625 -18.258 -22.101  0.00  0.00    -0.272 N 
ATOM     11  C   UNL     1      35.471 -16.819 -21.873  0.00  0.00    +0.121 C 
ATOM     12  C   UNL     1      34.984 -18.679 -23.273  0.00  0.00    +0.249 C 
ATOM     13  C   UNL     1      34.656 -16.392 -23.046  0.00  0.00    +0.002 C 
ATOM     14  C   UNL     1      34.372 -17.485 -23.865  0.00  0.00    +0.051 C 
ATOM     15  C   UNL     1      34.194 -15.132 -23.377  0.00  0.00    -0.002 C 
ATOM     16  C   UNL     1      33.630 -17.374 -25.025  0.00  0.00    +0.004 C 
ATOM     17  C   UNL     1      33.439 -14.993 -24.546  0.00  0.00    -0.000 C 
ATOM     18  C   UNL     1      33.160 -16.104 -25.363  0.00  0.00    +0.000 C 
ENDBRANCH   8  10
ENDBRANCH   2   8
BRANCH   1  19
ATOM     19  C   UNL     1      33.167 -22.725 -18.088  0.00  0.00    -0.006 C 
BRANCH  19  21
ATOM     20  O   UNL     1      34.944 -23.356 -16.582  0.00  0.00    -0.294 OA
ATOM     21  C   UNL     1      33.744 -23.154 -16.751  0.00  0.00    +0.152 C 
BRANCH  21  23
ATOM     22  F   UNL     1      30.256 -23.827 -12.444  0.00  0.00    -0.204 F 
ATOM     23  C   UNL     1      32.811 -23.335 -15.599  0.00  0.00    +0.033 C 
ATOM     24  C   UNL     1      33.325 -23.759 -14.396  0.00  0.00    +0.005 C 
ATOM     25  C   UNL     1      31.474 -23.068 -15.786  0.00  0.00    +0.005 C 
ATOM     26  C   UNL     1      32.454 -23.927 -13.319  0.00  0.00    +0.030 C 
ATOM     27  C   UNL     1      30.603 -23.235 -14.711  0.00  0.00    +0.030 C 
ATOM     28  C   UNL     1      31.093 -23.665 -13.477  0.00  0.00    +0.140 C 
ENDBRANCH  21  23
ENDBRANCH  19  21
ENDBRANCH   1  19
TORSDOF 5
ENDMDL
