MODEL 1
REMARK VINA RESULT:     -12.0      0.000      0.000
REMARK  Name = 24755471
REMARK  13 active torsions:
REMARK  status: ('A' for Active; 'I' for Inactive)
REMARK    1  A    between atoms: C_1  and  S_11
REMARK    2  A    between atoms: C_9  and  O_27
REMARK    3  A    between atoms: S_11  and  N_14
REMARK    4  A    between atoms: N_14  and  C_16
REMARK    5  A    between atoms: C_16  and  C_18
REMARK    6  A    between atoms: C_16  and  C_21
REMARK    7  A    between atoms: C_18  and  O_19
REMARK    8  A    between atoms: C_21  and  C_22
REMARK    9  A    between atoms: C_22  and  C_24
REMARK   10  A    between atoms: C_24  and  O_25
REMARK   11  A    between atoms: O_27  and  C_28
REMARK   12  A    between atoms: C_28  and  C_29
REMARK   13  A    between atoms: C_34  and  C_36
REMARK                            x       y       z     vdW  Elec       q    Type
REMARK                         _______ _______ _______ _____ _____    ______ ____
ROOT
ATOM      1  C   UNL     1      35.965 -22.870 -16.383  0.00  0.00    +0.122 C 
ATOM      2  C   UNL     1      34.463 -22.027 -18.102  0.00  0.00    +0.002 C 
ATOM      3  C   UNL     1      34.685 -22.770 -16.932  0.00  0.00    +0.020 C 
ATOM      4  C   UNL     1      35.554 -21.375 -18.726  0.00  0.00    +0.003 C 
ATOM      5  C   UNL     1      37.037 -22.229 -16.996  0.00  0.00    +0.020 C 
ATOM      6  C   UNL     1      36.835 -21.486 -18.160  0.00  0.00    +0.001 C 
ATOM      7  C   UNL     1      35.332 -20.632 -19.896  0.00  0.00    +0.037 C 
ATOM      8  C   UNL     1      33.182 -21.917 -18.669  0.00  0.00    +0.003 C 
ATOM      9  C   UNL     1      34.052 -20.533 -20.445  0.00  0.00    +0.139 C 
ATOM     10  C   UNL     1      32.980 -21.175 -19.832  0.00  0.00    +0.037 C 
ENDROOT
BRANCH   1  11
ATOM     11  S   UNL     1      36.222 -23.810 -14.908  0.00  0.00    +0.061 S 
ATOM     12  O   UNL     1      35.888 -22.967 -13.777  0.00  0.00    -0.153 OA
ATOM     13  O   UNL     1      35.550 -25.081 -15.096  0.00  0.00    -0.153 OA
BRANCH  11  14
ATOM     14  N   UNL     1      37.903 -24.065 -14.946  0.00  0.00    -0.170 NA
ATOM     15  H   UNL     1      38.338 -23.200 -14.626  0.00  0.00    +0.149 HD
BRANCH  14  16
ATOM     16  C   UNL     1      38.501 -25.164 -14.156  0.00  0.00    +0.174 C 
BRANCH  16  18
ATOM     17  O   UNL     1      40.898 -24.841 -13.904  0.00  0.00    -0.249 OA
ATOM     18  C   UNL     1      39.954 -25.284 -14.547  0.00  0.00    +0.330 C 
BRANCH  18  19
ATOM     19  O   UNL     1      40.117 -25.970 -15.707  0.00  0.00    -0.479 OA
ATOM     20  H   UNL     1      39.646 -26.767 -15.850  0.00  0.00    +0.295 HD
ENDBRANCH  18  19
ENDBRANCH  16  18
BRANCH  16  21
ATOM     21  C   UNL     1      38.259 -24.939 -12.659  0.00  0.00    +0.040 C 
BRANCH  21  22
ATOM     22  C   UNL     1      37.169 -25.796 -12.009  0.00  0.00    +0.111 C 
BRANCH  22  24
ATOM     23  O   UNL     1      36.568 -24.405 -10.128  0.00  0.00    -0.250 OA
ATOM     24  C   UNL     1      36.223 -25.017 -11.130  0.00  0.00    +0.314 C 
BRANCH  24  25
ATOM     25  O   UNL     1      34.936 -25.079 -11.558  0.00  0.00    -0.480 OA
ATOM     26  H   UNL     1      34.743 -25.420 -12.409  0.00  0.00    +0.295 HD
ENDBRANCH  24  25
ENDBRANCH  22  24
ENDBRANCH  21  22
ENDBRANCH  16  21
ENDBRANCH  14  16
ENDBRANCH  11  14
ENDBRANCH   1  11
BRANCH   9  27
ATOM     27  O   UNL     1      33.853 -19.808 -21.579  0.00  0.00    -0.471 OA
BRANCH  27  28
ATOM     28  C   UNL     1      35.014 -19.334 -22.259  0.00  0.00    +0.232 C 
BRANCH  28  29
ATOM     29  C   UNL     1      34.640 -18.152 -23.103  0.00  0.00    +0.021 C 
ATOM     30  C   UNL     1      35.051 -16.872 -22.732  0.00  0.00    -0.000 C 
ATOM     31  C   UNL     1      33.879 -18.332 -24.259  0.00  0.00    -0.000 C 
ATOM     32  C   UNL     1      34.702 -15.773 -23.516  0.00  0.00    +0.010 C 
ATOM     33  C   UNL     1      33.531 -17.234 -25.043  0.00  0.00    +0.010 C 
ATOM     34  C   UNL     1      33.942 -15.953 -24.671  0.00  0.00    +0.068 C 
BRANCH  34  36
ATOM     35  N   UNL     1      33.296 -13.912 -26.129  0.00  0.00    -0.191 NA
ATOM     36  C   UNL     1      33.585 -14.827 -25.476  0.00  0.00    +0.100 C 
ENDBRANCH  34  36
ENDBRANCH  28  29
ENDBRANCH  27  28
ENDBRANCH   9  27
TORSDOF 13
ENDMDL
MODEL 2
REMARK VINA RESULT:     -11.8      1.684      2.953
REMARK  Name = 24755471
REMARK  13 active torsions:
REMARK  status: ('A' for Active; 'I' for Inactive)
REMARK    1  A    between atoms: C_1  and  S_11
REMARK    2  A    between atoms: C_9  and  O_27
REMARK    3  A    between atoms: S_11  and  N_14
REMARK    4  A    between atoms: N_14  and  C_16
REMARK    5  A    between atoms: C_16  and  C_18
REMARK    6  A    between atoms: C_16  and  C_21
REMARK    7  A    between atoms: C_18  and  O_19
REMARK    8  A    between atoms: C_21  and  C_22
REMARK    9  A    between atoms: C_22  and  C_24
REMARK   10  A    between atoms: C_24  and  O_25
REMARK   11  A    between atoms: O_27  and  C_28
REMARK   12  A    between atoms: C_28  and  C_29
REMARK   13  A    between atoms: C_34  and  C_36
REMARK                            x       y       z     vdW  Elec       q    Type
REMARK                         _______ _______ _______ _____ _____    ______ ____
ROOT
ATOM      1  C   UNL     1      34.358 -22.952 -16.453  0.00  0.00    +0.122 C 
ATOM      2  C   UNL     1      35.062 -21.700 -18.417  0.00  0.00    +0.002 C 
ATOM      3  C   UNL     1      35.367 -22.368 -17.220  0.00  0.00    +0.020 C 
ATOM      4  C   UNL     1      33.715 -21.623 -18.843  0.00  0.00    +0.003 C 
ATOM      5  C   UNL     1      33.033 -22.876 -16.872  0.00  0.00    +0.020 C 
ATOM      6  C   UNL     1      32.711 -22.217 -18.059  0.00  0.00    +0.001 C 
ATOM      7  C   UNL     1      33.410 -20.956 -20.040  0.00  0.00    +0.037 C 
ATOM      8  C   UNL     1      36.065 -21.106 -19.201  0.00  0.00    +0.003 C 
ATOM      9  C   UNL     1      34.419 -20.372 -20.806  0.00  0.00    +0.139 C 
ATOM     10  C   UNL     1      35.744 -20.447 -20.388  0.00  0.00    +0.037 C 
ENDROOT
BRANCH   1  11
ATOM     11  S   UNL     1      34.763 -23.788 -14.949  0.00  0.00    +0.061 S 
ATOM     12  O   UNL     1      35.204 -22.793 -13.991  0.00  0.00    -0.153 OA
ATOM     13  O   UNL     1      33.648 -24.660 -14.637  0.00  0.00    -0.153 OA
BRANCH  11  14
ATOM     14  N   UNL     1      36.089 -24.739 -15.425  0.00  0.00    -0.170 NA
ATOM     15  H   UNL     1      36.695 -24.140 -15.984  0.00  0.00    +0.149 HD
BRANCH  14  16
ATOM     16  C   UNL     1      36.945 -25.378 -14.401  0.00  0.00    +0.174 C 
BRANCH  16  18
ATOM     17  O   UNL     1      36.853 -27.447 -15.677  0.00  0.00    -0.249 OA
ATOM     18  C   UNL     1      36.867 -26.874 -14.594  0.00  0.00    +0.330 C 
BRANCH  18  19
ATOM     19  O   UNL     1      36.834 -27.541 -13.412  0.00  0.00    -0.479 OA
ATOM     20  H   UNL     1      36.075 -28.037 -13.175  0.00  0.00    +0.295 HD
ENDBRANCH  18  19
ENDBRANCH  16  18
BRANCH  16  21
ATOM     21  C   UNL     1      38.364 -24.801 -14.453  0.00  0.00    +0.040 C 
BRANCH  21  22
ATOM     22  C   UNL     1      39.389 -25.427 -13.504  0.00  0.00    +0.111 C 
BRANCH  22  24
ATOM     23  O   UNL     1      41.281 -26.925 -13.624  0.00  0.00    -0.250 OA
ATOM     24  C   UNL     1      40.463 -26.221 -14.203  0.00  0.00    +0.314 C 
BRANCH  24  25
ATOM     25  O   UNL     1      40.441 -26.062 -15.551  0.00  0.00    -0.480 OA
ATOM     26  H   UNL     1      41.211 -26.238 -16.055  0.00  0.00    +0.295 HD
ENDBRANCH  24  25
ENDBRANCH  22  24
ENDBRANCH  21  22
ENDBRANCH  16  21
ENDBRANCH  14  16
ENDBRANCH  11  14
ENDBRANCH   1  11
BRANCH   9  27
ATOM     27  O   UNL     1      34.107 -19.730 -21.965  0.00  0.00    -0.471 OA
BRANCH  27  28
ATOM     28  C   UNL     1      35.183 -19.133 -22.687  0.00  0.00    +0.232 C 
BRANCH  28  29
ATOM     29  C   UNL     1      34.893 -17.674 -22.882  0.00  0.00    +0.021 C 
ATOM     30  C   UNL     1      34.957 -16.799 -21.797  0.00  0.00    -0.000 C 
ATOM     31  C   UNL     1      34.559 -17.192 -24.148  0.00  0.00    -0.000 C 
ATOM     32  C   UNL     1      34.687 -15.444 -21.978  0.00  0.00    +0.010 C 
ATOM     33  C   UNL     1      34.289 -15.836 -24.329  0.00  0.00    +0.010 C 
ATOM     34  C   UNL     1      34.352 -14.962 -23.243  0.00  0.00    +0.068 C 
BRANCH  34  36
ATOM     35  N   UNL     1      33.851 -12.443 -23.579  0.00  0.00    -0.191 NA
ATOM     36  C   UNL     1      34.076 -13.571 -23.429  0.00  0.00    +0.100 C 
ENDBRANCH  34  36
ENDBRANCH  28  29
ENDBRANCH  27  28
ENDBRANCH   9  27
TORSDOF 13
ENDMDL
MODEL 3
REMARK VINA RESULT:     -11.8      1.078      2.918
REMARK  Name = 24755471
REMARK  13 active torsions:
REMARK  status: ('A' for Active; 'I' for Inactive)
REMARK    1  A    between atoms: C_1  and  S_11
REMARK    2  A    between atoms: C_9  and  O_27
REMARK    3  A    between atoms: S_11  and  N_14
REMARK    4  A    between atoms: N_14  and  C_16
REMARK    5  A    between atoms: C_16  and  C_18
REMARK    6  A    between atoms: C_16  and  C_21
REMARK    7  A    between atoms: C_18  and  O_19
REMARK    8  A    between atoms: C_21  and  C_22
REMARK    9  A    between atoms: C_22  and  C_24
REMARK   10  A    between atoms: C_24  and  O_25
REMARK   11  A    between atoms: O_27  and  C_28
REMARK   12  A    between atoms: C_28  and  C_29
REMARK   13  A    between atoms: C_34  and  C_36
REMARK                            x       y       z     vdW  Elec       q    Type
REMARK                         _______ _______ _______ _____ _____    ______ ____
ROOT
ATOM      1  C   UNL     1      35.639 -23.261 -15.351  0.00  0.00    +0.122 C 
ATOM      2  C   UNL     1      34.552 -22.444 -17.369  0.00  0.00    +0.002 C 
ATOM      3  C   UNL     1      34.496 -23.117 -16.138  0.00  0.00    +0.020 C 
ATOM      4  C   UNL     1      35.786 -21.907 -17.808  0.00  0.00    +0.003 C 
ATOM      5  C   UNL     1      36.852 -22.734 -15.784  0.00  0.00    +0.020 C 
ATOM      6  C   UNL     1      36.927 -22.062 -17.004  0.00  0.00    +0.001 C 
ATOM      7  C   UNL     1      35.843 -21.234 -19.039  0.00  0.00    +0.037 C 
ATOM      8  C   UNL     1      33.411 -22.291 -18.174  0.00  0.00    +0.003 C 
ATOM      9  C   UNL     1      34.700 -21.091 -19.826  0.00  0.00    +0.139 C 
ATOM     10  C   UNL     1      33.486 -21.618 -19.394  0.00  0.00    +0.037 C 
ENDROOT
BRANCH   1  11
ATOM     11  S   UNL     1      35.546 -24.113 -13.805  0.00  0.00    +0.061 S 
ATOM     12  O   UNL     1      34.324 -23.701 -13.142  0.00  0.00    -0.153 OA
ATOM     13  O   UNL     1      35.790 -25.515 -14.080  0.00  0.00    -0.153 OA
BRANCH  11  14
ATOM     14  N   UNL     1      36.883 -23.473 -12.973  0.00  0.00    -0.170 NA
ATOM     15  H   UNL     1      36.536 -22.697 -12.410  0.00  0.00    +0.149 HD
BRANCH  14  16
ATOM     16  C   UNL     1      37.672 -24.339 -12.068  0.00  0.00    +0.174 C 
BRANCH  16  18
ATOM     17  O   UNL     1      36.406 -24.126 -10.002  0.00  0.00    -0.249 OA
ATOM     18  C   UNL     1      36.762 -24.806 -10.957  0.00  0.00    +0.330 C 
BRANCH  18  19
ATOM     19  O   UNL     1      36.350 -26.087 -11.137  0.00  0.00    -0.479 OA
ATOM     20  H   UNL     1      35.707 -26.457 -10.566  0.00  0.00    +0.295 HD
ENDBRANCH  18  19
ENDBRANCH  16  18
BRANCH  16  21
ATOM     21  C   UNL     1      38.345 -25.467 -12.859  0.00  0.00    +0.040 C 
BRANCH  21  22
ATOM     22  C   UNL     1      39.207 -25.042 -14.051  0.00  0.00    +0.111 C 
BRANCH  22  24
ATOM     23  O   UNL     1      40.942 -26.647 -13.552  0.00  0.00    -0.250 OA
ATOM     24  C   UNL     1      40.306 -26.019 -14.388  0.00  0.00    +0.314 C 
BRANCH  24  25
ATOM     25  O   UNL     1      40.529 -26.118 -15.723  0.00  0.00    -0.480 OA
ATOM     26  H   UNL     1      40.113 -26.796 -16.218  0.00  0.00    +0.295 HD
ENDBRANCH  24  25
ENDBRANCH  22  24
ENDBRANCH  21  22
ENDBRANCH  16  21
ENDBRANCH  14  16
ENDBRANCH  11  14
ENDBRANCH   1  11
BRANCH   9  27
ATOM     27  O   UNL     1      34.771 -20.434 -21.015  0.00  0.00    -0.471 OA
BRANCH  27  28
ATOM     28  C   UNL     1      35.620 -19.289 -21.075  0.00  0.00    +0.232 C 
BRANCH  28  29
ATOM     29  C   UNL     1      35.163 -18.397 -22.192  0.00  0.00    +0.021 C 
ATOM     30  C   UNL     1      34.477 -18.938 -23.279  0.00  0.00    -0.000 C 
ATOM     31  C   UNL     1      35.427 -17.028 -22.145  0.00  0.00    -0.000 C 
ATOM     32  C   UNL     1      34.053 -18.110 -24.318  0.00  0.00    +0.010 C 
ATOM     33  C   UNL     1      35.003 -16.200 -23.183  0.00  0.00    +0.010 C 
ATOM     34  C   UNL     1      34.316 -16.741 -24.270  0.00  0.00    +0.068 C 
BRANCH  34  36
ATOM     35  N   UNL     1      33.527 -15.203 -26.199  0.00  0.00    -0.191 NA
ATOM     36  C   UNL     1      33.881 -15.892 -25.335  0.00  0.00    +0.100 C 
ENDBRANCH  34  36
ENDBRANCH  28  29
ENDBRANCH  27  28
ENDBRANCH   9  27
TORSDOF 13
ENDMDL
MODEL 4
REMARK VINA RESULT:     -11.7      1.799      3.566
REMARK  Name = 24755471
REMARK  13 active torsions:
REMARK  status: ('A' for Active; 'I' for Inactive)
REMARK    1  A    between atoms: C_1  and  S_11
REMARK    2  A    between atoms: C_9  and  O_27
REMARK    3  A    between atoms: S_11  and  N_14
REMARK    4  A    between atoms: N_14  and  C_16
REMARK    5  A    between atoms: C_16  and  C_18
REMARK    6  A    between atoms: C_16  and  C_21
REMARK    7  A    between atoms: C_18  and  O_19
REMARK    8  A    between atoms: C_21  and  C_22
REMARK    9  A    between atoms: C_22  and  C_24
REMARK   10  A    between atoms: C_24  and  O_25
REMARK   11  A    between atoms: O_27  and  C_28
REMARK   12  A    between atoms: C_28  and  C_29
REMARK   13  A    between atoms: C_34  and  C_36
REMARK                            x       y       z     vdW  Elec       q    Type
REMARK                         _______ _______ _______ _____ _____    ______ ____
ROOT
ATOM      1  C   UNL     1      33.387 -23.678 -14.913  0.00  0.00    +0.122 C 
ATOM      2  C   UNL     1      34.828 -22.675 -16.597  0.00  0.00    +0.002 C 
ATOM      3  C   UNL     1      34.647 -23.244 -15.326  0.00  0.00    +0.020 C 
ATOM      4  C   UNL     1      33.716 -22.546 -17.463  0.00  0.00    +0.003 C 
ATOM      5  C   UNL     1      32.293 -23.551 -15.764  0.00  0.00    +0.020 C 
ATOM      6  C   UNL     1      32.455 -22.989 -17.031  0.00  0.00    +0.001 C 
ATOM      7  C   UNL     1      33.897 -21.978 -18.734  0.00  0.00    +0.037 C 
ATOM      8  C   UNL     1      36.090 -22.232 -17.029  0.00  0.00    +0.003 C 
ATOM      9  C   UNL     1      35.157 -21.543 -19.146  0.00  0.00    +0.139 C 
ATOM     10  C   UNL     1      36.251 -21.669 -18.295  0.00  0.00    +0.037 C 
ENDROOT
BRANCH   1  11
ATOM     11  S   UNL     1      33.180 -24.391 -13.309  0.00  0.00    +0.061 S 
ATOM     12  O   UNL     1      32.828 -23.327 -12.390  0.00  0.00    -0.153 OA
ATOM     13  O   UNL     1      32.308 -25.539 -13.466  0.00  0.00    -0.153 OA
BRANCH  11  14
ATOM     14  N   UNL     1      34.753 -24.937 -12.964  0.00  0.00    -0.170 NA
ATOM     15  H   UNL     1      35.183 -25.176 -13.857  0.00  0.00    +0.149 HD
BRANCH  14  16
ATOM     16  C   UNL     1      35.702 -24.052 -12.254  0.00  0.00    +0.174 C 
BRANCH  16  18
ATOM     17  O   UNL     1      35.058 -25.360 -10.307  0.00  0.00    -0.249 OA
ATOM     18  C   UNL     1      35.761 -24.493 -10.810  0.00  0.00    +0.330 C 
BRANCH  18  19
ATOM     19  O   UNL     1      36.714 -23.825 -10.110  0.00  0.00    -0.479 OA
ATOM     20  H   UNL     1      36.568 -22.937  -9.849  0.00  0.00    +0.295 HD
ENDBRANCH  18  19
ENDBRANCH  16  18
BRANCH  16  21
ATOM     21  C   UNL     1      37.057 -24.035 -12.972  0.00  0.00    +0.040 C 
BRANCH  21  22
ATOM     22  C   UNL     1      37.868 -25.333 -12.928  0.00  0.00    +0.111 C 
BRANCH  22  24
ATOM     23  O   UNL     1      38.222 -27.293 -14.294  0.00  0.00    -0.250 OA
ATOM     24  C   UNL     1      37.740 -26.174 -14.173  0.00  0.00    +0.314 C 
BRANCH  24  25
ATOM     25  O   UNL     1      37.046 -25.552 -15.159  0.00  0.00    -0.480 OA
ATOM     26  H   UNL     1      36.261 -25.084 -14.954  0.00  0.00    +0.295 HD
ENDBRANCH  24  25
ENDBRANCH  22  24
ENDBRANCH  21  22
ENDBRANCH  16  21
ENDBRANCH  14  16
ENDBRANCH  11  14
ENDBRANCH   1  11
BRANCH   9  27
ATOM     27  O   UNL     1      35.317 -20.996 -20.382  0.00  0.00    -0.471 OA
BRANCH  27  28
ATOM     28  C   UNL     1      36.007 -19.749 -20.457  0.00  0.00    +0.232 C 
BRANCH  28  29
ATOM     29  C   UNL     1      35.476 -18.963 -21.619  0.00  0.00    +0.021 C 
ATOM     30  C   UNL     1      34.778 -19.612 -22.638  0.00  0.00    -0.000 C 
ATOM     31  C   UNL     1      35.680 -17.585 -21.681  0.00  0.00    -0.000 C 
ATOM     32  C   UNL     1      34.285 -18.882 -23.719  0.00  0.00    +0.010 C 
ATOM     33  C   UNL     1      35.187 -16.855 -22.762  0.00  0.00    +0.010 C 
ATOM     34  C   UNL     1      34.490 -17.504 -23.781  0.00  0.00    +0.068 C 
BRANCH  34  36
ATOM     35  N   UNL     1      33.572 -16.148 -25.788  0.00  0.00    -0.191 NA
ATOM     36  C   UNL     1      33.983 -16.755 -24.889  0.00  0.00    +0.100 C 
ENDBRANCH  34  36
ENDBRANCH  28  29
ENDBRANCH  27  28
ENDBRANCH   9  27
TORSDOF 13
ENDMDL
MODEL 5
REMARK VINA RESULT:     -11.2      2.977      4.842
REMARK  Name = 24755471
REMARK  13 active torsions:
REMARK  status: ('A' for Active; 'I' for Inactive)
REMARK    1  A    between atoms: C_1  and  S_11
REMARK    2  A    between atoms: C_9  and  O_27
REMARK    3  A    between atoms: S_11  and  N_14
REMARK    4  A    between atoms: N_14  and  C_16
REMARK    5  A    between atoms: C_16  and  C_18
REMARK    6  A    between atoms: C_16  and  C_21
REMARK    7  A    between atoms: C_18  and  O_19
REMARK    8  A    between atoms: C_21  and  C_22
REMARK    9  A    between atoms: C_22  and  C_24
REMARK   10  A    between atoms: C_24  and  O_25
REMARK   11  A    between atoms: O_27  and  C_28
REMARK   12  A    between atoms: C_28  and  C_29
REMARK   13  A    between atoms: C_34  and  C_36
REMARK                            x       y       z     vdW  Elec       q    Type
REMARK                         _______ _______ _______ _____ _____    ______ ____
ROOT
ATOM      1  C   UNL     1      35.066 -22.726 -16.680  0.00  0.00    +0.122 C 
ATOM      2  C   UNL     1      34.136 -21.625 -18.641  0.00  0.00    +0.002 C 
ATOM      3  C   UNL     1      33.966 -22.367 -17.462  0.00  0.00    +0.020 C 
ATOM      4  C   UNL     1      35.440 -21.239 -19.034  0.00  0.00    +0.003 C 
ATOM      5  C   UNL     1      36.347 -22.347 -17.067  0.00  0.00    +0.020 C 
ATOM      6  C   UNL     1      36.535 -21.609 -18.236  0.00  0.00    +0.001 C 
ATOM      7  C   UNL     1      35.610 -20.497 -20.214  0.00  0.00    +0.037 C 
ATOM      8  C   UNL     1      33.041 -21.256 -19.440  0.00  0.00    +0.003 C 
ATOM      9  C   UNL     1      34.511 -20.139 -20.994  0.00  0.00    +0.139 C 
ATOM     10  C   UNL     1      33.229 -20.518 -20.608  0.00  0.00    +0.037 C 
ENDROOT
BRANCH   1  11
ATOM     11  S   UNL     1      34.829 -23.661 -15.199  0.00  0.00    +0.061 S 
ATOM     12  O   UNL     1      34.623 -25.046 -15.574  0.00  0.00    -0.153 OA
ATOM     13  O   UNL     1      35.905 -23.301 -14.296  0.00  0.00    -0.153 OA
BRANCH  11  14
ATOM     14  N   UNL     1      33.373 -23.014 -14.606  0.00  0.00    -0.170 NA
ATOM     15  H   UNL     1      33.157 -22.201 -15.182  0.00  0.00    +0.149 HD
BRANCH  14  16
ATOM     16  C   UNL     1      32.154 -23.851 -14.571  0.00  0.00    +0.174 C 
BRANCH  16  18
ATOM     17  O   UNL     1      31.487 -25.212 -12.669  0.00  0.00    -0.249 OA
ATOM     18  C   UNL     1      31.816 -24.124 -13.124  0.00  0.00    +0.330 C 
BRANCH  18  19
ATOM     19  O   UNL     1      31.935 -23.013 -12.352  0.00  0.00    -0.479 OA
ATOM     20  H   UNL     1      32.327 -23.072 -11.504  0.00  0.00    +0.295 HD
ENDBRANCH  18  19
ENDBRANCH  16  18
BRANCH  16  21
ATOM     21  C   UNL     1      31.028 -23.190 -15.376  0.00  0.00    +0.040 C 
BRANCH  21  22
ATOM     22  C   UNL     1      29.729 -23.989 -15.511  0.00  0.00    +0.111 C 
BRANCH  22  24
ATOM     23  O   UNL     1      28.631 -22.113 -16.564  0.00  0.00    -0.250 OA
ATOM     24  C   UNL     1      28.688 -23.321 -16.374  0.00  0.00    +0.314 C 
BRANCH  24  25
ATOM     25  O   UNL     1      27.805 -24.201 -16.909  0.00  0.00    -0.480 OA
ATOM     26  H   UNL     1      27.727 -25.062 -16.548  0.00  0.00    +0.295 HD
ENDBRANCH  24  25
ENDBRANCH  22  24
ENDBRANCH  21  22
ENDBRANCH  16  21
ENDBRANCH  14  16
ENDBRANCH  11  14
ENDBRANCH   1  11
BRANCH   9  27
ATOM     27  O   UNL     1      34.692 -19.417 -22.134  0.00  0.00    -0.471 OA
BRANCH  27  28
ATOM     28  C   UNL     1      35.465 -18.222 -22.030  0.00  0.00    +0.232 C 
BRANCH  28  29
ATOM     29  C   UNL     1      34.885 -17.183 -22.944  0.00  0.00    +0.021 C 
ATOM     30  C   UNL     1      34.352 -17.558 -24.177  0.00  0.00    -0.000 C 
ATOM     31  C   UNL     1      34.881 -15.841 -22.562  0.00  0.00    -0.000 C 
ATOM     32  C   UNL     1      33.814 -16.592 -25.027  0.00  0.00    +0.010 C 
ATOM     33  C   UNL     1      34.344 -14.876 -23.411  0.00  0.00    +0.010 C 
ATOM     34  C   UNL     1      33.811 -15.251 -24.644  0.00  0.00    +0.068 C 
BRANCH  34  36
ATOM     35  N   UNL     1      32.809 -13.458 -26.223  0.00  0.00    -0.191 NA
ATOM     36  C   UNL     1      33.258 -14.261 -25.516  0.00  0.00    +0.100 C 
ENDBRANCH  34  36
ENDBRANCH  28  29
ENDBRANCH  27  28
ENDBRANCH   9  27
TORSDOF 13
ENDMDL
MODEL 6
REMARK VINA RESULT:     -11.1      2.124      3.525
REMARK  Name = 24755471
REMARK  13 active torsions:
REMARK  status: ('A' for Active; 'I' for Inactive)
REMARK    1  A    between atoms: C_1  and  S_11
REMARK    2  A    between atoms: C_9  and  O_27
REMARK    3  A    between atoms: S_11  and  N_14
REMARK    4  A    between atoms: N_14  and  C_16
REMARK    5  A    between atoms: C_16  and  C_18
REMARK    6  A    between atoms: C_16  and  C_21
REMARK    7  A    between atoms: C_18  and  O_19
REMARK    8  A    between atoms: C_21  and  C_22
REMARK    9  A    between atoms: C_22  and  C_24
REMARK   10  A    between atoms: C_24  and  O_25
REMARK   11  A    between atoms: O_27  and  C_28
REMARK   12  A    between atoms: C_28  and  C_29
REMARK   13  A    between atoms: C_34  and  C_36
REMARK                            x       y       z     vdW  Elec       q    Type
REMARK                         _______ _______ _______ _____ _____    ______ ____
ROOT
ATOM      1  C   UNL     1      35.560 -22.837 -16.423  0.00  0.00    +0.122 C 
ATOM      2  C   UNL     1      35.777 -21.488 -18.437  0.00  0.00    +0.002 C 
ATOM      3  C   UNL     1      36.341 -22.071 -17.290  0.00  0.00    +0.020 C 
ATOM      4  C   UNL     1      34.402 -21.684 -18.708  0.00  0.00    +0.003 C 
ATOM      5  C   UNL     1      34.208 -23.029 -16.690  0.00  0.00    +0.020 C 
ATOM      6  C   UNL     1      33.631 -22.457 -17.824  0.00  0.00    +0.001 C 
ATOM      7  C   UNL     1      33.838 -21.100 -19.854  0.00  0.00    +0.037 C 
ATOM      8  C   UNL     1      36.548 -20.714 -19.320  0.00  0.00    +0.003 C 
ATOM      9  C   UNL     1      34.619 -20.335 -20.721  0.00  0.00    +0.139 C 
ATOM     10  C   UNL     1      35.971 -20.142 -20.454  0.00  0.00    +0.037 C 
ENDROOT
BRANCH   1  11
ATOM     11  S   UNL     1      36.290 -23.563 -14.986  0.00  0.00    +0.061 S 
ATOM     12  O   UNL     1      36.349 -24.997 -15.191  0.00  0.00    -0.153 OA
ATOM     13  O   UNL     1      37.499 -22.814 -14.703  0.00  0.00    -0.153 OA
BRANCH  11  14
ATOM     14  N   UNL     1      35.132 -23.211 -13.791  0.00  0.00    -0.170 NA
ATOM     15  H   UNL     1      34.336 -22.788 -14.268  0.00  0.00    +0.149 HD
BRANCH  14  16
ATOM     16  C   UNL     1      34.596 -24.296 -12.941  0.00  0.00    +0.174 C 
BRANCH  16  18
ATOM     17  O   UNL     1      35.136 -25.028 -10.685  0.00  0.00    -0.249 OA
ATOM     18  C   UNL     1      35.302 -24.238 -11.608  0.00  0.00    +0.330 C 
BRANCH  18  19
ATOM     19  O   UNL     1      36.180 -23.205 -11.538  0.00  0.00    -0.479 OA
ATOM     20  H   UNL     1      36.079 -22.465 -12.103  0.00  0.00    +0.295 HD
ENDBRANCH  18  19
ENDBRANCH  16  18
BRANCH  16  21
ATOM     21  C   UNL     1      33.067 -24.205 -12.859  0.00  0.00    +0.040 C 
BRANCH  21  22
ATOM     22  C   UNL     1      32.285 -24.808 -14.029  0.00  0.00    +0.111 C 
BRANCH  22  24
ATOM     23  O   UNL     1      30.128 -25.814 -14.445  0.00  0.00    -0.250 OA
ATOM     24  C   UNL     1      30.907 -25.295 -13.656  0.00  0.00    +0.314 C 
BRANCH  24  25
ATOM     25  O   UNL     1      30.612 -25.083 -12.348  0.00  0.00    -0.480 OA
ATOM     26  H   UNL     1      31.265 -24.742 -11.770  0.00  0.00    +0.295 HD
ENDBRANCH  24  25
ENDBRANCH  22  24
ENDBRANCH  21  22
ENDBRANCH  16  21
ENDBRANCH  14  16
ENDBRANCH  11  14
ENDBRANCH   1  11
BRANCH   9  27
ATOM     27  O   UNL     1      34.058 -19.777 -21.828  0.00  0.00    -0.471 OA
BRANCH  27  28
ATOM     28  C   UNL     1      34.933 -19.459 -22.909  0.00  0.00    +0.232 C 
BRANCH  28  29
ATOM     29  C   UNL     1      34.566 -18.111 -23.457  0.00  0.00    +0.021 C 
ATOM     30  C   UNL     1      33.785 -18.016 -24.609  0.00  0.00    -0.000 C 
ATOM     31  C   UNL     1      35.005 -16.953 -22.815  0.00  0.00    -0.000 C 
ATOM     32  C   UNL     1      33.444 -16.764 -25.118  0.00  0.00    +0.010 C 
ATOM     33  C   UNL     1      34.664 -15.701 -23.324  0.00  0.00    +0.010 C 
ATOM     34  C   UNL     1      33.884 -15.606 -24.476  0.00  0.00    +0.068 C 
BRANCH  34  36
ATOM     35  N   UNL     1      33.249 -13.280 -25.422  0.00  0.00    -0.191 NA
ATOM     36  C   UNL     1      33.533 -14.322 -24.998  0.00  0.00    +0.100 C 
ENDBRANCH  34  36
ENDBRANCH  28  29
ENDBRANCH  27  28
ENDBRANCH   9  27
TORSDOF 13
ENDMDL
MODEL 7
REMARK VINA RESULT:     -10.8      1.923      3.400
REMARK  Name = 24755471
REMARK  13 active torsions:
REMARK  status: ('A' for Active; 'I' for Inactive)
REMARK    1  A    between atoms: C_1  and  S_11
REMARK    2  A    between atoms: C_9  and  O_27
REMARK    3  A    between atoms: S_11  and  N_14
REMARK    4  A    between atoms: N_14  and  C_16
REMARK    5  A    between atoms: C_16  and  C_18
REMARK    6  A    between atoms: C_16  and  C_21
REMARK    7  A    between atoms: C_18  and  O_19
REMARK    8  A    between atoms: C_21  and  C_22
REMARK    9  A    between atoms: C_22  and  C_24
REMARK   10  A    between atoms: C_24  and  O_25
REMARK   11  A    between atoms: O_27  and  C_28
REMARK   12  A    between atoms: C_28  and  C_29
REMARK   13  A    between atoms: C_34  and  C_36
REMARK                            x       y       z     vdW  Elec       q    Type
REMARK                         _______ _______ _______ _____ _____    ______ ____
ROOT
ATOM      1  C   UNL     1      35.032 -22.828 -16.804  0.00  0.00    +0.122 C 
ATOM      2  C   UNL     1      35.427 -21.434 -18.758  0.00  0.00    +0.002 C 
ATOM      3  C   UNL     1      35.903 -22.108 -17.622  0.00  0.00    +0.020 C 
ATOM      4  C   UNL     1      34.048 -21.490 -19.069  0.00  0.00    +0.003 C 
ATOM      5  C   UNL     1      33.675 -22.883 -17.110  0.00  0.00    +0.020 C 
ATOM      6  C   UNL     1      33.185 -22.219 -18.234  0.00  0.00    +0.001 C 
ATOM      7  C   UNL     1      33.572 -20.816 -20.205  0.00  0.00    +0.037 C 
ATOM      8  C   UNL     1      36.291 -20.704 -19.593  0.00  0.00    +0.003 C 
ATOM      9  C   UNL     1      34.444 -20.096 -21.023  0.00  0.00    +0.139 C 
ATOM     10  C   UNL     1      35.800 -20.040 -20.718  0.00  0.00    +0.037 C 
ENDROOT
BRANCH   1  11
ATOM     11  S   UNL     1      35.652 -23.670 -15.378  0.00  0.00    +0.061 S 
ATOM     12  O   UNL     1      35.126 -25.021 -15.394  0.00  0.00    -0.153 OA
ATOM     13  O   UNL     1      37.084 -23.444 -15.344  0.00  0.00    -0.153 OA
BRANCH  11  14
ATOM     14  N   UNL     1      34.926 -22.796 -14.113  0.00  0.00    -0.170 NA
ATOM     15  H   UNL     1      34.212 -22.204 -14.537  0.00  0.00    +0.149 HD
BRANCH  14  16
ATOM     16  C   UNL     1      34.277 -23.517 -12.996  0.00  0.00    +0.174 C 
BRANCH  16  18
ATOM     17  O   UNL     1      32.048 -23.357 -13.956  0.00  0.00    -0.249 OA
ATOM     18  C   UNL     1      32.949 -24.042 -13.487  0.00  0.00    +0.330 C 
BRANCH  18  19
ATOM     19  O   UNL     1      32.858 -25.392 -13.371  0.00  0.00    -0.479 OA
ATOM     20  H   UNL     1      33.220 -25.823 -12.623  0.00  0.00    +0.295 HD
ENDBRANCH  18  19
ENDBRANCH  16  18
BRANCH  16  21
ATOM     21  C   UNL     1      35.218 -24.588 -12.432  0.00  0.00    +0.040 C 
BRANCH  21  22
ATOM     22  C   UNL     1      36.041 -24.193 -11.202  0.00  0.00    +0.111 C 
BRANCH  22  24
ATOM     23  O   UNL     1      38.196 -23.880 -12.248  0.00  0.00    -0.250 OA
ATOM     24  C   UNL     1      37.306 -23.441 -11.531  0.00  0.00    +0.314 C 
BRANCH  24  25
ATOM     25  O   UNL     1      37.365 -22.225 -10.931  0.00  0.00    -0.480 OA
ATOM     26  H   UNL     1      37.398 -21.447 -11.452  0.00  0.00    +0.295 HD
ENDBRANCH  24  25
ENDBRANCH  22  24
ENDBRANCH  21  22
ENDBRANCH  16  21
ENDBRANCH  14  16
ENDBRANCH  11  14
ENDBRANCH   1  11
BRANCH   9  27
ATOM     27  O   UNL     1      33.967 -19.449 -22.122  0.00  0.00    -0.471 OA
BRANCH  27  28
ATOM     28  C   UNL     1      34.929 -18.913 -23.029  0.00  0.00    +0.232 C 
BRANCH  28  29
ATOM     29  C   UNL     1      34.678 -17.444 -23.198  0.00  0.00    +0.021 C 
ATOM     30  C   UNL     1      34.234 -16.950 -24.425  0.00  0.00    -0.000 C 
ATOM     31  C   UNL     1      34.889 -16.572 -22.130  0.00  0.00    -0.000 C 
ATOM     32  C   UNL     1      34.001 -15.585 -24.583  0.00  0.00    +0.010 C 
ATOM     33  C   UNL     1      34.656 -15.207 -22.289  0.00  0.00    +0.010 C 
ATOM     34  C   UNL     1      34.212 -14.713 -23.515  0.00  0.00    +0.068 C 
BRANCH  34  36
ATOM     35  N   UNL     1      33.778 -12.176 -23.809  0.00  0.00    -0.191 NA
ATOM     36  C   UNL     1      33.973 -13.313 -23.678  0.00  0.00    +0.100 C 
ENDBRANCH  34  36
ENDBRANCH  28  29
ENDBRANCH  27  28
ENDBRANCH   9  27
TORSDOF 13
ENDMDL
MODEL 8
REMARK VINA RESULT:     -10.6      3.258     11.647
REMARK  Name = 24755471
REMARK  13 active torsions:
REMARK  status: ('A' for Active; 'I' for Inactive)
REMARK    1  A    between atoms: C_1  and  S_11
REMARK    2  A    between atoms: C_9  and  O_27
REMARK    3  A    between atoms: S_11  and  N_14
REMARK    4  A    between atoms: N_14  and  C_16
REMARK    5  A    between atoms: C_16  and  C_18
REMARK    6  A    between atoms: C_16  and  C_21
REMARK    7  A    between atoms: C_18  and  O_19
REMARK    8  A    between atoms: C_21  and  C_22
REMARK    9  A    between atoms: C_22  and  C_24
REMARK   10  A    between atoms: C_24  and  O_25
REMARK   11  A    between atoms: O_27  and  C_28
REMARK   12  A    between atoms: C_28  and  C_29
REMARK   13  A    between atoms: C_34  and  C_36
REMARK                            x       y       z     vdW  Elec       q    Type
REMARK                         _______ _______ _______ _____ _____    ______ ____
ROOT
ATOM      1  C   UNL     1      35.192 -19.797 -21.062  0.00  0.00    +0.122 C 
ATOM      2  C   UNL     1      34.074 -21.198 -19.416  0.00  0.00    +0.002 C 
ATOM      3  C   UNL     1      34.024 -20.347 -20.532  0.00  0.00    +0.020 C 
ATOM      4  C   UNL     1      35.327 -21.496 -18.829  0.00  0.00    +0.003 C 
ATOM      5  C   UNL     1      36.423 -20.090 -20.484  0.00  0.00    +0.020 C 
ATOM      6  C   UNL     1      36.493 -20.933 -19.375  0.00  0.00    +0.001 C 
ATOM      7  C   UNL     1      35.378 -22.347 -17.713  0.00  0.00    +0.037 C 
ATOM      8  C   UNL     1      32.908 -21.760 -18.869  0.00  0.00    +0.003 C 
ATOM      9  C   UNL     1      34.210 -22.897 -17.183  0.00  0.00    +0.139 C 
ATOM     10  C   UNL     1      32.978 -22.604 -17.760  0.00  0.00    +0.037 C 
ENDROOT
BRANCH   1  11
ATOM     11  S   UNL     1      35.105 -18.728 -22.467  0.00  0.00    +0.061 S 
ATOM     12  O   UNL     1      36.356 -18.843 -23.192  0.00  0.00    -0.153 OA
ATOM     13  O   UNL     1      33.847 -19.006 -23.132  0.00  0.00    -0.153 OA
BRANCH  11  14
ATOM     14  N   UNL     1      35.015 -17.196 -21.736  0.00  0.00    -0.170 NA
ATOM     15  H   UNL     1      35.972 -16.913 -21.528  0.00  0.00    +0.149 HD
BRANCH  14  16
ATOM     16  C   UNL     1      34.382 -16.070 -22.457  0.00  0.00    +0.174 C 
BRANCH  16  18
ATOM     17  O   UNL     1      34.329 -14.838 -20.361  0.00  0.00    -0.249 OA
ATOM     18  C   UNL     1      34.467 -14.845 -21.578  0.00  0.00    +0.330 C 
BRANCH  18  19
ATOM     19  O   UNL     1      34.738 -13.722 -22.291  0.00  0.00    -0.479 OA
ATOM     20  H   UNL     1      34.543 -12.880 -21.930  0.00  0.00    +0.295 HD
ENDBRANCH  18  19
ENDBRANCH  16  18
BRANCH  16  21
ATOM     21  C   UNL     1      35.010 -15.904 -23.846  0.00  0.00    +0.040 C 
BRANCH  21  22
ATOM     22  C   UNL     1      34.073 -16.086 -25.043  0.00  0.00    +0.111 C 
BRANCH  22  24
ATOM     23  O   UNL     1      33.784 -14.351 -26.699  0.00  0.00    -0.250 OA
ATOM     24  C   UNL     1      33.521 -14.793 -25.588  0.00  0.00    +0.314 C 
BRANCH  24  25
ATOM     25  O   UNL     1      32.709 -14.156 -24.707  0.00  0.00    -0.480 OA
ATOM     26  H   UNL     1      31.797 -14.055 -24.900  0.00  0.00    +0.295 HD
ENDBRANCH  24  25
ENDBRANCH  22  24
ENDBRANCH  21  22
ENDBRANCH  16  21
ENDBRANCH  14  16
ENDBRANCH  11  14
ENDBRANCH   1  11
BRANCH   9  27
ATOM     27  O   UNL     1      34.276 -23.721 -16.102  0.00  0.00    -0.471 OA
BRANCH  27  28
ATOM     28  C   UNL     1      34.906 -23.206 -14.930  0.00  0.00    +0.232 C 
BRANCH  28  29
ATOM     29  C   UNL     1      36.208 -23.920 -14.719  0.00  0.00    +0.021 C 
ATOM     30  C   UNL     1      37.403 -23.324 -15.121  0.00  0.00    -0.000 C 
ATOM     31  C   UNL     1      36.224 -25.182 -14.124  0.00  0.00    -0.000 C 
ATOM     32  C   UNL     1      38.614 -23.988 -14.925  0.00  0.00    +0.010 C 
ATOM     33  C   UNL     1      37.434 -25.846 -13.928  0.00  0.00    +0.010 C 
ATOM     34  C   UNL     1      38.629 -25.249 -14.330  0.00  0.00    +0.068 C 
BRANCH  34  36
ATOM     35  N   UNL     1      40.878 -26.481 -13.965  0.00  0.00    -0.191 NA
ATOM     36  C   UNL     1      39.870 -25.929 -14.129  0.00  0.00    +0.100 C 
ENDBRANCH  34  36
ENDBRANCH  28  29
ENDBRANCH  27  28
ENDBRANCH   9  27
TORSDOF 13
ENDMDL
MODEL 9
REMARK VINA RESULT:     -10.4      3.417     11.793
REMARK  Name = 24755471
REMARK  13 active torsions:
REMARK  status: ('A' for Active; 'I' for Inactive)
REMARK    1  A    between atoms: C_1  and  S_11
REMARK    2  A    between atoms: C_9  and  O_27
REMARK    3  A    between atoms: S_11  and  N_14
REMARK    4  A    between atoms: N_14  and  C_16
REMARK    5  A    between atoms: C_16  and  C_18
REMARK    6  A    between atoms: C_16  and  C_21
REMARK    7  A    between atoms: C_18  and  O_19
REMARK    8  A    between atoms: C_21  and  C_22
REMARK    9  A    between atoms: C_22  and  C_24
REMARK   10  A    between atoms: C_24  and  O_25
REMARK   11  A    between atoms: O_27  and  C_28
REMARK   12  A    between atoms: C_28  and  C_29
REMARK   13  A    between atoms: C_34  and  C_36
REMARK                            x       y       z     vdW  Elec       q    Type
REMARK                         _______ _______ _______ _____ _____    ______ ____
ROOT
ATOM      1  C   UNL     1      34.834 -19.817 -21.260  0.00  0.00    +0.122 C 
ATOM      2  C   UNL     1      35.083 -21.235 -19.298  0.00  0.00    +0.002 C 
ATOM      3  C   UNL     1      35.647 -20.464 -20.327  0.00  0.00    +0.020 C 
ATOM      4  C   UNL     1      33.675 -21.352 -19.213  0.00  0.00    +0.003 C 
ATOM      5  C   UNL     1      33.450 -19.933 -21.176  0.00  0.00    +0.020 C 
ATOM      6  C   UNL     1      32.872 -20.695 -20.160  0.00  0.00    +0.001 C 
ATOM      7  C   UNL     1      33.111 -22.123 -18.184  0.00  0.00    +0.037 C 
ATOM      8  C   UNL     1      35.885 -21.893 -18.351  0.00  0.00    +0.003 C 
ATOM      9  C   UNL     1      33.923 -22.769 -17.252  0.00  0.00    +0.139 C 
ATOM     10  C   UNL     1      35.307 -22.655 -17.335  0.00  0.00    +0.037 C 
ENDROOT
BRANCH   1  11
ATOM     11  S   UNL     1      35.565 -18.852 -22.548  0.00  0.00    +0.061 S 
ATOM     12  O   UNL     1      36.919 -18.523 -22.146  0.00  0.00    -0.153 OA
ATOM     13  O   UNL     1      35.323 -19.556 -23.792  0.00  0.00    -0.153 OA
BRANCH  11  14
ATOM     14  N   UNL     1      34.609 -17.446 -22.516  0.00  0.00    -0.170 NA
ATOM     15  H   UNL     1      34.659 -17.079 -21.566  0.00  0.00    +0.149 HD
BRANCH  14  16
ATOM     16  C   UNL     1      34.919 -16.322 -23.426  0.00  0.00    +0.174 C 
BRANCH  16  18
ATOM     17  O   UNL     1      34.405 -15.976 -25.779  0.00  0.00    -0.249 OA
ATOM     18  C   UNL     1      34.177 -16.552 -24.722  0.00  0.00    +0.330 C 
BRANCH  18  19
ATOM     19  O   UNL     1      33.218 -17.505 -24.600  0.00  0.00    -0.479 OA
ATOM     20  H   UNL     1      32.331 -17.258 -24.427  0.00  0.00    +0.295 HD
ENDBRANCH  18  19
ENDBRANCH  16  18
BRANCH  16  21
ATOM     21  C   UNL     1      34.613 -14.982 -22.746  0.00  0.00    +0.040 C 
BRANCH  21  22
ATOM     22  C   UNL     1      33.346 -14.257 -23.208  0.00  0.00    +0.111 C 
BRANCH  22  24
ATOM     23  O   UNL     1      33.935 -11.931 -23.484  0.00  0.00    -0.250 OA
ATOM     24  C   UNL     1      33.615 -12.998 -23.992  0.00  0.00    +0.314 C 
BRANCH  24  25
ATOM     25  O   UNL     1      33.447 -13.165 -25.328  0.00  0.00    -0.480 OA
ATOM     26  H   UNL     1      32.811 -12.652 -25.788  0.00  0.00    +0.295 HD
ENDBRANCH  24  25
ENDBRANCH  22  24
ENDBRANCH  21  22
ENDBRANCH  16  21
ENDBRANCH  14  16
ENDBRANCH  11  14
ENDBRANCH   1  11
BRANCH   9  27
ATOM     27  O   UNL     1      33.361 -23.512 -16.259  0.00  0.00    -0.471 OA
BRANCH  27  28
ATOM     28  C   UNL     1      33.709 -23.172 -14.918  0.00  0.00    +0.232 C 
BRANCH  28  29
ATOM     29  C   UNL     1      35.007 -23.837 -14.565  0.00  0.00    +0.021 C 
ATOM     30  C   UNL     1      35.170 -25.206 -14.778  0.00  0.00    -0.000 C 
ATOM     31  C   UNL     1      36.050 -23.087 -14.021  0.00  0.00    -0.000 C 
ATOM     32  C   UNL     1      36.375 -25.824 -14.450  0.00  0.00    +0.010 C 
ATOM     33  C   UNL     1      37.255 -23.705 -13.692  0.00  0.00    +0.010 C 
ATOM     34  C   UNL     1      37.418 -25.074 -13.906  0.00  0.00    +0.068 C 
BRANCH  34  36
ATOM     35  N   UNL     1      39.659 -26.222 -13.298  0.00  0.00    -0.191 NA
ATOM     36  C   UNL     1      38.655 -25.707 -13.570  0.00  0.00    +0.100 C 
ENDBRANCH  34  36
ENDBRANCH  28  29
ENDBRANCH  27  28
ENDBRANCH   9  27
TORSDOF 13
ENDMDL
