MODEL 1
REMARK VINA RESULT:     -11.9      0.000      0.000
REMARK  Name = 446805
REMARK  6 active torsions:
REMARK  status: ('A' for Active; 'I' for Inactive)
REMARK    1  A    between atoms: C_4  and  C_22
REMARK    2  A    between atoms: C_7  and  N_11
REMARK    3  A    between atoms: N_11  and  S_13
REMARK    4  A    between atoms: S_13  and  C_16
REMARK    5  A    between atoms: C_22  and  C_23
REMARK    6  A    between atoms: C_28  and  C_31
REMARK                            x       y       z     vdW  Elec       q    Type
REMARK                         _______ _______ _______ _____ _____    ______ ____
ROOT
ATOM      1  N   UNL     1      33.992 -22.855 -16.911  0.00  0.00    -0.262 N 
ATOM      2  N   UNL     1      32.134 -22.244 -17.966  0.00  0.00    -0.394 NA
ATOM      3  C   UNL     1      34.411 -22.158 -18.015  0.00  0.00    +0.079 C 
ATOM      4  C   UNL     1      32.626 -22.879 -16.926  0.00  0.00    +0.168 C 
ATOM      5  C   UNL     1      33.233 -21.786 -18.657  0.00  0.00    +0.129 C 
ATOM      6  C   UNL     1      33.305 -21.043 -19.847  0.00  0.00    +0.103 C 
ATOM      7  C   UNL     1      34.568 -20.702 -20.346  0.00  0.00    +0.050 C 
ATOM      8  C   UNL     1      35.679 -21.828 -18.493  0.00  0.00    +0.018 C 
ATOM      9  C   UNL     1      34.848 -23.456 -15.913  0.00  0.00    +0.119 C 
ATOM     10  C   UNL     1      35.734 -21.088 -19.679  0.00  0.00    +0.013 C 
ENDROOT
BRANCH   7  11
ATOM     11  N   UNL     1      34.665 -19.948 -21.555  0.00  0.00    -0.219 N 
ATOM     12  H   UNL     1      34.197 -20.225 -22.376  0.00  0.00    +0.173 HD
BRANCH  11  13
ATOM     13  S   UNL     1      35.648 -18.516 -21.506  0.00  0.00    +0.073 S 
ATOM     14  O   UNL     1      37.003 -18.851 -21.896  0.00  0.00    -0.150 OA
ATOM     15  O   UNL     1      35.393 -17.805 -20.267  0.00  0.00    -0.150 OA
BRANCH  13  16
ATOM     16  C   UNL     1      34.939 -17.549 -22.807  0.00  0.00    +0.125 C 
ATOM     17  C   UNL     1      34.357 -18.193 -23.884  0.00  0.00    +0.020 C 
ATOM     18  C   UNL     1      34.981 -16.170 -22.720  0.00  0.00    +0.020 C 
ATOM     19  C   UNL     1      33.797 -17.430 -24.910  0.00  0.00    +0.001 C 
ATOM     20  C   UNL     1      34.422 -15.407 -23.746  0.00  0.00    +0.001 C 
ATOM     21  C   UNL     1      33.830 -16.037 -24.840  0.00  0.00    +0.000 C 
ENDBRANCH  13  16
ENDBRANCH  11  13
ENDBRANCH   7  11
BRANCH   4  22
ATOM     22  C   UNL     1      31.841 -23.555 -15.872  0.00  0.00    +0.101 C 
BRANCH  22  23
ATOM     23  C   UNL     1      30.372 -23.152 -15.843  0.00  0.00    -0.014 C 
ATOM     24  C   UNL     1      29.912 -22.384 -14.794  0.00  0.00    -0.004 C 
ATOM     25  C   UNL     1      29.547 -23.567 -16.869  0.00  0.00    -0.004 C 
ATOM     26  C   UNL     1      28.567 -22.015 -14.767  0.00  0.00    +0.002 C 
ATOM     27  C   UNL     1      28.202 -23.199 -16.842  0.00  0.00    +0.002 C 
ATOM     28  C   UNL     1      27.713 -22.422 -15.792  0.00  0.00    +0.031 C 
BRANCH  28  31
ATOM     29  N   UNL     1      25.722 -21.364 -16.833  0.00  0.00    -0.343 N 
ATOM     30  N   UNL     1      25.569 -22.326 -14.709  0.00  0.00    -0.285 NA
ATOM     31  C   UNL     1      26.310 -22.038 -15.764  0.00  0.00    +0.117 C 
ATOM     32  H   UNL     1      24.770 -21.114 -16.793  0.00  0.00    +0.144 HD
ATOM     33  H   UNL     1      26.257 -21.138 -17.627  0.00  0.00    +0.144 HD
ATOM     34  H   UNL     1      24.620 -22.067 -14.687  0.00  0.00    +0.188 HD
ENDBRANCH  28  31
ENDBRANCH  22  23
ENDBRANCH   4  22
TORSDOF 6
ENDMDL
MODEL 2
REMARK VINA RESULT:     -11.8      3.339      9.651
REMARK  Name = 446805
REMARK  6 active torsions:
REMARK  status: ('A' for Active; 'I' for Inactive)
REMARK    1  A    between atoms: C_4  and  C_22
REMARK    2  A    between atoms: C_7  and  N_11
REMARK    3  A    between atoms: N_11  and  S_13
REMARK    4  A    between atoms: S_13  and  C_16
REMARK    5  A    between atoms: C_22  and  C_23
REMARK    6  A    between atoms: C_28  and  C_31
REMARK                            x       y       z     vdW  Elec       q    Type
REMARK                         _______ _______ _______ _____ _____    ______ ____
ROOT
ATOM      1  N   UNL     1      35.773 -19.131 -21.941  0.00  0.00    -0.262 N 
ATOM      2  N   UNL     1      33.577 -19.132 -22.283  0.00  0.00    -0.394 NA
ATOM      3  C   UNL     1      35.249 -19.918 -20.948  0.00  0.00    +0.079 C 
ATOM      4  C   UNL     1      34.736 -18.686 -22.712  0.00  0.00    +0.168 C 
ATOM      5  C   UNL     1      33.877 -19.904 -21.183  0.00  0.00    +0.129 C 
ATOM      6  C   UNL     1      33.027 -20.627 -20.329  0.00  0.00    +0.103 C 
ATOM      7  C   UNL     1      33.597 -21.339 -19.267  0.00  0.00    +0.050 C 
ATOM      8  C   UNL     1      35.838 -20.622 -19.897  0.00  0.00    +0.018 C 
ATOM      9  C   UNL     1      37.174 -18.829 -22.133  0.00  0.00    +0.119 C 
ATOM     10  C   UNL     1      34.978 -21.336 -19.056  0.00  0.00    +0.013 C 
ENDROOT
BRANCH   7  11
ATOM     11  N   UNL     1      32.751 -22.081 -18.385  0.00  0.00    -0.219 N 
ATOM     12  H   UNL     1      31.779 -21.926 -18.350  0.00  0.00    +0.173 HD
BRANCH  11  13
ATOM     13  S   UNL     1      33.522 -23.270 -17.381  0.00  0.00    +0.073 S 
ATOM     14  O   UNL     1      34.806 -22.765 -16.939  0.00  0.00    -0.150 OA
ATOM     15  O   UNL     1      33.422 -24.570 -18.019  0.00  0.00    -0.150 OA
BRANCH  13  16
ATOM     16  C   UNL     1      32.447 -23.306 -15.977  0.00  0.00    +0.125 C 
ATOM     17  C   UNL     1      31.093 -23.086 -16.160  0.00  0.00    +0.020 C 
ATOM     18  C   UNL     1      32.980 -23.553 -14.725  0.00  0.00    +0.020 C 
ATOM     19  C   UNL     1      30.245 -23.115 -15.052  0.00  0.00    +0.001 C 
ATOM     20  C   UNL     1      32.132 -23.582 -13.618  0.00  0.00    +0.001 C 
ATOM     21  C   UNL     1      30.765 -23.363 -13.781  0.00  0.00    +0.000 C 
ENDBRANCH  13  16
ENDBRANCH  11  13
ENDBRANCH   7  11
BRANCH   4  22
ATOM     22  C   UNL     1      34.947 -17.806 -23.880  0.00  0.00    +0.101 C 
BRANCH  22  23
ATOM     23  C   UNL     1      34.528 -16.360 -23.646  0.00  0.00    -0.014 C 
ATOM     24  C   UNL     1      34.873 -15.749 -22.459  0.00  0.00    -0.004 C 
ATOM     25  C   UNL     1      33.816 -15.706 -24.631  0.00  0.00    -0.004 C 
ATOM     26  C   UNL     1      34.489 -14.425 -22.245  0.00  0.00    +0.002 C 
ATOM     27  C   UNL     1      33.431 -14.382 -24.417  0.00  0.00    +0.002 C 
ATOM     28  C   UNL     1      33.768 -13.742 -23.224  0.00  0.00    +0.031 C 
BRANCH  28  31
ATOM     29  N   UNL     1      32.321 -12.041 -22.139  0.00  0.00    -0.343 N 
ATOM     30  N   UNL     1      33.998 -11.384 -23.628  0.00  0.00    -0.285 NA
ATOM     31  C   UNL     1      33.367 -12.362 -23.002  0.00  0.00    +0.117 C 
ATOM     32  H   UNL     1      32.066 -11.100 -22.003  0.00  0.00    +0.144 HD
ATOM     33  H   UNL     1      31.837 -12.755 -21.665  0.00  0.00    +0.144 HD
ATOM     34  H   UNL     1      33.728 -10.449 -23.479  0.00  0.00    +0.188 HD
ENDBRANCH  28  31
ENDBRANCH  22  23
ENDBRANCH   4  22
TORSDOF 6
ENDMDL
MODEL 3
REMARK VINA RESULT:     -11.7      2.770      6.356
REMARK  Name = 446805
REMARK  6 active torsions:
REMARK  status: ('A' for Active; 'I' for Inactive)
REMARK    1  A    between atoms: C_4  and  C_22
REMARK    2  A    between atoms: C_7  and  N_11
REMARK    3  A    between atoms: N_11  and  S_13
REMARK    4  A    between atoms: S_13  and  C_16
REMARK    5  A    between atoms: C_22  and  C_23
REMARK    6  A    between atoms: C_28  and  C_31
REMARK                            x       y       z     vdW  Elec       q    Type
REMARK                         _______ _______ _______ _____ _____    ______ ____
ROOT
ATOM      1  N   UNL     1      33.257 -22.584 -17.168  0.00  0.00    -0.262 N 
ATOM      2  N   UNL     1      35.459 -22.639 -17.467  0.00  0.00    -0.394 NA
ATOM      3  C   UNL     1      33.484 -21.910 -18.340  0.00  0.00    +0.079 C 
ATOM      4  C   UNL     1      34.466 -23.000 -16.685  0.00  0.00    +0.168 C 
ATOM      5  C   UNL     1      34.865 -21.959 -18.506  0.00  0.00    +0.129 C 
ATOM      6  C   UNL     1      35.442 -21.349 -19.633  0.00  0.00    +0.103 C 
ATOM      7  C   UNL     1      34.600 -20.712 -20.552  0.00  0.00    +0.050 C 
ATOM      8  C   UNL     1      32.626 -21.282 -19.244  0.00  0.00    +0.018 C 
ATOM      9  C   UNL     1      31.968 -22.811 -16.555  0.00  0.00    +0.119 C 
ATOM     10  C   UNL     1      33.216 -20.681 -20.360  0.00  0.00    +0.013 C 
ENDROOT
BRANCH   7  11
ATOM     11  N   UNL     1      35.165 -20.085 -21.705  0.00  0.00    -0.219 N 
ATOM     12  H   UNL     1      35.207 -20.545 -22.575  0.00  0.00    +0.173 HD
BRANCH  11  13
ATOM     13  S   UNL     1      35.774 -18.472 -21.497  0.00  0.00    +0.073 S 
ATOM     14  O   UNL     1      37.204 -18.464 -21.737  0.00  0.00    -0.150 OA
ATOM     15  O   UNL     1      35.231 -17.911 -20.274  0.00  0.00    -0.150 OA
BRANCH  13  16
ATOM     16  C   UNL     1      35.000 -17.619 -22.839  0.00  0.00    +0.125 C 
ATOM     17  C   UNL     1      34.315 -18.349 -23.795  0.00  0.00    +0.020 C 
ATOM     18  C   UNL     1      35.094 -16.241 -22.907  0.00  0.00    +0.020 C 
ATOM     19  C   UNL     1      33.703 -17.676 -24.854  0.00  0.00    +0.001 C 
ATOM     20  C   UNL     1      34.482 -15.568 -23.965  0.00  0.00    +0.001 C 
ATOM     21  C   UNL     1      33.787 -16.286 -24.939  0.00  0.00    +0.000 C 
ENDBRANCH  13  16
ENDBRANCH  11  13
ENDBRANCH   7  11
BRANCH   4  22
ATOM     22  C   UNL     1      34.589 -23.762 -15.425  0.00  0.00    +0.101 C 
BRANCH  22  23
ATOM     23  C   UNL     1      36.014 -24.193 -15.102  0.00  0.00    -0.014 C 
ATOM     24  C   UNL     1      37.023 -23.254 -15.158  0.00  0.00    -0.004 C 
ATOM     25  C   UNL     1      36.251 -25.509 -14.763  0.00  0.00    -0.004 C 
ATOM     26  C   UNL     1      38.328 -23.648 -14.861  0.00  0.00    +0.002 C 
ATOM     27  C   UNL     1      37.556 -25.904 -14.467  0.00  0.00    +0.002 C 
ATOM     28  C   UNL     1      38.594 -24.973 -14.516  0.00  0.00    +0.031 C 
BRANCH  28  31
ATOM     29  N   UNL     1      40.228 -26.644 -13.677  0.00  0.00    -0.343 N 
ATOM     30  N   UNL     1      40.959 -24.555 -14.428  0.00  0.00    -0.285 NA
ATOM     31  C   UNL     1      39.955 -25.385 -14.208  0.00  0.00    +0.117 C 
ATOM     32  H   UNL     1      41.158 -26.901 -13.476  0.00  0.00    +0.144 HD
ATOM     33  H   UNL     1      39.494 -27.275 -13.503  0.00  0.00    +0.144 HD
ATOM     34  H   UNL     1      41.881 -24.831 -14.221  0.00  0.00    +0.188 HD
ENDBRANCH  28  31
ENDBRANCH  22  23
ENDBRANCH   4  22
TORSDOF 6
ENDMDL
MODEL 4
REMARK VINA RESULT:     -11.4      4.590      8.293
REMARK  Name = 446805
REMARK  6 active torsions:
REMARK  status: ('A' for Active; 'I' for Inactive)
REMARK    1  A    between atoms: C_4  and  C_22
REMARK    2  A    between atoms: C_7  and  N_11
REMARK    3  A    between atoms: N_11  and  S_13
REMARK    4  A    between atoms: S_13  and  C_16
REMARK    5  A    between atoms: C_22  and  C_23
REMARK    6  A    between atoms: C_28  and  C_31
REMARK                            x       y       z     vdW  Elec       q    Type
REMARK                         _______ _______ _______ _____ _____    ______ ____
ROOT
ATOM      1  N   UNL     1      34.598 -17.310 -23.645  0.00  0.00    -0.262 N 
ATOM      2  N   UNL     1      35.402 -16.549 -21.717  0.00  0.00    -0.394 NA
ATOM      3  C   UNL     1      34.132 -16.025 -23.536  0.00  0.00    +0.079 C 
ATOM      4  C   UNL     1      35.351 -17.576 -22.536  0.00  0.00    +0.168 C 
ATOM      5  C   UNL     1      34.648 -15.572 -22.325  0.00  0.00    +0.129 C 
ATOM      6  C   UNL     1      34.356 -14.264 -21.902  0.00  0.00    +0.103 C 
ATOM      7  C   UNL     1      33.550 -13.462 -22.720  0.00  0.00    +0.050 C 
ATOM      8  C   UNL     1      33.330 -15.243 -24.367  0.00  0.00    +0.018 C 
ATOM      9  C   UNL     1      34.336 -18.217 -24.739  0.00  0.00    +0.119 C 
ATOM     10  C   UNL     1      33.048 -13.944 -23.931  0.00  0.00    +0.013 C 
ENDROOT
BRANCH   7  11
ATOM     11  N   UNL     1      33.239 -12.129 -22.309  0.00  0.00    -0.219 N 
ATOM     12  H   UNL     1      33.786 -11.360 -22.592  0.00  0.00    +0.173 HD
BRANCH  11  13
ATOM     13  S   UNL     1      31.848 -11.931 -21.288  0.00  0.00    +0.073 S 
ATOM     14  O   UNL     1      32.073 -12.619 -20.032  0.00  0.00    -0.150 OA
ATOM     15  O   UNL     1      30.648 -12.188 -22.063  0.00  0.00    -0.150 OA
BRANCH  13  16
ATOM     16  C   UNL     1      31.885 -10.193 -20.962  0.00  0.00    +0.125 C 
ATOM     17  C   UNL     1      31.972  -9.310 -22.025  0.00  0.00    +0.020 C 
ATOM     18  C   UNL     1      31.827  -9.751 -19.653  0.00  0.00    +0.020 C 
ATOM     19  C   UNL     1      32.000  -7.939 -21.767  0.00  0.00    +0.001 C 
ATOM     20  C   UNL     1      31.856  -8.380 -19.396  0.00  0.00    +0.001 C 
ATOM     21  C   UNL     1      31.942  -7.474 -20.453  0.00  0.00    +0.000 C 
ENDBRANCH  13  16
ENDBRANCH  11  13
ENDBRANCH   7  11
BRANCH   4  22
ATOM     22  C   UNL     1      36.009 -18.883 -22.328  0.00  0.00    +0.101 C 
BRANCH  22  23
ATOM     23  C   UNL     1      35.346 -19.745 -21.261  0.00  0.00    -0.014 C 
ATOM     24  C   UNL     1      36.143 -20.464 -20.395  0.00  0.00    -0.004 C 
ATOM     25  C   UNL     1      33.968 -19.778 -21.193  0.00  0.00    -0.004 C 
ATOM     26  C   UNL     1      35.536 -21.253 -19.417  0.00  0.00    +0.002 C 
ATOM     27  C   UNL     1      33.361 -20.567 -20.217  0.00  0.00    +0.002 C 
ATOM     28  C   UNL     1      34.145 -21.304 -19.329  0.00  0.00    +0.031 C 
BRANCH  28  31
ATOM     29  N   UNL     1      32.138 -22.072 -18.085  0.00  0.00    -0.343 N 
ATOM     30  N   UNL     1      34.244 -22.946 -17.576  0.00  0.00    -0.285 NA
ATOM     31  C   UNL     1      33.512 -22.127 -18.310  0.00  0.00    +0.117 C 
ATOM     32  H   UNL     1      31.730 -22.638 -17.389  0.00  0.00    +0.144 HD
ATOM     33  H   UNL     1      31.575 -21.467 -18.619  0.00  0.00    +0.144 HD
ATOM     34  H   UNL     1      33.818 -23.504 -16.886  0.00  0.00    +0.188 HD
ENDBRANCH  28  31
ENDBRANCH  22  23
ENDBRANCH   4  22
TORSDOF 6
ENDMDL
MODEL 5
REMARK VINA RESULT:     -11.3      5.324     11.126
REMARK  Name = 446805
REMARK  6 active torsions:
REMARK  status: ('A' for Active; 'I' for Inactive)
REMARK    1  A    between atoms: C_4  and  C_22
REMARK    2  A    between atoms: C_7  and  N_11
REMARK    3  A    between atoms: N_11  and  S_13
REMARK    4  A    between atoms: S_13  and  C_16
REMARK    5  A    between atoms: C_22  and  C_23
REMARK    6  A    between atoms: C_28  and  C_31
REMARK                            x       y       z     vdW  Elec       q    Type
REMARK                         _______ _______ _______ _____ _____    ______ ____
ROOT
ATOM      1  N   UNL     1      33.765 -13.820 -24.657  0.00  0.00    -0.262 N 
ATOM      2  N   UNL     1      34.182 -12.930 -22.663  0.00  0.00    -0.394 NA
ATOM      3  C   UNL     1      34.103 -14.874 -23.848  0.00  0.00    +0.079 C 
ATOM      4  C   UNL     1      33.827 -12.681 -23.904  0.00  0.00    +0.168 C 
ATOM      5  C   UNL     1      34.357 -14.294 -22.609  0.00  0.00    +0.129 C 
ATOM      6  C   UNL     1      34.736 -15.113 -21.533  0.00  0.00    +0.103 C 
ATOM      7  C   UNL     1      34.844 -16.493 -21.749  0.00  0.00    +0.050 C 
ATOM      8  C   UNL     1      34.202 -16.246 -24.086  0.00  0.00    +0.018 C 
ATOM      9  C   UNL     1      33.410 -13.902 -26.055  0.00  0.00    +0.119 C 
ATOM     10  C   UNL     1      34.580 -17.047 -23.004  0.00  0.00    +0.013 C 
ENDROOT
BRANCH   7  11
ATOM     11  N   UNL     1      35.228 -17.345 -20.669  0.00  0.00    -0.219 N 
ATOM     12  H   UNL     1      34.972 -17.147 -19.739  0.00  0.00    +0.173 HD
BRANCH  11  13
ATOM     13  S   UNL     1      36.169 -18.747 -21.077  0.00  0.00    +0.073 S 
ATOM     14  O   UNL     1      37.440 -18.690 -20.383  0.00  0.00    -0.150 OA
ATOM     15  O   UNL     1      36.122 -18.951 -22.513  0.00  0.00    -0.150 OA
BRANCH  13  16
ATOM     16  C   UNL     1      35.215 -20.045 -20.344  0.00  0.00    +0.125 C 
ATOM     17  C   UNL     1      35.869 -21.066 -19.677  0.00  0.00    +0.020 C 
ATOM     18  C   UNL     1      33.837 -20.012 -20.453  0.00  0.00    +0.020 C 
ATOM     19  C   UNL     1      35.116 -22.089 -19.098  0.00  0.00    +0.001 C 
ATOM     20  C   UNL     1      33.085 -21.035 -19.875  0.00  0.00    +0.001 C 
ATOM     21  C   UNL     1      33.725 -22.073 -19.197  0.00  0.00    +0.000 C 
ENDBRANCH  13  16
ENDBRANCH  11  13
ENDBRANCH   7  11
BRANCH   4  22
ATOM     22  C   UNL     1      33.522 -11.349 -24.467  0.00  0.00    +0.101 C 
BRANCH  22  23
ATOM     23  C   UNL     1      33.233 -10.286 -23.414  0.00  0.00    -0.014 C 
ATOM     24  C   UNL     1      32.244 -10.522 -22.483  0.00  0.00    -0.004 C 
ATOM     25  C   UNL     1      33.971  -9.120 -23.426  0.00  0.00    -0.004 C 
ATOM     26  C   UNL     1      31.980  -9.548 -21.519  0.00  0.00    +0.002 C 
ATOM     27  C   UNL     1      33.707  -8.146 -22.464  0.00  0.00    +0.002 C 
ATOM     28  C   UNL     1      32.711  -8.360 -21.510  0.00  0.00    +0.031 C 
BRANCH  28  31
ATOM     29  N   UNL     1      31.572  -6.283 -20.767  0.00  0.00    -0.343 N 
ATOM     30  N   UNL     1      33.012  -7.418 -19.319  0.00  0.00    -0.285 NA
ATOM     31  C   UNL     1      32.435  -7.345 -20.506  0.00  0.00    +0.117 C 
ATOM     32  H   UNL     1      31.400  -5.606 -20.073  0.00  0.00    +0.144 HD
ATOM     33  H   UNL     1      31.134  -6.208 -21.646  0.00  0.00    +0.144 HD
ATOM     34  H   UNL     1      32.828  -6.732 -18.638  0.00  0.00    +0.188 HD
ENDBRANCH  28  31
ENDBRANCH  22  23
ENDBRANCH   4  22
TORSDOF 6
ENDMDL
MODEL 6
REMARK VINA RESULT:     -11.2      4.186      7.462
REMARK  Name = 446805
REMARK  6 active torsions:
REMARK  status: ('A' for Active; 'I' for Inactive)
REMARK    1  A    between atoms: C_4  and  C_22
REMARK    2  A    between atoms: C_7  and  N_11
REMARK    3  A    between atoms: N_11  and  S_13
REMARK    4  A    between atoms: S_13  and  C_16
REMARK    5  A    between atoms: C_22  and  C_23
REMARK    6  A    between atoms: C_28  and  C_31
REMARK                            x       y       z     vdW  Elec       q    Type
REMARK                         _______ _______ _______ _____ _____    ______ ____
ROOT
ATOM      1  N   UNL     1      35.120 -18.142 -22.839  0.00  0.00    -0.262 N 
ATOM      2  N   UNL     1      35.462 -17.454 -20.753  0.00  0.00    -0.394 NA
ATOM      3  C   UNL     1      34.677 -16.844 -22.804  0.00  0.00    +0.079 C 
ATOM      4  C   UNL     1      35.579 -18.460 -21.592  0.00  0.00    +0.168 C 
ATOM      5  C   UNL     1      34.903 -16.437 -21.493  0.00  0.00    +0.129 C 
ATOM      6  C   UNL     1      34.555 -15.130 -21.111  0.00  0.00    +0.103 C 
ATOM      7  C   UNL     1      33.991 -14.282 -22.072  0.00  0.00    +0.050 C 
ATOM      8  C   UNL     1      34.118 -16.016 -23.778  0.00  0.00    +0.018 C 
ATOM      9  C   UNL     1      35.101 -19.014 -23.992  0.00  0.00    +0.119 C 
ATOM     10  C   UNL     1      33.778 -14.719 -23.382  0.00  0.00    +0.013 C 
ENDROOT
BRANCH   7  11
ATOM     11  N   UNL     1      33.628 -12.949 -21.706  0.00  0.00    -0.219 N 
ATOM     12  H   UNL     1      34.297 -12.228 -21.654  0.00  0.00    +0.173 HD
BRANCH  11  13
ATOM     13  S   UNL     1      31.951 -12.663 -21.358  0.00  0.00    +0.073 S 
ATOM     14  O   UNL     1      31.573 -13.409 -20.173  0.00  0.00    -0.150 OA
ATOM     15  O   UNL     1      31.182 -12.788 -22.582  0.00  0.00    -0.150 OA
BRANCH  13  16
ATOM     16  C   UNL     1      31.959 -10.947 -20.932  0.00  0.00    +0.125 C 
ATOM     17  C   UNL     1      31.774 -10.580 -19.610  0.00  0.00    +0.020 C 
ATOM     18  C   UNL     1      32.151 -10.006 -21.927  0.00  0.00    +0.020 C 
ATOM     19  C   UNL     1      31.782  -9.226 -19.274  0.00  0.00    +0.001 C 
ATOM     20  C   UNL     1      32.159  -8.652 -21.591  0.00  0.00    +0.001 C 
ATOM     21  C   UNL     1      31.974  -8.262 -20.264  0.00  0.00    +0.000 C 
ENDBRANCH  13  16
ENDBRANCH  11  13
ENDBRANCH   7  11
BRANCH   4  22
ATOM     22  C   UNL     1      36.131 -19.793 -21.274  0.00  0.00    +0.101 C 
BRANCH  22  23
ATOM     23  C   UNL     1      35.296 -20.585 -20.276  0.00  0.00    -0.014 C 
ATOM     24  C   UNL     1      35.938 -21.401 -19.369  0.00  0.00    -0.004 C 
ATOM     25  C   UNL     1      33.922 -20.461 -20.311  0.00  0.00    -0.004 C 
ATOM     26  C   UNL     1      35.172 -22.126 -18.455  0.00  0.00    +0.002 C 
ATOM     27  C   UNL     1      33.157 -21.186 -19.398  0.00  0.00    +0.002 C 
ATOM     28  C   UNL     1      33.782 -22.018 -18.470  0.00  0.00    +0.031 C 
BRANCH  28  31
ATOM     29  N   UNL     1      31.634 -22.492 -17.317  0.00  0.00    -0.343 N 
ATOM     30  N   UNL     1      33.540 -23.750 -16.821  0.00  0.00    -0.285 NA
ATOM     31  C   UNL     1      32.984 -22.775 -17.518  0.00  0.00    +0.117 C 
ATOM     32  H   UNL     1      31.113 -23.017 -16.667  0.00  0.00    +0.144 HD
ATOM     33  H   UNL     1      31.202 -21.768 -17.825  0.00  0.00    +0.144 HD
ATOM     34  H   UNL     1      33.002 -24.264 -16.176  0.00  0.00    +0.188 HD
ENDBRANCH  28  31
ENDBRANCH  22  23
ENDBRANCH   4  22
TORSDOF 6
ENDMDL
MODEL 7
REMARK VINA RESULT:     -10.7      4.887     10.303
REMARK  Name = 446805
REMARK  6 active torsions:
REMARK  status: ('A' for Active; 'I' for Inactive)
REMARK    1  A    between atoms: C_4  and  C_22
REMARK    2  A    between atoms: C_7  and  N_11
REMARK    3  A    between atoms: N_11  and  S_13
REMARK    4  A    between atoms: S_13  and  C_16
REMARK    5  A    between atoms: C_22  and  C_23
REMARK    6  A    between atoms: C_28  and  C_31
REMARK                            x       y       z     vdW  Elec       q    Type
REMARK                         _______ _______ _______ _____ _____    ______ ____
ROOT
ATOM      1  N   UNL     1      33.338 -14.408 -25.120  0.00  0.00    -0.262 N 
ATOM      2  N   UNL     1      34.640 -14.120 -23.342  0.00  0.00    -0.394 NA
ATOM      3  C   UNL     1      33.692 -15.670 -24.717  0.00  0.00    +0.079 C 
ATOM      4  C   UNL     1      33.928 -13.517 -24.267  0.00  0.00    +0.168 C 
ATOM      5  C   UNL     1      34.504 -15.464 -23.606  0.00  0.00    +0.129 C 
ATOM      6  C   UNL     1      35.047 -16.574 -22.938  0.00  0.00    +0.103 C 
ATOM      7  C   UNL     1      34.748 -17.855 -23.420  0.00  0.00    +0.050 C 
ATOM      8  C   UNL     1      33.380 -16.936 -25.214  0.00  0.00    +0.018 C 
ATOM      9  C   UNL     1      32.492 -14.082 -26.246  0.00  0.00    +0.119 C 
ATOM     10  C   UNL     1      33.929 -18.030 -24.538  0.00  0.00    +0.013 C 
ENDROOT
BRANCH   7  11
ATOM     11  N   UNL     1      35.290 -18.998 -22.757  0.00  0.00    -0.219 N 
ATOM     12  H   UNL     1      35.311 -19.884 -23.188  0.00  0.00    +0.173 HD
BRANCH  11  13
ATOM     13  S   UNL     1      35.912 -18.750 -21.154  0.00  0.00    +0.073 S 
ATOM     14  O   UNL     1      35.354 -17.529 -20.607  0.00  0.00    -0.150 OA
ATOM     15  O   UNL     1      37.347 -18.966 -21.161  0.00  0.00    -0.150 OA
BRANCH  13  16
ATOM     16  C   UNL     1      35.195 -20.108 -20.276  0.00  0.00    +0.125 C 
ATOM     17  C   UNL     1      33.824 -20.292 -20.324  0.00  0.00    +0.020 C 
ATOM     18  C   UNL     1      36.018 -20.958 -19.560  0.00  0.00    +0.020 C 
ATOM     19  C   UNL     1      33.259 -21.364 -19.632  0.00  0.00    +0.001 C 
ATOM     20  C   UNL     1      35.452 -22.030 -18.868  0.00  0.00    +0.001 C 
ATOM     21  C   UNL     1      34.073 -22.233 -18.904  0.00  0.00    +0.000 C 
ENDBRANCH  13  16
ENDBRANCH  11  13
ENDBRANCH   7  11
BRANCH   4  22
ATOM     22  C   UNL     1      33.755 -12.057 -24.413  0.00  0.00    +0.101 C 
BRANCH  22  23
ATOM     23  C   UNL     1      33.179 -11.377 -23.178  0.00  0.00    -0.014 C 
ATOM     24  C   UNL     1      33.195 -10.000 -23.106  0.00  0.00    -0.004 C 
ATOM     25  C   UNL     1      32.660 -12.161 -22.168  0.00  0.00    -0.004 C 
ATOM     26  C   UNL     1      32.668  -9.378 -21.974  0.00  0.00    +0.002 C 
ATOM     27  C   UNL     1      32.134 -11.540 -21.036  0.00  0.00    +0.002 C 
ATOM     28  C   UNL     1      32.137 -10.148 -20.939  0.00  0.00    +0.031 C 
BRANCH  28  31
ATOM     29  N   UNL     1      30.676 -10.152 -18.931  0.00  0.00    -0.343 N 
ATOM     30  N   UNL     1      31.952  -8.266 -19.456  0.00  0.00    -0.285 NA
ATOM     31  C   UNL     1      31.588  -9.500 -19.759  0.00  0.00    +0.117 C 
ATOM     32  H   UNL     1      30.317  -9.694 -18.137  0.00  0.00    +0.144 HD
ATOM     33  H   UNL     1      30.391 -11.071 -19.141  0.00  0.00    +0.144 HD
ATOM     34  H   UNL     1      31.581  -7.825 -18.658  0.00  0.00    +0.188 HD
ENDBRANCH  28  31
ENDBRANCH  22  23
ENDBRANCH   4  22
TORSDOF 6
ENDMDL
MODEL 8
REMARK VINA RESULT:     -10.6      5.648      9.231
REMARK  Name = 446805
REMARK  6 active torsions:
REMARK  status: ('A' for Active; 'I' for Inactive)
REMARK    1  A    between atoms: C_4  and  C_22
REMARK    2  A    between atoms: C_7  and  N_11
REMARK    3  A    between atoms: N_11  and  S_13
REMARK    4  A    between atoms: S_13  and  C_16
REMARK    5  A    between atoms: C_22  and  C_23
REMARK    6  A    between atoms: C_28  and  C_31
REMARK                            x       y       z     vdW  Elec       q    Type
REMARK                         _______ _______ _______ _____ _____    ______ ____
ROOT
ATOM      1  N   UNL     1      34.263 -15.693 -23.546  0.00  0.00    -0.262 N 
ATOM      2  N   UNL     1      34.757 -16.023 -21.404  0.00  0.00    -0.394 NA
ATOM      3  C   UNL     1      33.737 -14.617 -22.879  0.00  0.00    +0.079 C 
ATOM      4  C   UNL     1      34.861 -16.504 -22.623  0.00  0.00    +0.168 C 
ATOM      5  C   UNL     1      34.060 -14.845 -21.545  0.00  0.00    +0.129 C 
ATOM      6  C   UNL     1      33.660 -13.912 -20.573  0.00  0.00    +0.103 C 
ATOM      7  C   UNL     1      32.949 -12.779 -20.989  0.00  0.00    +0.050 C 
ATOM      8  C   UNL     1      33.031 -13.495 -23.316  0.00  0.00    +0.018 C 
ATOM      9  C   UNL     1      34.193 -15.925 -24.971  0.00  0.00    +0.119 C 
ATOM     10  C   UNL     1      32.641 -12.576 -22.336  0.00  0.00    +0.013 C 
ENDROOT
BRANCH   7  11
ATOM     11  N   UNL     1      32.532 -11.817 -20.018  0.00  0.00    -0.219 N 
ATOM     12  H   UNL     1      32.976 -11.741 -19.142  0.00  0.00    +0.173 HD
BRANCH  11  13
ATOM     13  S   UNL     1      31.205 -10.787 -20.459  0.00  0.00    +0.073 S 
ATOM     14  O   UNL     1      30.483 -10.397 -19.264  0.00  0.00    -0.150 OA
ATOM     15  O   UNL     1      30.502 -11.370 -21.587  0.00  0.00    -0.150 OA
BRANCH  13  16
ATOM     16  C   UNL     1      32.048  -9.355 -21.067  0.00  0.00    +0.125 C 
ATOM     17  C   UNL     1      32.331  -9.264 -22.419  0.00  0.00    +0.020 C 
ATOM     18  C   UNL     1      32.406  -8.357 -20.180  0.00  0.00    +0.020 C 
ATOM     19  C   UNL     1      32.996  -8.134 -22.898  0.00  0.00    +0.001 C 
ATOM     20  C   UNL     1      33.071  -7.227 -20.660  0.00  0.00    +0.001 C 
ATOM     21  C   UNL     1      33.365  -7.116 -22.019  0.00  0.00    +0.000 C 
ENDBRANCH  13  16
ENDBRANCH  11  13
ENDBRANCH   7  11
BRANCH   4  22
ATOM     22  C   UNL     1      35.533 -17.765 -23.002  0.00  0.00    +0.101 C 
BRANCH  22  23
ATOM     23  C   UNL     1      35.569 -18.803 -21.888  0.00  0.00    -0.014 C 
ATOM     24  C   UNL     1      36.748 -19.002 -21.201  0.00  0.00    -0.004 C 
ATOM     25  C   UNL     1      34.421 -19.513 -21.602  0.00  0.00    -0.004 C 
ATOM     26  C   UNL     1      36.781 -19.954 -20.180  0.00  0.00    +0.002 C 
ATOM     27  C   UNL     1      34.454 -20.465 -20.583  0.00  0.00    +0.002 C 
ATOM     28  C   UNL     1      35.634 -20.684 -19.872  0.00  0.00    +0.031 C 
BRANCH  28  31
ATOM     29  N   UNL     1      36.664 -21.661 -17.834  0.00  0.00    -0.343 N 
ATOM     30  N   UNL     1      34.744 -22.620 -18.759  0.00  0.00    -0.285 NA
ATOM     31  C   UNL     1      35.668 -21.677 -18.809  0.00  0.00    +0.117 C 
ATOM     32  H   UNL     1      36.667 -22.343 -17.124  0.00  0.00    +0.144 HD
ATOM     33  H   UNL     1      37.363 -20.968 -17.855  0.00  0.00    +0.144 HD
ATOM     34  H   UNL     1      34.765 -23.293 -18.041  0.00  0.00    +0.188 HD
ENDBRANCH  28  31
ENDBRANCH  22  23
ENDBRANCH   4  22
TORSDOF 6
ENDMDL
MODEL 9
REMARK VINA RESULT:     -10.4      1.682      2.387
REMARK  Name = 446805
REMARK  6 active torsions:
REMARK  status: ('A' for Active; 'I' for Inactive)
REMARK    1  A    between atoms: C_4  and  C_22
REMARK    2  A    between atoms: C_7  and  N_11
REMARK    3  A    between atoms: N_11  and  S_13
REMARK    4  A    between atoms: S_13  and  C_16
REMARK    5  A    between atoms: C_22  and  C_23
REMARK    6  A    between atoms: C_28  and  C_31
REMARK                            x       y       z     vdW  Elec       q    Type
REMARK                         _______ _______ _______ _____ _____    ______ ____
ROOT
ATOM      1  N   UNL     1      36.185 -22.448 -16.358  0.00  0.00    -0.262 N 
ATOM      2  N   UNL     1      34.184 -22.765 -17.273  0.00  0.00    -0.394 NA
ATOM      3  C   UNL     1      36.221 -21.783 -17.557  0.00  0.00    +0.079 C 
ATOM      4  C   UNL     1      34.949 -23.018 -16.234  0.00  0.00    +0.168 C 
ATOM      5  C   UNL     1      34.960 -21.995 -18.108  0.00  0.00    +0.129 C 
ATOM      6  C   UNL     1      34.657 -21.437 -19.362  0.00  0.00    +0.103 C 
ATOM      7  C   UNL     1      35.642 -20.684 -20.013  0.00  0.00    +0.050 C 
ATOM      8  C   UNL     1      37.216 -21.035 -18.187  0.00  0.00    +0.018 C 
ATOM      9  C   UNL     1      37.265 -22.529 -15.401  0.00  0.00    +0.119 C 
ATOM     10  C   UNL     1      36.898 -20.487 -19.434  0.00  0.00    +0.013 C 
ENDROOT
BRANCH   7  11
ATOM     11  N   UNL     1      35.357 -20.108 -21.289  0.00  0.00    -0.219 N 
ATOM     12  H   UNL     1      34.833 -20.592 -21.969  0.00  0.00    +0.173 HD
BRANCH  11  13
ATOM     13  S   UNL     1      35.977 -18.512 -21.583  0.00  0.00    +0.073 S 
ATOM     14  O   UNL     1      37.350 -18.608 -22.037  0.00  0.00    -0.150 OA
ATOM     15  O   UNL     1      35.628 -17.653 -20.466  0.00  0.00    -0.150 OA
BRANCH  13  16
ATOM     16  C   UNL     1      34.992 -17.991 -22.957  0.00  0.00    +0.125 C 
ATOM     17  C   UNL     1      34.253 -18.933 -23.651  0.00  0.00    +0.020 C 
ATOM     18  C   UNL     1      34.981 -16.654 -23.309  0.00  0.00    +0.020 C 
ATOM     19  C   UNL     1      33.476 -18.521 -24.735  0.00  0.00    +0.001 C 
ATOM     20  C   UNL     1      34.204 -16.243 -24.393  0.00  0.00    +0.001 C 
ATOM     21  C   UNL     1      33.452 -17.176 -25.105  0.00  0.00    +0.000 C 
ENDBRANCH  13  16
ENDBRANCH  11  13
ENDBRANCH   7  11
BRANCH   4  22
ATOM     22  C   UNL     1      34.567 -23.816 -15.051  0.00  0.00    +0.101 C 
BRANCH  22  23
ATOM     23  C   UNL     1      33.065 -24.025 -14.907  0.00  0.00    -0.014 C 
ATOM     24  C   UNL     1      32.598 -24.822 -13.882  0.00  0.00    -0.004 C 
ATOM     25  C   UNL     1      32.218 -23.411 -15.807  0.00  0.00    -0.004 C 
ATOM     26  C   UNL     1      31.222 -25.013 -13.750  0.00  0.00    +0.002 C 
ATOM     27  C   UNL     1      30.843 -23.603 -15.675  0.00  0.00    +0.002 C 
ATOM     28  C   UNL     1      30.345 -24.404 -14.647  0.00  0.00    +0.031 C 
BRANCH  28  31
ATOM     29  N   UNL     1      27.999 -23.680 -15.017  0.00  0.00    -0.343 N 
ATOM     30  N   UNL     1      28.452 -25.678 -13.893  0.00  0.00    -0.285 NA
ATOM     31  C   UNL     1      28.911 -24.604 -14.511  0.00  0.00    +0.117 C 
ATOM     32  H   UNL     1      27.032 -23.836 -14.913  0.00  0.00    +0.144 HD
ATOM     33  H   UNL     1      28.320 -22.872 -15.478  0.00  0.00    +0.144 HD
ATOM     34  H   UNL     1      27.482 -25.816 -13.799  0.00  0.00    +0.188 HD
ENDBRANCH  28  31
ENDBRANCH  22  23
ENDBRANCH   4  22
TORSDOF 6
ENDMDL
