MODEL 1
REMARK VINA RESULT:     -12.3      0.000      0.000
REMARK  Name = 119057475
REMARK  5 active torsions:
REMARK  status: ('A' for Active; 'I' for Inactive)
REMARK    1  A    between atoms: N_1  and  C_22
REMARK    2  A    between atoms: C_2  and  N_8
REMARK    3  A    between atoms: N_8  and  C_11
REMARK    4  A    between atoms: C_11  and  C_16
REMARK    5  A    between atoms: C_22  and  C_26
REMARK                            x       y       z     vdW  Elec       q    Type
REMARK                         _______ _______ _______ _____ _____    ______ ____
ROOT
ATOM      1  N   UNL     1      34.079 -22.516 -19.097  0.00  0.00    +0.387 N 
ATOM      2  C   UNL     1      34.744 -19.979 -20.395  0.00  0.00    -0.066 C 
ATOM      3  C   UNL     1      35.455 -22.002 -19.064  0.00  0.00    -0.079 C 
ATOM      4  C   UNL     1      33.101 -21.419 -19.131  0.00  0.00    -0.079 C 
ATOM      5  C   UNL     1      35.747 -21.129 -20.288  0.00  0.00    -0.044 C 
ATOM      6  C   UNL     1      33.314 -20.527 -20.357  0.00  0.00    -0.044 C 
ATOM      7  H   UNL     1      33.968 -23.062 -19.952  0.00  0.00    -0.080 HD
ENDROOT
BRANCH   2   8
ATOM      8  N   UNL     1      34.979 -19.214 -21.617  0.00  0.00    +0.389 N 
ATOM      9  H   UNL     1      34.088 -19.052 -22.086  0.00  0.00    -0.084 HD
ATOM     10  H   UNL     1      35.607 -19.745 -22.221  0.00  0.00    -0.084 HD
BRANCH   8  11
ATOM     11  C   UNL     1      35.598 -17.932 -21.314  0.00  0.00    -0.032 C 
BRANCH  11  16
ATOM     12  O   UNL     1      34.033 -16.049 -25.509  0.00  0.00    -0.467 OA
ATOM     13  O   UNL     1      33.381 -13.645 -24.069  0.00  0.00    -0.453 OA
ATOM     14  N   UNL     1      34.650 -15.693 -21.448  0.00  0.00    -0.151 NA
ATOM     15  N   UNL     1      34.103 -14.650 -22.131  0.00  0.00    -0.107 NA
ATOM     16  C   UNL     1      34.992 -16.813 -22.117  0.00  0.00    +0.062 C 
ATOM     17  C   UNL     1      34.803 -16.961 -23.477  0.00  0.00    +0.056 C 
ATOM     18  C   UNL     1      34.235 -15.903 -24.166  0.00  0.00    +0.194 C 
ATOM     19  C   UNL     1      33.914 -14.755 -23.463  0.00  0.00    +0.278 C 
ATOM     20  C   UNL     1      33.170 -15.035 -26.033  0.00  0.00    +0.253 C 
ATOM     21  C   UNL     1      33.563 -13.676 -25.487  0.00  0.00    +0.254 C 
ENDBRANCH  11  16
ENDBRANCH   8  11
ENDBRANCH   2   8
BRANCH   1  22
ATOM     22  C   UNL     1      33.830 -23.387 -17.949  0.00  0.00    -0.071 C 
BRANCH  22  26
ATOM     23  F   UNL     1      30.944 -23.091 -16.411  0.00  0.00    -0.204 F 
ATOM     24  O   UNL     1      37.487 -23.349 -13.999  0.00  0.00    -0.270 OA
ATOM     25  N   UNL     1      35.292 -23.298 -14.729  0.00  0.00    -0.255 N 
ATOM     26  C   UNL     1      33.960 -22.619 -16.641  0.00  0.00    +0.025 C 
ATOM     27  C   UNL     1      35.404 -22.693 -16.062  0.00  0.00    +0.101 C 
ATOM     28  C   UNL     1      33.140 -23.216 -15.530  0.00  0.00    +0.018 C 
ATOM     29  C   UNL     1      33.957 -23.576 -14.473  0.00  0.00    +0.052 C 
ATOM     30  C   UNL     1      33.515 -24.150 -13.298  0.00  0.00    +0.014 C 
ATOM     31  C   UNL     1      31.780 -23.429 -15.422  0.00  0.00    +0.137 C 
ATOM     32  C   UNL     1      36.292 -23.575 -13.824  0.00  0.00    +0.253 C 
ATOM     33  C   UNL     1      32.146 -24.371 -13.182  0.00  0.00    +0.004 C 
ATOM     34  C   UNL     1      31.286 -24.011 -14.241  0.00  0.00    +0.029 C 
ATOM     35  C   UNL     1      34.530 -24.465 -12.296  0.00  0.00    +0.006 C 
ATOM     36  C   UNL     1      35.825 -24.199 -12.537  0.00  0.00    +0.058 C 
ENDBRANCH  22  26
ENDBRANCH   1  22
TORSDOF 5
ENDMDL
MODEL 2
REMARK VINA RESULT:     -12.1      1.240      1.498
REMARK  Name = 119057475
REMARK  5 active torsions:
REMARK  status: ('A' for Active; 'I' for Inactive)
REMARK    1  A    between atoms: N_1  and  C_22
REMARK    2  A    between atoms: C_2  and  N_8
REMARK    3  A    between atoms: N_8  and  C_11
REMARK    4  A    between atoms: C_11  and  C_16
REMARK    5  A    between atoms: C_22  and  C_26
REMARK                            x       y       z     vdW  Elec       q    Type
REMARK                         _______ _______ _______ _____ _____    ______ ____
ROOT
ATOM      1  N   UNL     1      34.557 -22.185 -19.376  0.00  0.00    +0.387 N 
ATOM      2  C   UNL     1      35.378 -19.605 -20.486  0.00  0.00    -0.066 C 
ATOM      3  C   UNL     1      35.904 -21.658 -19.117  0.00  0.00    -0.079 C 
ATOM      4  C   UNL     1      33.581 -21.097 -19.531  0.00  0.00    -0.079 C 
ATOM      5  C   UNL     1      36.369 -20.747 -20.257  0.00  0.00    -0.044 C 
ATOM      6  C   UNL     1      33.967 -20.167 -20.685  0.00  0.00    -0.044 C 
ATOM      7  H   UNL     1      34.587 -22.706 -20.252  0.00  0.00    -0.080 HD
ENDROOT
BRANCH   2   8
ATOM      8  N   UNL     1      35.787 -18.801 -21.636  0.00  0.00    +0.389 N 
ATOM      9  H   UNL     1      36.756 -19.022 -21.869  0.00  0.00    -0.084 HD
ATOM     10  H   UNL     1      35.696 -17.815 -21.395  0.00  0.00    -0.084 HD
BRANCH   8  11
ATOM     11  C   UNL     1      34.944 -19.080 -22.789  0.00  0.00    -0.032 C 
BRANCH  11  16
ATOM     12  O   UNL     1      34.272 -14.272 -22.945  0.00  0.00    -0.467 OA
ATOM     13  O   UNL     1      33.429 -14.581 -25.679  0.00  0.00    -0.453 OA
ATOM     14  N   UNL     1      34.192 -17.948 -24.810  0.00  0.00    -0.151 NA
ATOM     15  N   UNL     1      33.828 -16.840 -25.511  0.00  0.00    -0.107 NA
ATOM     16  C   UNL     1      34.557 -17.821 -23.518  0.00  0.00    +0.062 C 
ATOM     17  C   UNL     1      34.589 -16.606 -22.864  0.00  0.00    +0.056 C 
ATOM     18  C   UNL     1      34.229 -15.479 -23.583  0.00  0.00    +0.194 C 
ATOM     19  C   UNL     1      33.836 -15.636 -24.901  0.00  0.00    +0.278 C 
ATOM     20  C   UNL     1      34.187 -13.179 -23.864  0.00  0.00    +0.253 C 
ATOM     21  C   UNL     1      33.100 -13.436 -24.889  0.00  0.00    +0.254 C 
ENDBRANCH  11  16
ENDBRANCH   8  11
ENDBRANCH   2   8
BRANCH   1  22
ATOM     22  C   UNL     1      34.147 -23.091 -18.304  0.00  0.00    -0.071 C 
BRANCH  22  26
ATOM     23  F   UNL     1      31.218 -22.700 -16.871  0.00  0.00    -0.204 F 
ATOM     24  O   UNL     1      37.613 -23.553 -14.211  0.00  0.00    -0.270 OA
ATOM     25  N   UNL     1      35.462 -23.308 -15.027  0.00  0.00    -0.255 N 
ATOM     26  C   UNL     1      34.266 -22.419 -16.944  0.00  0.00    +0.025 C 
ATOM     27  C   UNL     1      35.674 -22.627 -16.311  0.00  0.00    +0.101 C 
ATOM     28  C   UNL     1      33.359 -23.029 -15.910  0.00  0.00    +0.018 C 
ATOM     29  C   UNL     1      34.101 -23.510 -14.846  0.00  0.00    +0.052 C 
ATOM     30  C   UNL     1      33.570 -24.127 -13.731  0.00  0.00    +0.014 C 
ATOM     31  C   UNL     1      31.984 -23.157 -15.873  0.00  0.00    +0.137 C 
ATOM     32  C   UNL     1      36.399 -23.708 -14.101  0.00  0.00    +0.253 C 
ATOM     33  C   UNL     1      32.185 -24.263 -13.689  0.00  0.00    +0.004 C 
ATOM     34  C   UNL     1      31.400 -23.778 -14.756  0.00  0.00    +0.029 C 
ATOM     35  C   UNL     1      34.514 -24.573 -12.712  0.00  0.00    +0.006 C 
ATOM     36  C   UNL     1      35.834 -24.381 -12.880  0.00  0.00    +0.058 C 
ENDBRANCH  22  26
ENDBRANCH   1  22
TORSDOF 5
ENDMDL
MODEL 3
REMARK VINA RESULT:     -12.0      1.173      1.673
REMARK  Name = 119057475
REMARK  5 active torsions:
REMARK  status: ('A' for Active; 'I' for Inactive)
REMARK    1  A    between atoms: N_1  and  C_22
REMARK    2  A    between atoms: C_2  and  N_8
REMARK    3  A    between atoms: N_8  and  C_11
REMARK    4  A    between atoms: C_11  and  C_16
REMARK    5  A    between atoms: C_22  and  C_26
REMARK                            x       y       z     vdW  Elec       q    Type
REMARK                         _______ _______ _______ _____ _____    ______ ____
ROOT
ATOM      1  N   UNL     1      34.678 -21.678 -18.438  0.00  0.00    +0.387 N 
ATOM      2  C   UNL     1      34.613 -20.406 -21.073  0.00  0.00    -0.066 C 
ATOM      3  C   UNL     1      33.459 -21.725 -19.257  0.00  0.00    -0.079 C 
ATOM      4  C   UNL     1      35.883 -21.646 -19.280  0.00  0.00    -0.079 C 
ATOM      5  C   UNL     1      33.371 -20.510 -20.186  0.00  0.00    -0.044 C 
ATOM      6  C   UNL     1      35.877 -20.429 -20.208  0.00  0.00    -0.044 C 
ATOM      7  H   UNL     1      34.655 -20.818 -17.890  0.00  0.00    -0.080 HD
ENDROOT
BRANCH   2   8
ATOM      8  N   UNL     1      34.556 -19.191 -21.884  0.00  0.00    +0.389 N 
ATOM      9  H   UNL     1      33.592 -18.858 -21.917  0.00  0.00    -0.084 HD
ATOM     10  H   UNL     1      34.888 -19.409 -22.823  0.00  0.00    -0.084 HD
BRANCH   8  11
ATOM     11  C   UNL     1      35.402 -18.152 -21.319  0.00  0.00    -0.032 C 
BRANCH  11  16
ATOM     12  O   UNL     1      34.066 -14.851 -24.623  0.00  0.00    -0.467 OA
ATOM     13  O   UNL     1      33.679 -12.992 -22.460  0.00  0.00    -0.453 OA
ATOM     14  N   UNL     1      34.707 -15.904 -20.688  0.00  0.00    -0.151 NA
ATOM     15  N   UNL     1      34.280 -14.644 -20.978  0.00  0.00    -0.107 NA
ATOM     16  C   UNL     1      34.925 -16.774 -21.695  0.00  0.00    +0.062 C 
ATOM     17  C   UNL     1      34.725 -16.451 -23.022  0.00  0.00    +0.056 C 
ATOM     18  C   UNL     1      34.279 -15.172 -23.312  0.00  0.00    +0.194 C 
ATOM     19  C   UNL     1      34.084 -14.289 -22.265  0.00  0.00    +0.278 C 
ATOM     20  C   UNL     1      33.322 -13.636 -24.760  0.00  0.00    +0.253 C 
ATOM     21  C   UNL     1      33.860 -12.579 -23.817  0.00  0.00    +0.254 C 
ENDBRANCH  11  16
ENDBRANCH   8  11
ENDBRANCH   2   8
BRANCH   1  22
ATOM     22  C   UNL     1      34.724 -22.817 -17.522  0.00  0.00    -0.071 C 
BRANCH  22  26
ATOM     23  F   UNL     1      32.345 -22.566 -15.273  0.00  0.00    -0.204 F 
ATOM     24  O   UNL     1      39.118 -24.145 -14.710  0.00  0.00    -0.270 OA
ATOM     25  N   UNL     1      36.858 -23.668 -14.832  0.00  0.00    -0.255 N 
ATOM     26  C   UNL     1      35.269 -22.404 -16.162  0.00  0.00    +0.025 C 
ATOM     27  C   UNL     1      36.772 -22.779 -15.998  0.00  0.00    +0.101 C 
ATOM     28  C   UNL     1      34.628 -23.150 -15.025  0.00  0.00    +0.018 C 
ATOM     29  C   UNL     1      35.585 -23.843 -14.306  0.00  0.00    +0.052 C 
ATOM     30  C   UNL     1      35.325 -24.626 -13.200  0.00  0.00    +0.014 C 
ATOM     31  C   UNL     1      33.309 -23.225 -14.620  0.00  0.00    +0.137 C 
ATOM     32  C   UNL     1      37.972 -24.266 -14.287  0.00  0.00    +0.253 C 
ATOM     33  C   UNL     1      33.998 -24.710 -12.788  0.00  0.00    +0.004 C 
ATOM     34  C   UNL     1      32.998 -24.010 -13.496  0.00  0.00    +0.029 C 
ATOM     35  C   UNL     1      36.468 -25.286 -12.576  0.00  0.00    +0.006 C 
ATOM     36  C   UNL     1      37.703 -25.121 -13.079  0.00  0.00    +0.058 C 
ENDBRANCH  22  26
ENDBRANCH   1  22
TORSDOF 5
ENDMDL
MODEL 4
REMARK VINA RESULT:     -12.0      2.486     11.018
REMARK  Name = 119057475
REMARK  5 active torsions:
REMARK  status: ('A' for Active; 'I' for Inactive)
REMARK    1  A    between atoms: N_1  and  C_22
REMARK    2  A    between atoms: C_2  and  N_8
REMARK    3  A    between atoms: N_8  and  C_11
REMARK    4  A    between atoms: C_11  and  C_16
REMARK    5  A    between atoms: C_22  and  C_26
REMARK                            x       y       z     vdW  Elec       q    Type
REMARK                         _______ _______ _______ _____ _____    ______ ____
ROOT
ATOM      1  N   UNL     1      35.890 -19.151 -22.010  0.00  0.00    +0.387 N 
ATOM      2  C   UNL     1      35.420 -20.686 -19.563  0.00  0.00    -0.066 C 
ATOM      3  C   UNL     1      34.521 -19.382 -21.527  0.00  0.00    -0.079 C 
ATOM      4  C   UNL     1      36.842 -19.081 -20.893  0.00  0.00    -0.079 C 
ATOM      5  C   UNL     1      34.430 -20.686 -20.729  0.00  0.00    -0.044 C 
ATOM      6  C   UNL     1      36.830 -20.374 -20.073  0.00  0.00    -0.044 C 
ATOM      7  H   UNL     1      36.153 -19.942 -22.598  0.00  0.00    -0.080 HD
ENDROOT
BRANCH   2   8
ATOM      8  N   UNL     1      35.387 -21.972 -18.870  0.00  0.00    +0.389 N 
ATOM      9  H   UNL     1      35.722 -21.844 -17.914  0.00  0.00    -0.084 HD
ATOM     10  H   UNL     1      35.986 -22.629 -19.370  0.00  0.00    -0.084 HD
BRANCH   8  11
ATOM     11  C   UNL     1      34.034 -22.506 -18.835  0.00  0.00    -0.032 C 
BRANCH  11  16
ATOM     12  O   UNL     1      30.652 -23.110 -15.401  0.00  0.00    -0.467 OA
ATOM     13  O   UNL     1      32.754 -23.937 -13.619  0.00  0.00    -0.453 OA
ATOM     14  N   UNL     1      34.590 -23.312 -16.604  0.00  0.00    -0.151 NA
ATOM     15  N   UNL     1      34.266 -23.665 -15.330  0.00  0.00    -0.107 NA
ATOM     16  C   UNL     1      33.619 -22.890 -17.440  0.00  0.00    +0.062 C 
ATOM     17  C   UNL     1      32.293 -22.806 -17.066  0.00  0.00    +0.056 C 
ATOM     18  C   UNL     1      31.965 -23.177 -15.773  0.00  0.00    +0.194 C 
ATOM     19  C   UNL     1      32.981 -23.585 -14.926  0.00  0.00    +0.278 C 
ATOM     20  C   UNL     1      30.407 -23.806 -14.175  0.00  0.00    +0.253 C 
ATOM     21  C   UNL     1      31.482 -23.474 -13.159  0.00  0.00    +0.254 C 
ENDBRANCH  11  16
ENDBRANCH   8  11
ENDBRANCH   2   8
BRANCH   1  22
ATOM     22  C   UNL     1      35.950 -17.930 -22.812  0.00  0.00    -0.071 C 
BRANCH  22  26
ATOM     23  F   UNL     1      34.856 -16.486 -20.073  0.00  0.00    -0.204 F 
ATOM     24  O   UNL     1      33.576 -15.227 -26.816  0.00  0.00    -0.270 OA
ATOM     25  N   UNL     1      33.989 -15.565 -24.565  0.00  0.00    -0.255 N 
ATOM     26  C   UNL     1      34.564 -17.330 -23.001  0.00  0.00    +0.025 C 
ATOM     27  C   UNL     1      34.268 -17.005 -24.496  0.00  0.00    +0.101 C 
ATOM     28  C   UNL     1      34.416 -15.984 -22.347  0.00  0.00    +0.018 C 
ATOM     29  C   UNL     1      34.084 -15.027 -23.290  0.00  0.00    +0.052 C 
ATOM     30  C   UNL     1      33.876 -13.691 -23.015  0.00  0.00    +0.014 C 
ATOM     31  C   UNL     1      34.546 -15.599 -21.027  0.00  0.00    +0.137 C 
ATOM     32  C   UNL     1      33.674 -14.803 -25.668  0.00  0.00    +0.253 C 
ATOM     33  C   UNL     1      34.008 -13.294 -21.687  0.00  0.00    +0.004 C 
ATOM     34  C   UNL     1      34.341 -14.247 -20.701  0.00  0.00    +0.029 C 
ATOM     35  C   UNL     1      33.537 -12.830 -24.144  0.00  0.00    +0.006 C 
ATOM     36  C   UNL     1      33.442 -13.344 -25.383  0.00  0.00    +0.058 C 
ENDBRANCH  22  26
ENDBRANCH   1  22
TORSDOF 5
ENDMDL
MODEL 5
REMARK VINA RESULT:     -12.0      2.060      2.803
REMARK  Name = 119057475
REMARK  5 active torsions:
REMARK  status: ('A' for Active; 'I' for Inactive)
REMARK    1  A    between atoms: N_1  and  C_22
REMARK    2  A    between atoms: C_2  and  N_8
REMARK    3  A    between atoms: N_8  and  C_11
REMARK    4  A    between atoms: C_11  and  C_16
REMARK    5  A    between atoms: C_22  and  C_26
REMARK                            x       y       z     vdW  Elec       q    Type
REMARK                         _______ _______ _______ _____ _____    ______ ____
ROOT
ATOM      1  N   UNL     1      34.898 -21.843 -18.803  0.00  0.00    +0.387 N 
ATOM      2  C   UNL     1      34.566 -19.799 -20.870  0.00  0.00    -0.066 C 
ATOM      3  C   UNL     1      36.031 -20.994 -19.199  0.00  0.00    -0.079 C 
ATOM      4  C   UNL     1      33.622 -21.128 -18.944  0.00  0.00    -0.079 C 
ATOM      5  C   UNL     1      35.892 -20.531 -20.652  0.00  0.00    -0.044 C 
ATOM      6  C   UNL     1      33.402 -20.669 -20.388  0.00  0.00    -0.044 C 
ATOM      7  H   UNL     1      34.877 -22.649 -19.428  0.00  0.00    -0.080 HD
ENDROOT
BRANCH   2   8
ATOM      8  N   UNL     1      34.408 -19.447 -22.280  0.00  0.00    +0.389 N 
ATOM      9  H   UNL     1      33.511 -18.979 -22.408  0.00  0.00    -0.084 HD
ATOM     10  H   UNL     1      34.446 -20.301 -22.836  0.00  0.00    -0.084 HD
BRANCH   8  11
ATOM     11  C   UNL     1      35.476 -18.560 -22.715  0.00  0.00    -0.032 C 
BRANCH  11  16
ATOM     12  O   UNL     1      33.684 -15.450 -25.987  0.00  0.00    -0.467 OA
ATOM     13  O   UNL     1      33.622 -13.459 -23.911  0.00  0.00    -0.453 OA
ATOM     14  N   UNL     1      34.887 -16.269 -22.130  0.00  0.00    -0.151 NA
ATOM     15  N   UNL     1      34.426 -15.024 -22.432  0.00  0.00    -0.107 NA
ATOM     16  C   UNL     1      34.953 -17.202 -23.102  0.00  0.00    +0.062 C 
ATOM     17  C   UNL     1      34.563 -16.958 -24.404  0.00  0.00    +0.056 C 
ATOM     18  C   UNL     1      34.084 -15.694 -24.705  0.00  0.00    +0.194 C 
ATOM     19  C   UNL     1      34.047 -14.746 -23.697  0.00  0.00    +0.278 C 
ATOM     20  C   UNL     1      32.931 -14.237 -26.091  0.00  0.00    +0.253 C 
ATOM     21  C   UNL     1      33.605 -13.131 -25.303  0.00  0.00    +0.254 C 
ENDBRANCH  11  16
ENDBRANCH   8  11
ENDBRANCH   2   8
BRANCH   1  22
ATOM     22  C   UNL     1      35.070 -22.319 -17.431  0.00  0.00    -0.071 C 
BRANCH  22  26
ATOM     23  F   UNL     1      36.273 -24.421 -15.214  0.00  0.00    -0.204 F 
ATOM     24  O   UNL     1      29.738 -22.478 -16.702  0.00  0.00    -0.270 OA
ATOM     25  N   UNL     1      31.882 -23.134 -16.131  0.00  0.00    -0.255 N 
ATOM     26  C   UNL     1      34.083 -23.433 -17.111  0.00  0.00    +0.025 C 
ATOM     27  C   UNL     1      32.612 -23.010 -17.400  0.00  0.00    +0.101 C 
ATOM     28  C   UNL     1      34.036 -23.767 -15.645  0.00  0.00    +0.018 C 
ATOM     29  C   UNL     1      32.757 -23.581 -15.152  0.00  0.00    +0.052 C 
ATOM     30  C   UNL     1      32.379 -23.803 -13.843  0.00  0.00    +0.014 C 
ATOM     31  C   UNL     1      35.021 -24.215 -14.786  0.00  0.00    +0.137 C 
ATOM     32  C   UNL     1      30.555 -22.873 -15.874  0.00  0.00    +0.253 C 
ATOM     33  C   UNL     1      33.367 -24.250 -12.970  0.00  0.00    +0.004 C 
ATOM     34  C   UNL     1      34.680 -24.454 -13.444  0.00  0.00    +0.029 C 
ATOM     35  C   UNL     1      30.981 -23.545 -13.508  0.00  0.00    +0.006 C 
ATOM     36  C   UNL     1      30.128 -23.112 -14.451  0.00  0.00    +0.058 C 
ENDBRANCH  22  26
ENDBRANCH   1  22
TORSDOF 5
ENDMDL
MODEL 6
REMARK VINA RESULT:     -11.6      2.648     11.466
REMARK  Name = 119057475
REMARK  5 active torsions:
REMARK  status: ('A' for Active; 'I' for Inactive)
REMARK    1  A    between atoms: N_1  and  C_22
REMARK    2  A    between atoms: C_2  and  N_8
REMARK    3  A    between atoms: N_8  and  C_11
REMARK    4  A    between atoms: C_11  and  C_16
REMARK    5  A    between atoms: C_22  and  C_26
REMARK                            x       y       z     vdW  Elec       q    Type
REMARK                         _______ _______ _______ _____ _____    ______ ____
ROOT
ATOM      1  N   UNL     1      35.666 -18.466 -21.101  0.00  0.00    +0.387 N 
ATOM      2  C   UNL     1      35.697 -21.169 -19.980  0.00  0.00    -0.066 C 
ATOM      3  C   UNL     1      36.938 -19.172 -20.894  0.00  0.00    -0.079 C 
ATOM      4  C   UNL     1      34.578 -19.408 -21.398  0.00  0.00    -0.079 C 
ATOM      5  C   UNL     1      36.833 -20.173 -19.740  0.00  0.00    -0.044 C 
ATOM      6  C   UNL     1      34.393 -20.418 -20.262  0.00  0.00    -0.044 C 
ATOM      7  H   UNL     1      35.432 -17.981 -20.234  0.00  0.00    -0.080 HD
ENDROOT
BRANCH   2   8
ATOM      8  N   UNL     1      35.551 -22.057 -18.828  0.00  0.00    +0.389 N 
ATOM      9  H   UNL     1      35.773 -23.012 -19.113  0.00  0.00    -0.084 HD
ATOM     10  H   UNL     1      34.589 -22.001 -18.492  0.00  0.00    -0.084 HD
BRANCH   8  11
ATOM     11  C   UNL     1      36.445 -21.660 -17.752  0.00  0.00    -0.032 C 
BRANCH  11  16
ATOM     12  O   UNL     1      38.359 -23.827 -13.848  0.00  0.00    -0.467 OA
ATOM     13  O   UNL     1      35.831 -25.149 -13.469  0.00  0.00    -0.453 OA
ATOM     14  N   UNL     1      35.152 -23.183 -16.359  0.00  0.00    -0.151 NA
ATOM     15  N   UNL     1      35.010 -24.032 -15.304  0.00  0.00    -0.107 NA
ATOM     16  C   UNL     1      36.342 -22.583 -16.568  0.00  0.00    +0.062 C 
ATOM     17  C   UNL     1      37.435 -22.782 -15.749  0.00  0.00    +0.056 C 
ATOM     18  C   UNL     1      37.284 -23.637 -14.670  0.00  0.00    +0.194 C 
ATOM     19  C   UNL     1      36.062 -24.259 -14.489  0.00  0.00    +0.278 C 
ATOM     20  C   UNL     1      37.987 -24.465 -12.623  0.00  0.00    +0.253 C 
ATOM     21  C   UNL     1      37.051 -25.626 -12.897  0.00  0.00    +0.254 C 
ENDBRANCH  11  16
ENDBRANCH   8  11
ENDBRANCH   2   8
BRANCH   1  22
ATOM     22  C   UNL     1      35.795 -17.479 -22.171  0.00  0.00    -0.071 C 
BRANCH  22  26
ATOM     23  F   UNL     1      34.457 -15.724 -19.739  0.00  0.00    -0.204 F 
ATOM     24  O   UNL     1      33.826 -15.284 -26.675  0.00  0.00    -0.270 OA
ATOM     25  N   UNL     1      34.023 -15.349 -24.371  0.00  0.00    -0.255 N 
ATOM     26  C   UNL     1      34.437 -16.912 -22.560  0.00  0.00    +0.025 C 
ATOM     27  C   UNL     1      34.285 -16.769 -24.104  0.00  0.00    +0.101 C 
ATOM     28  C   UNL     1      34.237 -15.498 -22.088  0.00  0.00    +0.018 C 
ATOM     29  C   UNL     1      34.002 -14.662 -23.165  0.00  0.00    +0.052 C 
ATOM     30  C   UNL     1      33.777 -13.304 -23.072  0.00  0.00    +0.014 C 
ATOM     31  C   UNL     1      34.244 -14.958 -20.816  0.00  0.00    +0.137 C 
ATOM     32  C   UNL     1      33.818 -14.725 -25.581  0.00  0.00    +0.253 C 
ATOM     33  C   UNL     1      33.786 -12.751 -21.794  0.00  0.00    +0.004 C 
ATOM     34  C   UNL     1      34.019 -13.578 -20.675  0.00  0.00    +0.029 C 
ATOM     35  C   UNL     1      33.551 -12.586 -24.323  0.00  0.00    +0.006 C 
ATOM     36  C   UNL     1      33.570 -13.244 -25.494  0.00  0.00    +0.058 C 
ENDBRANCH  22  26
ENDBRANCH   1  22
TORSDOF 5
ENDMDL
MODEL 7
REMARK VINA RESULT:     -11.5      4.193     11.675
REMARK  Name = 119057475
REMARK  5 active torsions:
REMARK  status: ('A' for Active; 'I' for Inactive)
REMARK    1  A    between atoms: N_1  and  C_22
REMARK    2  A    between atoms: C_2  and  N_8
REMARK    3  A    between atoms: N_8  and  C_11
REMARK    4  A    between atoms: C_11  and  C_16
REMARK    5  A    between atoms: C_22  and  C_26
REMARK                            x       y       z     vdW  Elec       q    Type
REMARK                         _______ _______ _______ _____ _____    ______ ____
ROOT
ATOM      1  N   UNL     1      34.161 -14.408 -22.666  0.00  0.00    +0.387 N 
ATOM      2  C   UNL     1      34.903 -17.238 -22.724  0.00  0.00    -0.066 C 
ATOM      3  C   UNL     1      34.848 -15.021 -21.521  0.00  0.00    -0.079 C 
ATOM      4  C   UNL     1      34.557 -15.048 -23.929  0.00  0.00    -0.079 C 
ATOM      5  C   UNL     1      34.536 -16.517 -21.426  0.00  0.00    -0.044 C 
ATOM      6  C   UNL     1      34.235 -16.545 -23.915  0.00  0.00    -0.044 C 
ATOM      7  H   UNL     1      33.159 -14.550 -22.543  0.00  0.00    -0.080 HD
ENDROOT
BRANCH   2   8
ATOM      8  N   UNL     1      34.513 -18.644 -22.650  0.00  0.00    +0.389 N 
ATOM      9  H   UNL     1      34.528 -19.044 -23.589  0.00  0.00    -0.084 HD
ATOM     10  H   UNL     1      33.575 -18.703 -22.255  0.00  0.00    -0.084 HD
BRANCH   8  11
ATOM     11  C   UNL     1      35.426 -19.391 -21.799  0.00  0.00    -0.032 C 
BRANCH  11  16
ATOM     12  O   UNL     1      35.366 -22.418 -18.000  0.00  0.00    -0.467 OA
ATOM     13  O   UNL     1      32.493 -22.304 -18.084  0.00  0.00    -0.453 OA
ATOM     14  N   UNL     1      33.345 -20.123 -20.766  0.00  0.00    -0.151 NA
ATOM     15  N   UNL     1      32.636 -20.837 -19.849  0.00  0.00    -0.107 NA
ATOM     16  C   UNL     1      34.692 -20.195 -20.759  0.00  0.00    +0.062 C 
ATOM     17  C   UNL     1      35.398 -20.958 -19.850  0.00  0.00    +0.056 C 
ATOM     18  C   UNL     1      34.673 -21.672 -18.911  0.00  0.00    +0.194 C 
ATOM     19  C   UNL     1      33.292 -21.602 -18.951  0.00  0.00    +0.278 C 
ATOM     20  C   UNL     1      34.536 -22.843 -16.915  0.00  0.00    +0.253 C 
ATOM     21  C   UNL     1      33.210 -23.359 -17.438  0.00  0.00    +0.254 C 
ENDBRANCH  11  16
ENDBRANCH   8  11
ENDBRANCH   2   8
BRANCH   1  22
ATOM     22  C   UNL     1      34.428 -12.971 -22.715  0.00  0.00    -0.071 C 
BRANCH  22  26
ATOM     23  F   UNL     1      32.013 -13.821 -20.659  0.00  0.00    -0.204 F 
ATOM     24  O   UNL     1      33.405  -7.836 -23.965  0.00  0.00    -0.270 OA
ATOM     25  N   UNL     1      32.910  -9.777 -22.808  0.00  0.00    -0.255 N 
ATOM     26  C   UNL     1      33.152 -12.186 -22.983  0.00  0.00    +0.025 C 
ATOM     27  C   UNL     1      33.439 -10.827 -23.688  0.00  0.00    +0.101 C 
ATOM     28  C   UNL     1      32.459 -11.750 -21.721  0.00  0.00    +0.018 C 
ATOM     29  C   UNL     1      32.350 -10.371 -21.687  0.00  0.00    +0.052 C 
ATOM     30  C   UNL     1      31.762  -9.654 -20.664  0.00  0.00    +0.014 C 
ATOM     31  C   UNL     1      31.943 -12.484 -20.671  0.00  0.00    +0.137 C 
ATOM     32  C   UNL     1      32.925  -8.413 -22.993  0.00  0.00    +0.253 C 
ATOM     33  C   UNL     1      31.243 -10.387 -19.600  0.00  0.00    +0.004 C 
ATOM     34  C   UNL     1      31.334 -11.795 -19.608  0.00  0.00    +0.029 C 
ATOM     35  C   UNL     1      31.745  -8.201 -20.804  0.00  0.00    +0.006 C 
ATOM     36  C   UNL     1      32.286  -7.618 -21.887  0.00  0.00    +0.058 C 
ENDBRANCH  22  26
ENDBRANCH   1  22
TORSDOF 5
ENDMDL
MODEL 8
REMARK VINA RESULT:     -11.4      2.568     11.184
REMARK  Name = 119057475
REMARK  5 active torsions:
REMARK  status: ('A' for Active; 'I' for Inactive)
REMARK    1  A    between atoms: N_1  and  C_22
REMARK    2  A    between atoms: C_2  and  N_8
REMARK    3  A    between atoms: N_8  and  C_11
REMARK    4  A    between atoms: C_11  and  C_16
REMARK    5  A    between atoms: C_22  and  C_26
REMARK                            x       y       z     vdW  Elec       q    Type
REMARK                         _______ _______ _______ _____ _____    ______ ____
ROOT
ATOM      1  N   UNL     1      34.311 -19.905 -20.617  0.00  0.00    +0.387 N 
ATOM      2  C   UNL     1      34.850 -22.076 -18.731  0.00  0.00    -0.066 C 
ATOM      3  C   UNL     1      35.617 -20.580 -20.612  0.00  0.00    -0.079 C 
ATOM      4  C   UNL     1      33.237 -20.822 -20.212  0.00  0.00    -0.079 C 
ATOM      5  C   UNL     1      35.948 -21.131 -19.222  0.00  0.00    -0.044 C 
ATOM      6  C   UNL     1      33.487 -21.381 -18.808  0.00  0.00    -0.044 C 
ATOM      7  H   UNL     1      34.349 -19.145 -19.938  0.00  0.00    -0.080 HD
ENDROOT
BRANCH   2   8
ATOM      8  N   UNL     1      35.135 -22.518 -17.367  0.00  0.00    +0.389 N 
ATOM      9  H   UNL     1      35.406 -21.711 -16.805  0.00  0.00    -0.084 HD
ATOM     10  H   UNL     1      35.892 -23.201 -17.396  0.00  0.00    -0.084 HD
BRANCH   8  11
ATOM     11  C   UNL     1      33.964 -23.144 -16.771  0.00  0.00    -0.032 C 
BRANCH  11  16
ATOM     12  O   UNL     1      36.753 -23.275 -12.796  0.00  0.00    -0.467 OA
ATOM     13  O   UNL     1      34.539 -24.474 -11.405  0.00  0.00    -0.453 OA
ATOM     14  N   UNL     1      33.140 -24.002 -14.645  0.00  0.00    -0.151 NA
ATOM     15  N   UNL     1      33.289 -24.320 -13.330  0.00  0.00    -0.107 NA
ATOM     16  C   UNL     1      34.182 -23.471 -15.318  0.00  0.00    +0.062 C 
ATOM     17  C   UNL     1      35.405 -23.220 -14.729  0.00  0.00    +0.056 C 
ATOM     18  C   UNL     1      35.550 -23.533 -13.388  0.00  0.00    +0.194 C 
ATOM     19  C   UNL     1      34.475 -24.099 -12.724  0.00  0.00    +0.278 C 
ATOM     20  C   UNL     1      36.673 -23.345 -11.369  0.00  0.00    +0.253 C 
ATOM     21  C   UNL     1      35.889 -24.572 -10.946  0.00  0.00    +0.254 C 
ENDBRANCH  11  16
ENDBRANCH   8  11
ENDBRANCH   2   8
BRANCH   1  22
ATOM     22  C   UNL     1      34.032 -19.341 -21.937  0.00  0.00    -0.071 C 
BRANCH  22  26
ATOM     23  F   UNL     1      34.460 -18.918 -25.165  0.00  0.00    -0.204 F 
ATOM     24  O   UNL     1      34.628 -14.422 -19.831  0.00  0.00    -0.270 OA
ATOM     25  N   UNL     1      34.546 -15.852 -21.648  0.00  0.00    -0.255 N 
ATOM     26  C   UNL     1      34.958 -18.171 -22.239  0.00  0.00    +0.025 C 
ATOM     27  C   UNL     1      34.984 -17.133 -21.078  0.00  0.00    +0.101 C 
ATOM     28  C   UNL     1      34.487 -17.338 -23.399  0.00  0.00    +0.018 C 
ATOM     29  C   UNL     1      34.276 -16.031 -22.997  0.00  0.00    +0.052 C 
ATOM     30  C   UNL     1      33.843 -15.014 -23.824  0.00  0.00    +0.014 C 
ATOM     31  C   UNL     1      34.262 -17.671 -24.721  0.00  0.00    +0.137 C 
ATOM     32  C   UNL     1      34.403 -14.635 -21.020  0.00  0.00    +0.253 C 
ATOM     33  C   UNL     1      33.611 -15.343 -25.156  0.00  0.00    +0.004 C 
ATOM     34  C   UNL     1      33.821 -16.666 -25.599  0.00  0.00    +0.029 C 
ATOM     35  C   UNL     1      33.674 -13.698 -23.215  0.00  0.00    +0.006 C 
ATOM     36  C   UNL     1      33.933 -13.517 -21.909  0.00  0.00    +0.058 C 
ENDBRANCH  22  26
ENDBRANCH   1  22
TORSDOF 5
ENDMDL
MODEL 9
REMARK VINA RESULT:     -11.3      4.762     12.394
REMARK  Name = 119057475
REMARK  5 active torsions:
REMARK  status: ('A' for Active; 'I' for Inactive)
REMARK    1  A    between atoms: N_1  and  C_22
REMARK    2  A    between atoms: C_2  and  N_8
REMARK    3  A    between atoms: N_8  and  C_11
REMARK    4  A    between atoms: C_11  and  C_16
REMARK    5  A    between atoms: C_22  and  C_26
REMARK                            x       y       z     vdW  Elec       q    Type
REMARK                         _______ _______ _______ _____ _____    ______ ____
ROOT
ATOM      1  N   UNL     1      33.446 -14.095 -24.136  0.00  0.00    +0.387 N 
ATOM      2  C   UNL     1      34.514 -16.819 -24.083  0.00  0.00    -0.066 C 
ATOM      3  C   UNL     1      34.546 -14.446 -23.227  0.00  0.00    -0.079 C 
ATOM      4  C   UNL     1      33.494 -14.899 -25.365  0.00  0.00    -0.079 C 
ATOM      5  C   UNL     1      34.493 -15.927 -22.841  0.00  0.00    -0.044 C 
ATOM      6  C   UNL     1      33.405 -16.395 -25.051  0.00  0.00    -0.044 C 
ATOM      7  H   UNL     1      32.568 -14.302 -23.659  0.00  0.00    -0.080 HD
ENDROOT
BRANCH   2   8
ATOM      8  N   UNL     1      34.367 -18.222 -23.702  0.00  0.00    +0.389 N 
ATOM      9  H   UNL     1      34.505 -18.808 -24.526  0.00  0.00    -0.084 HD
ATOM     10  H   UNL     1      33.431 -18.361 -23.321  0.00  0.00    -0.084 HD
BRANCH   8  11
ATOM     11  C   UNL     1      35.343 -18.587 -22.687  0.00  0.00    -0.032 C 
BRANCH  11  16
ATOM     12  O   UNL     1      35.767 -21.630 -18.925  0.00  0.00    -0.467 OA
ATOM     13  O   UNL     1      32.896 -21.803 -18.871  0.00  0.00    -0.453 OA
ATOM     14  N   UNL     1      33.397 -19.530 -21.565  0.00  0.00    -0.151 NA
ATOM     15  N   UNL     1      32.807 -20.317 -20.624  0.00  0.00    -0.107 NA
ATOM     16  C   UNL     1      34.744 -19.467 -21.623  0.00  0.00    +0.062 C 
ATOM     17  C   UNL     1      35.564 -20.161 -20.757  0.00  0.00    +0.056 C 
ATOM     18  C   UNL     1      34.961 -20.951 -19.793  0.00  0.00    +0.194 C 
ATOM     19  C   UNL     1      33.579 -21.019 -19.768  0.00  0.00    +0.278 C 
ATOM     20  C   UNL     1      35.036 -22.143 -17.806  0.00  0.00    +0.253 C 
ATOM     21  C   UNL     1      33.744 -22.785 -18.272  0.00  0.00    +0.254 C 
ENDBRANCH  11  16
ENDBRANCH   8  11
ENDBRANCH   2   8
BRANCH   1  22
ATOM     22  C   UNL     1      33.481 -12.668 -24.455  0.00  0.00    -0.071 C 
BRANCH  22  26
ATOM     23  F   UNL     1      35.852 -10.513 -25.171  0.00  0.00    -0.204 F 
ATOM     24  O   UNL     1      30.743 -10.388 -20.420  0.00  0.00    -0.270 OA
ATOM     25  N   UNL     1      32.433 -10.348 -21.999  0.00  0.00    -0.255 N 
ATOM     26  C   UNL     1      33.886 -11.845 -23.241  0.00  0.00    +0.025 C 
ATOM     27  C   UNL     1      32.747 -11.771 -22.180  0.00  0.00    +0.101 C 
ATOM     28  C   UNL     1      34.111 -10.395 -23.568  0.00  0.00    +0.018 C 
ATOM     29  C   UNL     1      33.258  -9.598 -22.825  0.00  0.00    +0.052 C 
ATOM     30  C   UNL     1      33.214  -8.220 -22.889  0.00  0.00    +0.014 C 
ATOM     31  C   UNL     1      34.998  -9.789 -24.437  0.00  0.00    +0.137 C 
ATOM     32  C   UNL     1      31.496  -9.773 -21.170  0.00  0.00    +0.253 C 
ATOM     33  C   UNL     1      34.102  -7.603 -23.766  0.00  0.00    +0.004 C 
ATOM     34  C   UNL     1      34.988  -8.387 -24.534  0.00  0.00    +0.029 C 
ATOM     35  C   UNL     1      32.241  -7.551 -22.031  0.00  0.00    +0.006 C 
ATOM     36  C   UNL     1      31.438  -8.271 -21.228  0.00  0.00    +0.058 C 
ENDBRANCH  22  26
ENDBRANCH   1  22
TORSDOF 5
ENDMDL
