MODEL 1
REMARK VINA RESULT:     -11.5      0.000      0.000
REMARK  Name = 447653
REMARK  8 active torsions:
REMARK  status: ('A' for Active; 'I' for Inactive)
REMARK    1  A    between atoms: N_2  and  C_20
REMARK    2  A    between atoms: C_4  and  C_11
REMARK    3  A    between atoms: C_19  and  O_25
REMARK    4  A    between atoms: O_25  and  C_26
REMARK    5  A    between atoms: C_26  and  C_27
REMARK    6  A    between atoms: C_27  and  O_28
REMARK    7  A    between atoms: C_27  and  C_30
REMARK    8  A    between atoms: C_30  and  N_31
REMARK                            x       y       z     vdW  Elec       q    Type
REMARK                         _______ _______ _______ _____ _____    ______ ____
ROOT
ATOM      1  N   UNL     1      34.388 -22.911 -16.687  0.00  0.00    -0.340 NA
ATOM      2  N   UNL     1      32.643 -22.168 -18.067  0.00  0.00    -0.247 N 
ATOM      3  N   UNL     1      32.092 -23.421 -16.161  0.00  0.00    -0.170 NA
ATOM      4  C   UNL     1      34.747 -23.588 -15.579  0.00  0.00    +0.148 C 
ATOM      5  C   UNL     1      33.859 -24.200 -14.724  0.00  0.00    +0.052 C 
ATOM      6  C   UNL     1      33.061 -22.868 -16.915  0.00  0.00    +0.148 C 
ATOM      7  C   UNL     1      32.528 -24.082 -15.069  0.00  0.00    +0.114 C 
ATOM      8  H   UNL     1      31.666 -22.161 -18.193  0.00  0.00    +0.165 HD
ENDROOT
BRANCH   4  11
ATOM      9  N   UNL     1      36.835 -24.694 -14.777  0.00  0.00    -0.251 N 
ATOM     10  N   UNL     1      38.381 -23.137 -15.207  0.00  0.00    -0.393 NA
ATOM     11  C   UNL     1      36.171 -23.632 -15.338  0.00  0.00    +0.181 C 
ATOM     12  C   UNL     1      38.181 -24.343 -14.718  0.00  0.00    +0.187 C 
ATOM     13  C   UNL     1      37.141 -22.692 -15.592  0.00  0.00    +0.114 C 
ATOM     14  C   UNL     1      36.336 -25.914 -14.330  0.00  0.00    +0.068 C 
ATOM     15  C   UNL     1      39.076 -25.305 -14.164  0.00  0.00    +0.048 C 
ATOM     16  C   UNL     1      36.991 -21.355 -16.191  0.00  0.00    +0.064 C 
ATOM     17  C   UNL     1      37.186 -26.814 -13.809  0.00  0.00    +0.016 C 
ATOM     18  C   UNL     1      38.600 -26.487 -13.730  0.00  0.00    +0.005 C 
ENDBRANCH   4  11
BRANCH   2  20
ATOM     19  C   UNL     1      34.743 -20.102 -21.061  0.00  0.00    +0.139 C 
ATOM     20  C   UNL     1      33.347 -21.476 -19.070  0.00  0.00    +0.058 C 
ATOM     21  C   UNL     1      35.434 -20.891 -20.141  0.00  0.00    +0.038 C 
ATOM     22  C   UNL     1      33.354 -19.999 -20.985  0.00  0.00    +0.038 C 
ATOM     23  C   UNL     1      34.737 -21.578 -19.147  0.00  0.00    +0.018 C 
ATOM     24  C   UNL     1      32.656 -20.685 -19.991  0.00  0.00    +0.018 C 
BRANCH  19  25
ATOM     25  O   UNL     1      35.424 -19.432 -22.031  0.00  0.00    -0.473 OA
BRANCH  25  26
ATOM     26  C   UNL     1      34.662 -18.924 -23.125  0.00  0.00    +0.232 C 
BRANCH  26  27
ATOM     27  C   UNL     1      34.790 -17.403 -23.150  0.00  0.00    +0.133 C 
BRANCH  27  28
ATOM     28  O   UNL     1      36.116 -17.047 -22.749  0.00  0.00    -0.383 OA
ATOM     29  H   UNL     1      36.643 -17.851 -22.621  0.00  0.00    +0.210 HD
ENDBRANCH  27  28
BRANCH  27  30
ATOM     30  C   UNL     1      34.530 -16.796 -24.530  0.00  0.00    -0.044 C 
BRANCH  30  31
ATOM     31  N   UNL     1      33.561 -15.710 -24.478  0.00  0.00    +0.386 N 
ATOM     32  C   UNL     1      33.947 -14.722 -23.467  0.00  0.00    -0.101 C 
ATOM     33  C   UNL     1      33.431 -15.069 -25.788  0.00  0.00    -0.101 C 
ATOM     34  H   UNL     1      32.658 -16.104 -24.217  0.00  0.00    -0.080 HD
ENDBRANCH  30  31
ENDBRANCH  27  30
ENDBRANCH  26  27
ENDBRANCH  25  26
ENDBRANCH  19  25
ENDBRANCH   2  20
TORSDOF 8
ENDMDL
MODEL 2
REMARK VINA RESULT:     -10.8      1.539      1.725
REMARK  Name = 447653
REMARK  8 active torsions:
REMARK  status: ('A' for Active; 'I' for Inactive)
REMARK    1  A    between atoms: N_2  and  C_20
REMARK    2  A    between atoms: C_4  and  C_11
REMARK    3  A    between atoms: C_19  and  O_25
REMARK    4  A    between atoms: O_25  and  C_26
REMARK    5  A    between atoms: C_26  and  C_27
REMARK    6  A    between atoms: C_27  and  O_28
REMARK    7  A    between atoms: C_27  and  C_30
REMARK    8  A    between atoms: C_30  and  N_31
REMARK                            x       y       z     vdW  Elec       q    Type
REMARK                         _______ _______ _______ _____ _____    ______ ____
ROOT
ATOM      1  N   UNL     1      33.814 -22.876 -16.160  0.00  0.00    -0.340 NA
ATOM      2  N   UNL     1      32.345 -22.441 -17.937  0.00  0.00    -0.247 N 
ATOM      3  N   UNL     1      31.523 -23.619 -16.080  0.00  0.00    -0.170 NA
ATOM      4  C   UNL     1      33.990 -23.428 -14.944  0.00  0.00    +0.148 C 
ATOM      5  C   UNL     1      33.004 -24.081 -14.241  0.00  0.00    +0.052 C 
ATOM      6  C   UNL     1      32.571 -23.006 -16.663  0.00  0.00    +0.148 C 
ATOM      7  C   UNL     1      31.776 -24.147 -14.866  0.00  0.00    +0.114 C 
ATOM      8  H   UNL     1      31.423 -22.560 -18.264  0.00  0.00    +0.165 HD
ENDROOT
BRANCH   4  11
ATOM      9  N   UNL     1      35.688 -23.607 -13.125  0.00  0.00    -0.251 N 
ATOM     10  N   UNL     1      37.535 -22.856 -14.137  0.00  0.00    -0.393 NA
ATOM     11  C   UNL     1      35.325 -23.286 -14.408  0.00  0.00    +0.181 C 
ATOM     12  C   UNL     1      37.047 -23.326 -13.008  0.00  0.00    +0.187 C 
ATOM     13  C   UNL     1      36.474 -22.829 -15.007  0.00  0.00    +0.114 C 
ATOM     14  C   UNL     1      34.914 -24.116 -12.086  0.00  0.00    +0.068 C 
ATOM     15  C   UNL     1      37.654 -23.584 -11.744  0.00  0.00    +0.048 C 
ATOM     16  C   UNL     1      36.664 -22.348 -16.386  0.00  0.00    +0.064 C 
ATOM     17  C   UNL     1      35.493 -24.356 -10.899  0.00  0.00    +0.016 C 
ATOM     18  C   UNL     1      36.911 -24.077 -10.734  0.00  0.00    +0.005 C 
ENDBRANCH   4  11
BRANCH   2  20
ATOM     19  C   UNL     1      34.825 -20.349 -20.603  0.00  0.00    +0.139 C 
ATOM     20  C   UNL     1      33.176 -21.741 -18.830  0.00  0.00    +0.058 C 
ATOM     21  C   UNL     1      35.375 -21.285 -19.727  0.00  0.00    +0.038 C 
ATOM     22  C   UNL     1      33.451 -20.108 -20.592  0.00  0.00    +0.038 C 
ATOM     23  C   UNL     1      34.551 -21.981 -18.842  0.00  0.00    +0.018 C 
ATOM     24  C   UNL     1      32.628 -20.802 -19.707  0.00  0.00    +0.018 C 
BRANCH  19  25
ATOM     25  O   UNL     1      35.629 -19.670 -21.467  0.00  0.00    -0.473 OA
BRANCH  25  26
ATOM     26  C   UNL     1      35.064 -19.298 -22.723  0.00  0.00    +0.232 C 
BRANCH  26  27
ATOM     27  C   UNL     1      34.916 -17.779 -22.765  0.00  0.00    +0.133 C 
BRANCH  27  28
ATOM     28  O   UNL     1      36.216 -17.189 -22.674  0.00  0.00    -0.383 OA
ATOM     29  H   UNL     1      36.396 -16.944 -21.753  0.00  0.00    +0.210 HD
ENDBRANCH  27  28
BRANCH  27  30
ATOM     30  C   UNL     1      34.251 -17.271 -24.047  0.00  0.00    -0.044 C 
BRANCH  30  31
ATOM     31  N   UNL     1      34.466 -15.845 -24.247  0.00  0.00    +0.386 N 
ATOM     32  C   UNL     1      33.811 -15.392 -25.476  0.00  0.00    -0.101 C 
ATOM     33  C   UNL     1      33.972 -15.082 -23.099  0.00  0.00    -0.101 C 
ATOM     34  H   UNL     1      35.469 -15.685 -24.337  0.00  0.00    -0.080 HD
ENDBRANCH  30  31
ENDBRANCH  27  30
ENDBRANCH  26  27
ENDBRANCH  25  26
ENDBRANCH  19  25
ENDBRANCH   2  20
TORSDOF 8
ENDMDL
MODEL 3
REMARK VINA RESULT:     -10.3      1.941      2.722
REMARK  Name = 447653
REMARK  8 active torsions:
REMARK  status: ('A' for Active; 'I' for Inactive)
REMARK    1  A    between atoms: N_2  and  C_20
REMARK    2  A    between atoms: C_4  and  C_11
REMARK    3  A    between atoms: C_19  and  O_25
REMARK    4  A    between atoms: O_25  and  C_26
REMARK    5  A    between atoms: C_26  and  C_27
REMARK    6  A    between atoms: C_27  and  O_28
REMARK    7  A    between atoms: C_27  and  C_30
REMARK    8  A    between atoms: C_30  and  N_31
REMARK                            x       y       z     vdW  Elec       q    Type
REMARK                         _______ _______ _______ _____ _____    ______ ____
ROOT
ATOM      1  N   UNL     1      34.039 -23.896 -15.373  0.00  0.00    -0.340 NA
ATOM      2  N   UNL     1      32.549 -22.794 -16.811  0.00  0.00    -0.247 N 
ATOM      3  N   UNL     1      31.667 -23.911 -14.946  0.00  0.00    -0.170 NA
ATOM      4  C   UNL     1      34.200 -24.639 -14.261  0.00  0.00    +0.148 C 
ATOM      5  C   UNL     1      33.168 -25.052 -13.450  0.00  0.00    +0.052 C 
ATOM      6  C   UNL     1      32.761 -23.572 -15.653  0.00  0.00    +0.148 C 
ATOM      7  C   UNL     1      31.907 -24.654 -13.847  0.00  0.00    +0.114 C 
ATOM      8  H   UNL     1      31.602 -22.580 -16.976  0.00  0.00    +0.165 HD
ENDROOT
BRANCH   4  11
ATOM      9  N   UNL     1      36.340 -24.374 -13.006  0.00  0.00    -0.251 N 
ATOM     10  N   UNL     1      37.628 -25.941 -13.947  0.00  0.00    -0.393 NA
ATOM     11  C   UNL     1      35.571 -24.985 -13.964  0.00  0.00    +0.181 C 
ATOM     12  C   UNL     1      37.587 -24.992 -13.035  0.00  0.00    +0.187 C 
ATOM     13  C   UNL     1      36.384 -25.942 -14.525  0.00  0.00    +0.114 C 
ATOM     14  C   UNL     1      36.014 -23.336 -12.138  0.00  0.00    +0.068 C 
ATOM     15  C   UNL     1      38.566 -24.517 -12.113  0.00  0.00    +0.048 C 
ATOM     16  C   UNL     1      36.073 -26.893 -15.605  0.00  0.00    +0.064 C 
ATOM     17  C   UNL     1      36.941 -22.894 -11.273  0.00  0.00    +0.016 C 
ATOM     18  C   UNL     1      38.257 -23.513 -11.270  0.00  0.00    +0.005 C 
ENDBRANCH   4  11
BRANCH   2  20
ATOM     19  C   UNL     1      35.161 -21.205 -19.692  0.00  0.00    +0.139 C 
ATOM     20  C   UNL     1      33.425 -22.262 -17.777  0.00  0.00    +0.058 C 
ATOM     21  C   UNL     1      35.671 -21.898 -18.594  0.00  0.00    +0.038 C 
ATOM     22  C   UNL     1      33.783 -21.039 -19.832  0.00  0.00    +0.038 C 
ATOM     23  C   UNL     1      34.804 -22.426 -17.637  0.00  0.00    +0.018 C 
ATOM     24  C   UNL     1      32.916 -21.567 -18.876  0.00  0.00    +0.018 C 
BRANCH  19  25
ATOM     25  O   UNL     1      36.008 -20.690 -20.625  0.00  0.00    -0.473 OA
BRANCH  25  26
ATOM     26  C   UNL     1      36.815 -19.583 -20.227  0.00  0.00    +0.232 C 
BRANCH  26  27
ATOM     27  C   UNL     1      36.848 -18.564 -21.363  0.00  0.00    +0.133 C 
BRANCH  27  28
ATOM     28  O   UNL     1      38.201 -18.409 -21.801  0.00  0.00    -0.383 OA
ATOM     29  H   UNL     1      38.239 -18.484 -22.767  0.00  0.00    +0.210 HD
ENDBRANCH  27  28
BRANCH  27  30
ATOM     30  C   UNL     1      36.000 -18.974 -22.570  0.00  0.00    -0.044 C 
BRANCH  30  31
ATOM     31  N   UNL     1      34.746 -18.237 -22.633  0.00  0.00    +0.386 N 
ATOM     32  C   UNL     1      34.974 -16.808 -22.404  0.00  0.00    -0.101 C 
ATOM     33  C   UNL     1      34.089 -18.444 -23.926  0.00  0.00    -0.101 C 
ATOM     34  H   UNL     1      34.134 -18.589 -21.897  0.00  0.00    -0.080 HD
ENDBRANCH  30  31
ENDBRANCH  27  30
ENDBRANCH  26  27
ENDBRANCH  25  26
ENDBRANCH  19  25
ENDBRANCH   2  20
TORSDOF 8
ENDMDL
MODEL 4
REMARK VINA RESULT:      -9.9      1.779      3.947
REMARK  Name = 447653
REMARK  8 active torsions:
REMARK  status: ('A' for Active; 'I' for Inactive)
REMARK    1  A    between atoms: N_2  and  C_20
REMARK    2  A    between atoms: C_4  and  C_11
REMARK    3  A    between atoms: C_19  and  O_25
REMARK    4  A    between atoms: O_25  and  C_26
REMARK    5  A    between atoms: C_26  and  C_27
REMARK    6  A    between atoms: C_27  and  O_28
REMARK    7  A    between atoms: C_27  and  C_30
REMARK    8  A    between atoms: C_30  and  N_31
REMARK                            x       y       z     vdW  Elec       q    Type
REMARK                         _______ _______ _______ _____ _____    ______ ____
ROOT
ATOM      1  N   UNL     1      35.094 -22.197 -17.236  0.00  0.00    -0.340 NA
ATOM      2  N   UNL     1      36.869 -21.241 -18.435  0.00  0.00    -0.247 N 
ATOM      3  N   UNL     1      37.371 -22.458 -16.492  0.00  0.00    -0.170 NA
ATOM      4  C   UNL     1      34.708 -22.928 -16.173  0.00  0.00    +0.148 C 
ATOM      5  C   UNL     1      35.573 -23.451 -15.239  0.00  0.00    +0.052 C 
ATOM      6  C   UNL     1      36.423 -22.003 -17.334  0.00  0.00    +0.148 C 
ATOM      7  C   UNL     1      36.909 -23.180 -15.452  0.00  0.00    +0.114 C 
ATOM      8  H   UNL     1      37.847 -21.126 -18.467  0.00  0.00    +0.165 HD
ENDROOT
BRANCH   4  11
ATOM      9  N   UNL     1      32.660 -23.793 -15.042  0.00  0.00    -0.251 N 
ATOM     10  N   UNL     1      31.044 -23.147 -16.447  0.00  0.00    -0.393 NA
ATOM     11  C   UNL     1      33.281 -23.134 -16.071  0.00  0.00    +0.181 C 
ATOM     12  C   UNL     1      31.295 -23.776 -15.317  0.00  0.00    +0.187 C 
ATOM     13  C   UNL     1      32.270 -22.748 -16.919  0.00  0.00    +0.114 C 
ATOM     14  C   UNL     1      33.210 -24.390 -13.912  0.00  0.00    +0.068 C 
ATOM     15  C   UNL     1      30.436 -24.412 -14.373  0.00  0.00    +0.048 C 
ATOM     16  C   UNL     1      32.365 -22.005 -18.186  0.00  0.00    +0.064 C 
ATOM     17  C   UNL     1      32.395 -24.987 -13.027  0.00  0.00    +0.016 C 
ATOM     18  C   UNL     1      30.962 -24.991 -13.277  0.00  0.00    +0.005 C 
ENDBRANCH   4  11
BRANCH   2  20
ATOM     19  C   UNL     1      34.845 -19.374 -21.607  0.00  0.00    +0.139 C 
ATOM     20  C   UNL     1      36.192 -20.616 -19.499  0.00  0.00    +0.058 C 
ATOM     21  C   UNL     1      36.168 -19.032 -21.325  0.00  0.00    +0.038 C 
ATOM     22  C   UNL     1      34.195 -20.336 -20.834  0.00  0.00    +0.038 C 
ATOM     23  C   UNL     1      36.840 -19.652 -20.272  0.00  0.00    +0.018 C 
ATOM     24  C   UNL     1      34.867 -20.956 -19.781  0.00  0.00    +0.018 C 
BRANCH  19  25
ATOM     25  O   UNL     1      34.189 -18.768 -22.635  0.00  0.00    -0.473 OA
BRANCH  25  26
ATOM     26  C   UNL     1      34.989 -18.111 -23.616  0.00  0.00    +0.232 C 
BRANCH  26  27
ATOM     27  C   UNL     1      34.668 -16.618 -23.595  0.00  0.00    +0.133 C 
BRANCH  27  28
ATOM     28  O   UNL     1      35.860 -15.897 -23.275  0.00  0.00    -0.383 OA
ATOM     29  H   UNL     1      36.603 -16.255 -23.785  0.00  0.00    +0.210 HD
ENDBRANCH  27  28
BRANCH  27  30
ATOM     30  C   UNL     1      34.136 -16.094 -24.931  0.00  0.00    -0.044 C 
BRANCH  30  31
ATOM     31  N   UNL     1      33.121 -15.066 -24.751  0.00  0.00    +0.386 N 
ATOM     32  C   UNL     1      33.332 -14.346 -23.494  0.00  0.00    -0.101 C 
ATOM     33  C   UNL     1      33.128 -14.130 -25.878  0.00  0.00    -0.101 C 
ATOM     34  H   UNL     1      32.210 -15.523 -24.714  0.00  0.00    -0.080 HD
ENDBRANCH  30  31
ENDBRANCH  27  30
ENDBRANCH  26  27
ENDBRANCH  25  26
ENDBRANCH  19  25
ENDBRANCH   2  20
TORSDOF 8
ENDMDL
MODEL 5
REMARK VINA RESULT:      -9.3      2.055      2.977
REMARK  Name = 447653
REMARK  8 active torsions:
REMARK  status: ('A' for Active; 'I' for Inactive)
REMARK    1  A    between atoms: N_2  and  C_20
REMARK    2  A    between atoms: C_4  and  C_11
REMARK    3  A    between atoms: C_19  and  O_25
REMARK    4  A    between atoms: O_25  and  C_26
REMARK    5  A    between atoms: C_26  and  C_27
REMARK    6  A    between atoms: C_27  and  O_28
REMARK    7  A    between atoms: C_27  and  C_30
REMARK    8  A    between atoms: C_30  and  N_31
REMARK                            x       y       z     vdW  Elec       q    Type
REMARK                         _______ _______ _______ _____ _____    ______ ____
ROOT
ATOM      1  N   UNL     1      34.986 -23.734 -14.423  0.00  0.00    -0.340 NA
ATOM      2  N   UNL     1      33.369 -23.179 -16.030  0.00  0.00    -0.247 N 
ATOM      3  N   UNL     1      32.645 -24.137 -14.014  0.00  0.00    -0.170 NA
ATOM      4  C   UNL     1      35.243 -24.247 -13.204  0.00  0.00    +0.148 C 
ATOM      5  C   UNL     1      34.278 -24.718 -12.344  0.00  0.00    +0.052 C 
ATOM      6  C   UNL     1      33.681 -23.709 -14.760  0.00  0.00    +0.148 C 
ATOM      7  C   UNL     1      32.980 -24.638 -12.808  0.00  0.00    +0.114 C 
ATOM      8  H   UNL     1      32.405 -23.180 -16.233  0.00  0.00    +0.165 HD
ENDROOT
BRANCH   4  11
ATOM      9  N   UNL     1      37.595 -25.034 -13.473  0.00  0.00    -0.251 N 
ATOM     10  N   UNL     1      38.652 -23.901 -11.861  0.00  0.00    -0.393 NA
ATOM     11  C   UNL     1      36.643 -24.271 -12.846  0.00  0.00    +0.181 C 
ATOM     12  C   UNL     1      38.804 -24.773 -12.835  0.00  0.00    +0.187 C 
ATOM     13  C   UNL     1      37.316 -23.586 -11.862  0.00  0.00    +0.114 C 
ATOM     14  C   UNL     1      37.460 -25.917 -14.541  0.00  0.00    +0.068 C 
ATOM     15  C   UNL     1      39.954 -25.463 -13.322  0.00  0.00    +0.048 C 
ATOM     16  C   UNL     1      36.784 -22.623 -10.885  0.00  0.00    +0.064 C 
ATOM     17  C   UNL     1      38.548 -26.563 -14.993  0.00  0.00    +0.016 C 
ATOM     18  C   UNL     1      39.831 -26.319 -14.354  0.00  0.00    +0.005 C 
ENDBRANCH   4  11
BRANCH   2  20
ATOM     19  C   UNL     1      35.744 -21.594 -19.111  0.00  0.00    +0.139 C 
ATOM     20  C   UNL     1      34.164 -22.647 -17.063  0.00  0.00    +0.058 C 
ATOM     21  C   UNL     1      34.396 -21.873 -19.341  0.00  0.00    +0.038 C 
ATOM     22  C   UNL     1      36.302 -21.843 -17.857  0.00  0.00    +0.038 C 
ATOM     23  C   UNL     1      33.607 -22.398 -18.318  0.00  0.00    +0.018 C 
ATOM     24  C   UNL     1      35.514 -22.369 -16.834  0.00  0.00    +0.018 C 
BRANCH  19  25
ATOM     25  O   UNL     1      36.513 -21.081 -20.110  0.00  0.00    -0.473 OA
BRANCH  25  26
ATOM     26  C   UNL     1      36.829 -19.692 -20.037  0.00  0.00    +0.232 C 
BRANCH  26  27
ATOM     27  C   UNL     1      35.849 -18.916 -20.913  0.00  0.00    +0.133 C 
BRANCH  27  28
ATOM     28  O   UNL     1      35.556 -17.668 -20.279  0.00  0.00    -0.383 OA
ATOM     29  H   UNL     1      34.760 -17.760 -19.734  0.00  0.00    +0.210 HD
ENDBRANCH  27  28
BRANCH  27  30
ATOM     30  C   UNL     1      36.389 -18.625 -22.315  0.00  0.00    -0.044 C 
BRANCH  30  31
ATOM     31  N   UNL     1      35.322 -18.509 -23.300  0.00  0.00    +0.386 N 
ATOM     32  C   UNL     1      34.153 -19.289 -22.888  0.00  0.00    -0.101 C 
ATOM     33  C   UNL     1      34.951 -17.107 -23.498  0.00  0.00    -0.101 C 
ATOM     34  H   UNL     1      35.666 -18.883 -24.184  0.00  0.00    -0.080 HD
ENDBRANCH  30  31
ENDBRANCH  27  30
ENDBRANCH  26  27
ENDBRANCH  25  26
ENDBRANCH  19  25
ENDBRANCH   2  20
TORSDOF 8
ENDMDL
MODEL 6
REMARK VINA RESULT:      -9.3      1.545      4.293
REMARK  Name = 447653
REMARK  8 active torsions:
REMARK  status: ('A' for Active; 'I' for Inactive)
REMARK    1  A    between atoms: N_2  and  C_20
REMARK    2  A    between atoms: C_4  and  C_11
REMARK    3  A    between atoms: C_19  and  O_25
REMARK    4  A    between atoms: O_25  and  C_26
REMARK    5  A    between atoms: C_26  and  C_27
REMARK    6  A    between atoms: C_27  and  O_28
REMARK    7  A    between atoms: C_27  and  C_30
REMARK    8  A    between atoms: C_30  and  N_31
REMARK                            x       y       z     vdW  Elec       q    Type
REMARK                         _______ _______ _______ _____ _____    ______ ____
ROOT
ATOM      1  N   UNL     1      35.854 -22.982 -15.714  0.00  0.00    -0.340 NA
ATOM      2  N   UNL     1      37.395 -22.240 -17.320  0.00  0.00    -0.247 N 
ATOM      3  N   UNL     1      38.217 -23.361 -15.428  0.00  0.00    -0.170 NA
ATOM      4  C   UNL     1      35.655 -23.611 -14.539  0.00  0.00    +0.148 C 
ATOM      5  C   UNL     1      36.663 -24.134 -13.762  0.00  0.00    +0.052 C 
ATOM      6  C   UNL     1      37.144 -22.893 -16.094  0.00  0.00    +0.148 C 
ATOM      7  C   UNL     1      37.940 -23.977 -14.262  0.00  0.00    +0.114 C 
ATOM      8  H   UNL     1      38.350 -22.200 -17.558  0.00  0.00    +0.165 HD
ENDROOT
BRANCH   4  11
ATOM      9  N   UNL     1      33.201 -23.451 -14.954  0.00  0.00    -0.251 N 
ATOM     10  N   UNL     1      32.355 -24.012 -12.962  0.00  0.00    -0.393 NA
ATOM     11  C   UNL     1      34.271 -23.705 -14.135  0.00  0.00    +0.181 C 
ATOM     12  C   UNL     1      32.053 -23.651 -14.192  0.00  0.00    +0.187 C 
ATOM     13  C   UNL     1      33.726 -24.047 -12.920  0.00  0.00    +0.114 C 
ATOM     14  C   UNL     1      33.180 -23.065 -16.291  0.00  0.00    +0.068 C 
ATOM     15  C   UNL     1      30.800 -23.443 -14.841  0.00  0.00    +0.048 C 
ATOM     16  C   UNL     1      34.416 -24.417 -11.674  0.00  0.00    +0.064 C 
ATOM     17  C   UNL     1      31.997 -22.870 -16.896  0.00  0.00    +0.016 C 
ATOM     18  C   UNL     1      30.774 -23.069 -16.135  0.00  0.00    +0.005 C 
ENDBRANCH   4  11
BRANCH   2  20
ATOM     19  C   UNL     1      34.874 -20.441 -20.156  0.00  0.00    +0.139 C 
ATOM     20  C   UNL     1      36.550 -21.638 -18.270  0.00  0.00    +0.058 C 
ATOM     21  C   UNL     1      34.382 -21.447 -19.324  0.00  0.00    +0.038 C 
ATOM     22  C   UNL     1      36.203 -20.034 -20.047  0.00  0.00    +0.038 C 
ATOM     23  C   UNL     1      35.219 -22.044 -18.382  0.00  0.00    +0.018 C 
ATOM     24  C   UNL     1      37.041 -20.631 -19.105  0.00  0.00    +0.018 C 
BRANCH  19  25
ATOM     25  O   UNL     1      34.056 -19.859 -21.076  0.00  0.00    -0.473 OA
BRANCH  25  26
ATOM     26  C   UNL     1      34.582 -19.680 -22.390  0.00  0.00    +0.232 C 
BRANCH  26  27
ATOM     27  C   UNL     1      34.906 -18.203 -22.595  0.00  0.00    +0.133 C 
BRANCH  27  28
ATOM     28  O   UNL     1      36.327 -18.047 -22.646  0.00  0.00    -0.383 OA
ATOM     29  H   UNL     1      36.753 -18.898 -22.458  0.00  0.00    +0.210 HD
ENDBRANCH  27  28
BRANCH  27  30
ATOM     30  C   UNL     1      34.316 -17.626 -23.884  0.00  0.00    -0.044 C 
BRANCH  30  31
ATOM     31  N   UNL     1      34.684 -16.229 -24.078  0.00  0.00    +0.386 N 
ATOM     32  C   UNL     1      33.947 -15.653 -25.204  0.00  0.00    -0.101 C 
ATOM     33  C   UNL     1      34.433 -15.456 -22.860  0.00  0.00    -0.101 C 
ATOM     34  H   UNL     1      35.680 -16.191 -24.289  0.00  0.00    -0.080 HD
ENDBRANCH  30  31
ENDBRANCH  27  30
ENDBRANCH  26  27
ENDBRANCH  25  26
ENDBRANCH  19  25
ENDBRANCH   2  20
TORSDOF 8
ENDMDL
MODEL 7
REMARK VINA RESULT:      -9.2      7.160     15.586
REMARK  Name = 447653
REMARK  8 active torsions:
REMARK  status: ('A' for Active; 'I' for Inactive)
REMARK    1  A    between atoms: N_2  and  C_20
REMARK    2  A    between atoms: C_4  and  C_11
REMARK    3  A    between atoms: C_19  and  O_25
REMARK    4  A    between atoms: O_25  and  C_26
REMARK    5  A    between atoms: C_26  and  C_27
REMARK    6  A    between atoms: C_27  and  O_28
REMARK    7  A    between atoms: C_27  and  C_30
REMARK    8  A    between atoms: C_30  and  N_31
REMARK                            x       y       z     vdW  Elec       q    Type
REMARK                         _______ _______ _______ _____ _____    ______ ____
ROOT
ATOM      1  N   UNL     1      32.638  -8.119 -22.032  0.00  0.00    -0.340 NA
ATOM      2  N   UNL     1      31.920  -9.967 -20.777  0.00  0.00    -0.247 N 
ATOM      3  N   UNL     1      31.527  -7.820 -19.914  0.00  0.00    -0.170 NA
ATOM      4  C   UNL     1      32.727  -6.779 -22.125  0.00  0.00    +0.148 C 
ATOM      5  C   UNL     1      32.251  -5.903 -21.176  0.00  0.00    +0.052 C 
ATOM      6  C   UNL     1      32.033  -8.567 -20.914  0.00  0.00    +0.148 C 
ATOM      7  C   UNL     1      31.653  -6.488 -20.078  0.00  0.00    +0.114 C 
ATOM      8  H   UNL     1      31.471 -10.248 -19.946  0.00  0.00    +0.165 HD
ENDROOT
BRANCH   4  11
ATOM      9  N   UNL     1      32.965  -5.218 -24.056  0.00  0.00    -0.251 N 
ATOM     10  N   UNL     1      34.771  -6.032 -25.094  0.00  0.00    -0.393 NA
ATOM     11  C   UNL     1      33.376  -6.303 -23.326  0.00  0.00    +0.181 C 
ATOM     12  C   UNL     1      33.848  -5.094 -25.126  0.00  0.00    +0.187 C 
ATOM     13  C   UNL     1      34.484  -6.784 -23.982  0.00  0.00    +0.114 C 
ATOM     14  C   UNL     1      31.891  -4.359 -23.840  0.00  0.00    +0.068 C 
ATOM     15  C   UNL     1      33.616  -4.020 -26.036  0.00  0.00    +0.048 C 
ATOM     16  C   UNL     1      35.329  -7.939 -23.635  0.00  0.00    +0.064 C 
ATOM     17  C   UNL     1      31.679  -3.351 -24.701  0.00  0.00    +0.016 C 
ATOM     18  C   UNL     1      32.578  -3.186 -25.832  0.00  0.00    +0.005 C 
ENDBRANCH   4  11
BRANCH   2  20
ATOM     19  C   UNL     1      33.118 -13.169 -23.216  0.00  0.00    +0.139 C 
ATOM     20  C   UNL     1      32.320 -11.040 -21.594  0.00  0.00    +0.058 C 
ATOM     21  C   UNL     1      32.350 -13.409 -22.076  0.00  0.00    +0.038 C 
ATOM     22  C   UNL     1      33.488 -11.866 -23.545  0.00  0.00    +0.038 C 
ATOM     23  C   UNL     1      31.951 -12.346 -21.267  0.00  0.00    +0.018 C 
ATOM     24  C   UNL     1      33.091 -10.802 -22.735  0.00  0.00    +0.018 C 
BRANCH  19  25
ATOM     25  O   UNL     1      33.506 -14.208 -24.006  0.00  0.00    -0.473 OA
BRANCH  25  26
ATOM     26  C   UNL     1      34.583 -15.015 -23.533  0.00  0.00    +0.232 C 
BRANCH  26  27
ATOM     27  C   UNL     1      34.339 -16.461 -23.958  0.00  0.00    +0.133 C 
BRANCH  27  28
ATOM     28  O   UNL     1      34.692 -16.600 -25.337  0.00  0.00    -0.383 OA
ATOM     29  H   UNL     1      34.575 -15.749 -25.788  0.00  0.00    +0.210 HD
ENDBRANCH  27  28
BRANCH  27  30
ATOM     30  C   UNL     1      35.155 -17.474 -23.152  0.00  0.00    -0.044 C 
BRANCH  30  31
ATOM     31  N   UNL     1      34.405 -18.695 -22.888  0.00  0.00    +0.386 N 
ATOM     32  C   UNL     1      34.719 -19.719 -23.887  0.00  0.00    -0.101 C 
ATOM     33  C   UNL     1      34.691 -19.196 -21.542  0.00  0.00    -0.101 C 
ATOM     34  H   UNL     1      33.412 -18.476 -22.950  0.00  0.00    -0.080 HD
ENDBRANCH  30  31
ENDBRANCH  27  30
ENDBRANCH  26  27
ENDBRANCH  25  26
ENDBRANCH  19  25
ENDBRANCH   2  20
TORSDOF 8
ENDMDL
MODEL 8
REMARK VINA RESULT:      -9.1      3.188     11.703
REMARK  Name = 447653
REMARK  8 active torsions:
REMARK  status: ('A' for Active; 'I' for Inactive)
REMARK    1  A    between atoms: N_2  and  C_20
REMARK    2  A    between atoms: C_4  and  C_11
REMARK    3  A    between atoms: C_19  and  O_25
REMARK    4  A    between atoms: O_25  and  C_26
REMARK    5  A    between atoms: C_26  and  C_27
REMARK    6  A    between atoms: C_27  and  O_28
REMARK    7  A    between atoms: C_27  and  C_30
REMARK    8  A    between atoms: C_30  and  N_31
REMARK                            x       y       z     vdW  Elec       q    Type
REMARK                         _______ _______ _______ _____ _____    ______ ____
ROOT
ATOM      1  N   UNL     1      33.606 -14.674 -23.194  0.00  0.00    -0.340 NA
ATOM      2  N   UNL     1      34.478 -16.545 -24.309  0.00  0.00    -0.247 N 
ATOM      3  N   UNL     1      33.911 -14.659 -25.585  0.00  0.00    -0.170 NA
ATOM      4  C   UNL     1      33.130 -13.417 -23.291  0.00  0.00    +0.148 C 
ATOM      5  C   UNL     1      33.013 -12.723 -24.473  0.00  0.00    +0.052 C 
ATOM      6  C   UNL     1      33.973 -15.228 -24.366  0.00  0.00    +0.148 C 
ATOM      7  C   UNL     1      33.423 -13.402 -25.602  0.00  0.00    +0.114 C 
ATOM      8  H   UNL     1      34.734 -16.910 -25.187  0.00  0.00    +0.165 HD
ENDROOT
BRANCH   4  11
ATOM      9  N   UNL     1      32.375 -11.514 -21.866  0.00  0.00    -0.251 N 
ATOM     10  N   UNL     1      32.223 -12.472 -19.851  0.00  0.00    -0.393 NA
ATOM     11  C   UNL     1      32.737 -12.826 -22.032  0.00  0.00    +0.181 C 
ATOM     12  C   UNL     1      32.071 -11.346 -20.518  0.00  0.00    +0.187 C 
ATOM     13  C   UNL     1      32.635 -13.391 -20.783  0.00  0.00    +0.114 C 
ATOM     14  C   UNL     1      32.301 -10.489 -22.806  0.00  0.00    +0.068 C 
ATOM     15  C   UNL     1      31.664 -10.043 -20.103  0.00  0.00    +0.048 C 
ATOM     16  C   UNL     1      32.905 -14.781 -20.378  0.00  0.00    +0.064 C 
ATOM     17  C   UNL     1      31.917  -9.266 -22.408  0.00  0.00    +0.016 C 
ATOM     18  C   UNL     1      31.591  -9.048 -21.008  0.00  0.00    +0.005 C 
ENDBRANCH   4  11
BRANCH   2  20
ATOM     19  C   UNL     1      35.102 -19.214 -21.126  0.00  0.00    +0.139 C 
ATOM     20  C   UNL     1      34.687 -17.440 -23.243  0.00  0.00    +0.058 C 
ATOM     21  C   UNL     1      34.444 -19.644 -22.278  0.00  0.00    +0.038 C 
ATOM     22  C   UNL     1      35.552 -17.897 -21.031  0.00  0.00    +0.038 C 
ATOM     23  C   UNL     1      34.237 -18.758 -23.336  0.00  0.00    +0.018 C 
ATOM     24  C   UNL     1      35.345 -17.011 -22.088  0.00  0.00    +0.018 C 
BRANCH  19  25
ATOM     25  O   UNL     1      35.304 -20.079 -20.095  0.00  0.00    -0.473 OA
BRANCH  25  26
ATOM     26  C   UNL     1      34.201 -20.898 -19.709  0.00  0.00    +0.232 C 
BRANCH  26  27
ATOM     27  C   UNL     1      34.690 -21.949 -18.716  0.00  0.00    +0.133 C 
BRANCH  27  28
ATOM     28  O   UNL     1      34.612 -23.236 -19.335  0.00  0.00    -0.383 OA
ATOM     29  H   UNL     1      35.500 -23.524 -19.596  0.00  0.00    +0.210 HD
ENDBRANCH  27  28
BRANCH  27  30
ATOM     30  C   UNL     1      36.134 -21.726 -18.260  0.00  0.00    -0.044 C 
BRANCH  30  31
ATOM     31  N   UNL     1      36.402 -22.344 -16.969  0.00  0.00    +0.386 N 
ATOM     32  C   UNL     1      37.295 -21.502 -16.169  0.00  0.00    -0.101 C 
ATOM     33  C   UNL     1      35.154 -22.589 -16.244  0.00  0.00    -0.101 C 
ATOM     34  H   UNL     1      36.863 -23.238 -17.136  0.00  0.00    -0.080 HD
ENDBRANCH  30  31
ENDBRANCH  27  30
ENDBRANCH  26  27
ENDBRANCH  25  26
ENDBRANCH  19  25
ENDBRANCH   2  20
TORSDOF 8
ENDMDL
MODEL 9
REMARK VINA RESULT:      -9.1      6.013     13.942
REMARK  Name = 447653
REMARK  8 active torsions:
REMARK  status: ('A' for Active; 'I' for Inactive)
REMARK    1  A    between atoms: N_2  and  C_20
REMARK    2  A    between atoms: C_4  and  C_11
REMARK    3  A    between atoms: C_19  and  O_25
REMARK    4  A    between atoms: O_25  and  C_26
REMARK    5  A    between atoms: C_26  and  C_27
REMARK    6  A    between atoms: C_27  and  O_28
REMARK    7  A    between atoms: C_27  and  C_30
REMARK    8  A    between atoms: C_30  and  N_31
REMARK                            x       y       z     vdW  Elec       q    Type
REMARK                         _______ _______ _______ _____ _____    ______ ____
ROOT
ATOM      1  N   UNL     1      32.457 -10.264 -21.228  0.00  0.00    -0.340 NA
ATOM      2  N   UNL     1      32.226 -12.411 -20.310  0.00  0.00    -0.247 N 
ATOM      3  N   UNL     1      31.431 -10.583 -19.071  0.00  0.00    -0.170 NA
ATOM      4  C   UNL     1      32.251  -8.941 -21.083  0.00  0.00    +0.148 C 
ATOM      5  C   UNL     1      31.653  -8.368 -19.984  0.00  0.00    +0.052 C 
ATOM      6  C   UNL     1      32.028 -11.018 -20.197  0.00  0.00    +0.148 C 
ATOM      7  C   UNL     1      31.259  -9.248 -18.997  0.00  0.00    +0.114 C 
ATOM      8  H   UNL     1      31.897 -12.922 -19.535  0.00  0.00    +0.165 HD
ENDROOT
BRANCH   4  11
ATOM      9  N   UNL     1      32.288  -6.860 -22.457  0.00  0.00    -0.251 N 
ATOM     10  N   UNL     1      33.776  -7.376 -24.044  0.00  0.00    -0.393 NA
ATOM     11  C   UNL     1      32.712  -8.136 -22.190  0.00  0.00    +0.181 C 
ATOM     12  C   UNL     1      32.965  -6.439 -23.598  0.00  0.00    +0.187 C 
ATOM     13  C   UNL     1      33.624  -8.429 -23.177  0.00  0.00    +0.114 C 
ATOM     14  C   UNL     1      31.366  -6.071 -21.773  0.00  0.00    +0.068 C 
ATOM     15  C   UNL     1      32.681  -5.124 -24.072  0.00  0.00    +0.048 C 
ATOM     16  C   UNL     1      34.394  -9.667 -23.379  0.00  0.00    +0.064 C 
ATOM     17  C   UNL     1      31.104  -4.834 -22.225  0.00  0.00    +0.016 C 
ATOM     18  C   UNL     1      31.791  -4.356 -23.415  0.00  0.00    +0.005 C 
ENDBRANCH   4  11
BRANCH   2  20
ATOM     19  C   UNL     1      33.940 -14.805 -23.306  0.00  0.00    +0.139 C 
ATOM     20  C   UNL     1      32.800 -13.214 -21.313  0.00  0.00    +0.058 C 
ATOM     21  C   UNL     1      34.372 -14.924 -21.984  0.00  0.00    +0.038 C 
ATOM     22  C   UNL     1      32.939 -13.890 -23.631  0.00  0.00    +0.038 C 
ATOM     23  C   UNL     1      33.802 -14.130 -20.989  0.00  0.00    +0.018 C 
ATOM     24  C   UNL     1      32.370 -13.094 -22.637  0.00  0.00    +0.018 C 
BRANCH  19  25
ATOM     25  O   UNL     1      34.496 -15.581 -24.276  0.00  0.00    -0.473 OA
BRANCH  25  26
ATOM     26  C   UNL     1      35.226 -16.729 -23.849  0.00  0.00    +0.232 C 
BRANCH  26  27
ATOM     27  C   UNL     1      34.256 -17.896 -23.684  0.00  0.00    +0.133 C 
BRANCH  27  28
ATOM     28  O   UNL     1      33.835 -18.330 -24.980  0.00  0.00    -0.383 OA
ATOM     29  H   UNL     1      33.604 -17.558 -25.520  0.00  0.00    +0.210 HD
ENDBRANCH  27  28
BRANCH  27  30
ATOM     30  C   UNL     1      34.869 -19.095 -22.956  0.00  0.00    -0.044 C 
BRANCH  30  31
ATOM     31  N   UNL     1      34.955 -18.877 -21.518  0.00  0.00    +0.386 N 
ATOM     32  C   UNL     1      34.245 -19.932 -20.793  0.00  0.00    -0.101 C 
ATOM     33  C   UNL     1      36.354 -18.820 -21.087  0.00  0.00    -0.101 C 
ATOM     34  H   UNL     1      34.513 -17.984 -21.306  0.00  0.00    -0.080 HD
ENDBRANCH  30  31
ENDBRANCH  27  30
ENDBRANCH  26  27
ENDBRANCH  25  26
ENDBRANCH  19  25
ENDBRANCH   2  20
TORSDOF 8
ENDMDL
