MODEL 1
REMARK VINA RESULT:     -11.3      0.000      0.000
REMARK  Name = 71183216
REMARK  5 active torsions:
REMARK  status: ('A' for Active; 'I' for Inactive)
REMARK    1  A    between atoms: N_3  and  C_24
REMARK    2  A    between atoms: C_10  and  C_13
REMARK    3  A    between atoms: C_18  and  O_19
REMARK    4  A    between atoms: O_19  and  C_23
REMARK    5  A    between atoms: C_24  and  C_27
REMARK                            x       y       z     vdW  Elec       q    Type
REMARK                         _______ _______ _______ _____ _____    ______ ____
ROOT
ATOM      1  O   UNL     1      34.619 -16.189 -25.543  0.00  0.00    -0.473 OA
ATOM      2  O   UNL     1      35.454 -14.668 -22.013  0.00  0.00    -0.270 OA
ATOM      3  N   UNL     1      33.813 -14.247 -23.618  0.00  0.00    -0.259 N 
ATOM      4  C   UNL     1      32.802 -14.809 -24.511  0.00  0.00    +0.142 C 
ATOM      5  C   UNL     1      34.608 -16.518 -23.147  0.00  0.00    +0.087 C 
ATOM      6  C   UNL     1      33.438 -15.407 -25.761  0.00  0.00    +0.227 C 
ATOM      7  C   UNL     1      34.666 -15.062 -22.870  0.00  0.00    +0.253 C 
ATOM      8  C   UNL     1      34.551 -17.014 -24.456  0.00  0.00    +0.143 C 
ATOM      9  C   UNL     1      34.647 -17.407 -22.067  0.00  0.00    +0.008 C 
ATOM     10  C   UNL     1      34.619 -18.782 -22.300  0.00  0.00    +0.000 C 
ATOM     11  C   UNL     1      34.546 -18.390 -24.686  0.00  0.00    +0.037 C 
ATOM     12  C   UNL     1      34.568 -19.273 -23.606  0.00  0.00    +0.003 C 
ENDROOT
BRANCH  10  13
ATOM     13  C   UNL     1      34.650 -19.704 -21.185  0.00  0.00    +0.000 C 
ATOM     14  C   UNL     1      33.457 -20.169 -20.632  0.00  0.00    +0.003 C 
ATOM     15  C   UNL     1      35.872 -20.125 -20.662  0.00  0.00    +0.003 C 
ATOM     16  C   UNL     1      33.487 -21.056 -19.556  0.00  0.00    +0.037 C 
ATOM     17  C   UNL     1      35.902 -21.012 -19.587  0.00  0.00    +0.037 C 
ATOM     18  C   UNL     1      34.709 -21.477 -19.033  0.00  0.00    +0.147 C 
BRANCH  18  19
ATOM     19  O   UNL     1      34.738 -22.342 -17.982  0.00  0.00    -0.404 OA
BRANCH  19  23
ATOM     20  F   UNL     1      32.488 -22.454 -17.587  0.00  0.00    -0.133 F 
ATOM     21  F   UNL     1      33.816 -23.917 -16.653  0.00  0.00    -0.133 F 
ATOM     22  F   UNL     1      33.439 -24.037 -18.802  0.00  0.00    -0.133 F 
ATOM     23  C   UNL     1      33.609 -23.184 -17.770  0.00  0.00    +0.575 C 
ENDBRANCH  19  23
ENDBRANCH  18  19
ENDBRANCH  10  13
BRANCH   3  24
ATOM     24  C   UNL     1      33.877 -12.799 -23.505  0.00  0.00    +0.194 C 
BRANCH  24  27
ATOM     25  N   UNL     1      32.594 -10.981 -22.546  0.00  0.00    -0.217 NA
ATOM     26  N   UNL     1      32.561 -13.153 -21.501  0.00  0.00    -0.195 NA
ATOM     27  C   UNL     1      32.949 -12.276 -22.447  0.00  0.00    +0.028 C 
ATOM     28  C   UNL     1      31.760 -10.544 -21.578  0.00  0.00    +0.164 C 
ATOM     29  C   UNL     1      31.729 -12.649 -20.566  0.00  0.00    +0.107 C 
ATOM     30  C   UNL     1      31.290 -11.340 -20.554  0.00  0.00    +0.022 C 
ENDBRANCH  24  27
ENDBRANCH   3  24
TORSDOF 5
ENDMDL
MODEL 2
REMARK VINA RESULT:     -11.0      6.359     11.050
REMARK  Name = 71183216
REMARK  5 active torsions:
REMARK  status: ('A' for Active; 'I' for Inactive)
REMARK    1  A    between atoms: N_3  and  C_24
REMARK    2  A    between atoms: C_10  and  C_13
REMARK    3  A    between atoms: C_18  and  O_19
REMARK    4  A    between atoms: O_19  and  C_23
REMARK    5  A    between atoms: C_24  and  C_27
REMARK                            x       y       z     vdW  Elec       q    Type
REMARK                         _______ _______ _______ _____ _____    ______ ____
ROOT
ATOM      1  O   UNL     1      33.826 -24.005 -15.031  0.00  0.00    -0.473 OA
ATOM      2  O   UNL     1      37.229 -22.035 -15.118  0.00  0.00    -0.270 OA
ATOM      3  N   UNL     1      36.659 -24.288 -14.895  0.00  0.00    -0.259 N 
ATOM      4  C   UNL     1      35.868 -25.405 -15.404  0.00  0.00    +0.142 C 
ATOM      5  C   UNL     1      35.418 -22.780 -16.378  0.00  0.00    +0.087 C 
ATOM      6  C   UNL     1      34.416 -25.309 -14.949  0.00  0.00    +0.227 C 
ATOM      7  C   UNL     1      36.520 -22.995 -15.408  0.00  0.00    +0.253 C 
ATOM      8  C   UNL     1      34.141 -23.318 -16.169  0.00  0.00    +0.143 C 
ATOM      9  C   UNL     1      35.664 -21.990 -17.506  0.00  0.00    +0.008 C 
ATOM     10  C   UNL     1      34.639 -21.751 -18.421  0.00  0.00    +0.000 C 
ATOM     11  C   UNL     1      33.113 -23.058 -17.075  0.00  0.00    +0.037 C 
ATOM     12  C   UNL     1      33.367 -22.284 -18.207  0.00  0.00    +0.003 C 
ENDROOT
BRANCH  10  13
ATOM     13  C   UNL     1      34.893 -20.942 -19.594  0.00  0.00    +0.000 C 
ATOM     14  C   UNL     1      36.199 -20.575 -19.920  0.00  0.00    +0.003 C 
ATOM     15  C   UNL     1      33.831 -20.527 -20.398  0.00  0.00    +0.003 C 
ATOM     16  C   UNL     1      36.443 -19.794 -21.050  0.00  0.00    +0.037 C 
ATOM     17  C   UNL     1      34.075 -19.746 -21.528  0.00  0.00    +0.037 C 
ATOM     18  C   UNL     1      35.380 -19.379 -21.853  0.00  0.00    +0.147 C 
BRANCH  18  19
ATOM     19  O   UNL     1      35.619 -18.616 -22.955  0.00  0.00    -0.404 OA
BRANCH  19  23
ATOM     20  F   UNL     1      33.742 -17.539 -23.696  0.00  0.00    -0.133 F 
ATOM     21  F   UNL     1      35.679 -16.535 -23.828  0.00  0.00    -0.133 F 
ATOM     22  F   UNL     1      34.746 -16.802 -21.869  0.00  0.00    -0.133 F 
ATOM     23  C   UNL     1      34.931 -17.376 -23.077  0.00  0.00    +0.575 C 
ENDBRANCH  19  23
ENDBRANCH  18  19
ENDBRANCH  10  13
BRANCH   3  24
ATOM     24  C   UNL     1      37.631 -24.574 -13.853  0.00  0.00    +0.194 C 
BRANCH  24  27
ATOM     25  N   UNL     1      37.521 -23.114 -11.921  0.00  0.00    -0.217 NA
ATOM     26  N   UNL     1      36.244 -25.158 -11.953  0.00  0.00    -0.195 NA
ATOM     27  C   UNL     1      37.097 -24.261 -12.485  0.00  0.00    +0.028 C 
ATOM     28  C   UNL     1      37.022 -22.865 -10.692  0.00  0.00    +0.164 C 
ATOM     29  C   UNL     1      35.784 -24.846 -10.724  0.00  0.00    +0.107 C 
ATOM     30  C   UNL     1      36.141 -23.702 -10.038  0.00  0.00    +0.022 C 
ENDBRANCH  24  27
ENDBRANCH   3  24
TORSDOF 5
ENDMDL
MODEL 3
REMARK VINA RESULT:     -10.8      5.653     10.022
REMARK  Name = 71183216
REMARK  5 active torsions:
REMARK  status: ('A' for Active; 'I' for Inactive)
REMARK    1  A    between atoms: N_3  and  C_24
REMARK    2  A    between atoms: C_10  and  C_13
REMARK    3  A    between atoms: C_18  and  O_19
REMARK    4  A    between atoms: O_19  and  C_23
REMARK    5  A    between atoms: C_24  and  C_27
REMARK                            x       y       z     vdW  Elec       q    Type
REMARK                         _______ _______ _______ _____ _____    ______ ____
ROOT
ATOM      1  O   UNL     1      36.092 -23.609 -15.495  0.00  0.00    -0.473 OA
ATOM      2  O   UNL     1      32.835 -24.188 -17.622  0.00  0.00    -0.270 OA
ATOM      3  N   UNL     1      33.244 -23.607 -15.399  0.00  0.00    -0.259 N 
ATOM      4  C   UNL     1      33.975 -22.745 -14.474  0.00  0.00    +0.142 C 
ATOM      5  C   UNL     1      34.636 -22.764 -17.232  0.00  0.00    +0.087 C 
ATOM      6  C   UNL     1      35.413 -23.219 -14.294  0.00  0.00    +0.227 C 
ATOM      7  C   UNL     1      33.488 -23.584 -16.774  0.00  0.00    +0.253 C 
ATOM      8  C   UNL     1      35.865 -22.783 -16.560  0.00  0.00    +0.143 C 
ATOM      9  C   UNL     1      34.485 -21.985 -18.384  0.00  0.00    +0.008 C 
ATOM     10  C   UNL     1      35.557 -21.224 -18.851  0.00  0.00    +0.000 C 
ATOM     11  C   UNL     1      36.941 -22.038 -17.043  0.00  0.00    +0.037 C 
ATOM     12  C   UNL     1      36.782 -21.249 -18.182  0.00  0.00    +0.003 C 
ENDROOT
BRANCH  10  13
ATOM     13  C   UNL     1      35.400 -20.409 -20.037  0.00  0.00    +0.000 C 
ATOM     14  C   UNL     1      36.501 -19.744 -20.577  0.00  0.00    +0.003 C 
ATOM     15  C   UNL     1      34.148 -20.288 -20.639  0.00  0.00    +0.003 C 
ATOM     16  C   UNL     1      36.349 -18.957 -21.719  0.00  0.00    +0.037 C 
ATOM     17  C   UNL     1      33.996 -19.501 -21.781  0.00  0.00    +0.037 C 
ATOM     18  C   UNL     1      35.097 -18.835 -22.320  0.00  0.00    +0.147 C 
BRANCH  18  19
ATOM     19  O   UNL     1      34.949 -18.067 -23.434  0.00  0.00    -0.404 OA
BRANCH  19  23
ATOM     20  F   UNL     1      34.586 -16.356 -21.960  0.00  0.00    -0.133 F 
ATOM     21  F   UNL     1      33.593 -16.325 -23.906  0.00  0.00    -0.133 F 
ATOM     22  F   UNL     1      35.744 -15.954 -23.799  0.00  0.00    -0.133 F 
ATOM     23  C   UNL     1      34.732 -16.670 -23.265  0.00  0.00    +0.575 C 
ENDBRANCH  19  23
ENDBRANCH  18  19
ENDBRANCH  10  13
BRANCH   3  24
ATOM     24  C   UNL     1      32.217 -24.472 -14.839  0.00  0.00    +0.194 C 
BRANCH  24  27
ATOM     25  N   UNL     1      29.984 -24.678 -15.758  0.00  0.00    -0.217 NA
ATOM     26  N   UNL     1      30.588 -22.708 -14.508  0.00  0.00    -0.195 NA
ATOM     27  C   UNL     1      30.838 -23.916 -15.049  0.00  0.00    +0.028 C 
ATOM     28  C   UNL     1      28.754 -24.147 -15.928  0.00  0.00    +0.164 C 
ATOM     29  C   UNL     1      29.340 -22.238 -14.715  0.00  0.00    +0.107 C 
ATOM     30  C   UNL     1      28.372 -22.921 -15.425  0.00  0.00    +0.022 C 
ENDBRANCH  24  27
ENDBRANCH   3  24
TORSDOF 5
ENDMDL
MODEL 4
REMARK VINA RESULT:     -10.7      6.470     11.458
REMARK  Name = 71183216
REMARK  5 active torsions:
REMARK  status: ('A' for Active; 'I' for Inactive)
REMARK    1  A    between atoms: N_3  and  C_24
REMARK    2  A    between atoms: C_10  and  C_13
REMARK    3  A    between atoms: C_18  and  O_19
REMARK    4  A    between atoms: O_19  and  C_23
REMARK    5  A    between atoms: C_24  and  C_27
REMARK                            x       y       z     vdW  Elec       q    Type
REMARK                         _______ _______ _______ _____ _____    ______ ____
ROOT
ATOM      1  O   UNL     1      33.300 -24.130 -14.329  0.00  0.00    -0.473 OA
ATOM      2  O   UNL     1      36.586 -21.981 -14.549  0.00  0.00    -0.270 OA
ATOM      3  N   UNL     1      36.143 -24.239 -14.159  0.00  0.00    -0.259 N 
ATOM      4  C   UNL     1      35.421 -25.435 -14.585  0.00  0.00    +0.142 C 
ATOM      5  C   UNL     1      34.832 -22.921 -15.758  0.00  0.00    +0.087 C 
ATOM      6  C   UNL     1      33.962 -25.389 -14.146  0.00  0.00    +0.227 C 
ATOM      7  C   UNL     1      35.935 -22.999 -14.769  0.00  0.00    +0.253 C 
ATOM      8  C   UNL     1      33.586 -23.514 -15.515  0.00  0.00    +0.143 C 
ATOM      9  C   UNL     1      35.043 -22.205 -16.941  0.00  0.00    +0.008 C 
ATOM     10  C   UNL     1      34.014 -22.094 -17.876  0.00  0.00    +0.000 C 
ATOM     11  C   UNL     1      32.553 -23.382 -16.443  0.00  0.00    +0.037 C 
ATOM     12  C   UNL     1      32.772 -22.682 -17.629  0.00  0.00    +0.003 C 
ENDROOT
BRANCH  10  13
ATOM     13  C   UNL     1      34.233 -21.363 -19.106  0.00  0.00    +0.000 C 
ATOM     14  C   UNL     1      35.527 -21.194 -19.597  0.00  0.00    +0.003 C 
ATOM     15  C   UNL     1      33.148 -20.824 -19.798  0.00  0.00    +0.003 C 
ATOM     16  C   UNL     1      35.737 -20.488 -20.782  0.00  0.00    +0.037 C 
ATOM     17  C   UNL     1      33.358 -20.118 -20.982  0.00  0.00    +0.037 C 
ATOM     18  C   UNL     1      34.653 -19.949 -21.474  0.00  0.00    +0.147 C 
BRANCH  18  19
ATOM     19  O   UNL     1      34.858 -19.258 -22.629  0.00  0.00    -0.404 OA
BRANCH  19  23
ATOM     20  F   UNL     1      35.336 -17.276 -23.664  0.00  0.00    -0.133 F 
ATOM     21  F   UNL     1      36.881 -18.268 -22.480  0.00  0.00    -0.133 F 
ATOM     22  F   UNL     1      35.196 -17.322 -21.459  0.00  0.00    -0.133 F 
ATOM     23  C   UNL     1      35.554 -18.019 -22.558  0.00  0.00    +0.575 C 
ENDBRANCH  19  23
ENDBRANCH  18  19
ENDBRANCH  10  13
BRANCH   3  24
ATOM     24  C   UNL     1      37.120 -24.390 -13.093  0.00  0.00    +0.194 C 
BRANCH  24  27
ATOM     25  N   UNL     1      38.853 -26.080 -12.964  0.00  0.00    -0.217 NA
ATOM     26  N   UNL     1      39.002 -24.335 -14.621  0.00  0.00    -0.195 NA
ATOM     27  C   UNL     1      38.411 -24.974 -13.592  0.00  0.00    +0.028 C 
ATOM     28  C   UNL     1      40.015 -26.577 -13.438  0.00  0.00    +0.164 C 
ATOM     29  C   UNL     1      40.158 -24.886 -15.044  0.00  0.00    +0.107 C 
ATOM     30  C   UNL     1      40.718 -26.017 -14.485  0.00  0.00    +0.022 C 
ENDBRANCH  24  27
ENDBRANCH   3  24
TORSDOF 5
ENDMDL
MODEL 5
REMARK VINA RESULT:     -10.6      1.384      2.020
REMARK  Name = 71183216
REMARK  5 active torsions:
REMARK  status: ('A' for Active; 'I' for Inactive)
REMARK    1  A    between atoms: N_3  and  C_24
REMARK    2  A    between atoms: C_10  and  C_13
REMARK    3  A    between atoms: C_18  and  O_19
REMARK    4  A    between atoms: O_19  and  C_23
REMARK    5  A    between atoms: C_24  and  C_27
REMARK                            x       y       z     vdW  Elec       q    Type
REMARK                         _______ _______ _______ _____ _____    ______ ____
ROOT
ATOM      1  O   UNL     1      34.519 -16.789 -25.429  0.00  0.00    -0.473 OA
ATOM      2  O   UNL     1      35.607 -15.054 -22.071  0.00  0.00    -0.270 OA
ATOM      3  N   UNL     1      33.831 -14.753 -23.556  0.00  0.00    -0.259 N 
ATOM      4  C   UNL     1      32.764 -15.381 -24.329  0.00  0.00    +0.142 C 
ATOM      5  C   UNL     1      34.710 -16.980 -23.025  0.00  0.00    +0.087 C 
ATOM      6  C   UNL     1      33.308 -16.040 -25.592  0.00  0.00    +0.227 C 
ATOM      7  C   UNL     1      34.760 -15.509 -22.836  0.00  0.00    +0.253 C 
ATOM      8  C   UNL     1      34.557 -17.551 -24.295  0.00  0.00    +0.143 C 
ATOM      9  C   UNL     1      34.856 -17.804 -21.904  0.00  0.00    +0.008 C 
ATOM     10  C   UNL     1      34.838 -19.190 -22.057  0.00  0.00    +0.000 C 
ATOM     11  C   UNL     1      34.563 -18.937 -24.446  0.00  0.00    +0.037 C 
ATOM     12  C   UNL     1      34.691 -19.756 -23.325  0.00  0.00    +0.003 C 
ENDROOT
BRANCH  10  13
ATOM     13  C   UNL     1      34.978 -20.046 -20.899  0.00  0.00    +0.000 C 
ATOM     14  C   UNL     1      36.244 -20.315 -20.379  0.00  0.00    +0.003 C 
ATOM     15  C   UNL     1      33.847 -20.604 -20.304  0.00  0.00    +0.003 C 
ATOM     16  C   UNL     1      36.379 -21.141 -19.263  0.00  0.00    +0.037 C 
ATOM     17  C   UNL     1      33.981 -21.430 -19.188  0.00  0.00    +0.037 C 
ATOM     18  C   UNL     1      35.248 -21.699 -18.668  0.00  0.00    +0.147 C 
BRANCH  18  19
ATOM     19  O   UNL     1      35.379 -22.507 -17.580  0.00  0.00    -0.404 OA
BRANCH  19  23
ATOM     20  F   UNL     1      37.517 -22.792 -16.820  0.00  0.00    -0.133 F 
ATOM     21  F   UNL     1      35.891 -22.544 -15.381  0.00  0.00    -0.133 F 
ATOM     22  F   UNL     1      36.545 -20.824 -16.560  0.00  0.00    -0.133 F 
ATOM     23  C   UNL     1      36.347 -22.158 -16.595  0.00  0.00    +0.575 C 
ENDBRANCH  19  23
ENDBRANCH  18  19
ENDBRANCH  10  13
BRANCH   3  24
ATOM     24  C   UNL     1      33.874 -13.300 -23.530  0.00  0.00    +0.194 C 
BRANCH  24  27
ATOM     25  N   UNL     1      32.721 -13.561 -21.414  0.00  0.00    -0.217 NA
ATOM     26  N   UNL     1      32.642 -11.447 -22.568  0.00  0.00    -0.195 NA
ATOM     27  C   UNL     1      33.023 -12.732 -22.431  0.00  0.00    +0.028 C 
ATOM     28  C   UNL     1      31.955 -13.018 -20.445  0.00  0.00    +0.164 C 
ATOM     29  C   UNL     1      31.879 -10.969 -21.564  0.00  0.00    +0.107 C 
ATOM     30  C   UNL     1      31.500 -11.716 -20.466  0.00  0.00    +0.022 C 
ENDBRANCH  24  27
ENDBRANCH   3  24
TORSDOF 5
ENDMDL
MODEL 6
REMARK VINA RESULT:     -10.5      4.525      7.709
REMARK  Name = 71183216
REMARK  5 active torsions:
REMARK  status: ('A' for Active; 'I' for Inactive)
REMARK    1  A    between atoms: N_3  and  C_24
REMARK    2  A    between atoms: C_10  and  C_13
REMARK    3  A    between atoms: C_18  and  O_19
REMARK    4  A    between atoms: O_19  and  C_23
REMARK    5  A    between atoms: C_24  and  C_27
REMARK                            x       y       z     vdW  Elec       q    Type
REMARK                         _______ _______ _______ _____ _____    ______ ____
ROOT
ATOM      1  O   UNL     1      31.052  -9.279 -19.585  0.00  0.00    -0.473 OA
ATOM      2  O   UNL     1      31.490  -8.801 -23.465  0.00  0.00    -0.270 OA
ATOM      3  N   UNL     1      32.289  -7.670 -21.586  0.00  0.00    -0.259 N 
ATOM      4  C   UNL     1      32.928  -7.772 -20.277  0.00  0.00    +0.142 C 
ATOM      5  C   UNL     1      32.055 -10.110 -21.623  0.00  0.00    +0.087 C 
ATOM      6  C   UNL     1      31.935  -8.214 -19.208  0.00  0.00    +0.227 C 
ATOM      7  C   UNL     1      31.918  -8.804 -22.313  0.00  0.00    +0.253 C 
ATOM      8  C   UNL     1      31.654 -10.282 -20.292  0.00  0.00    +0.143 C 
ATOM      9  C   UNL     1      32.565 -11.197 -22.342  0.00  0.00    +0.008 C 
ATOM     10  C   UNL     1      32.681 -12.442 -21.725  0.00  0.00    +0.000 C 
ATOM     11  C   UNL     1      31.750 -11.534 -19.686  0.00  0.00    +0.037 C 
ATOM     12  C   UNL     1      32.275 -12.611 -20.400  0.00  0.00    +0.003 C 
ENDROOT
BRANCH  10  13
ATOM     13  C   UNL     1      33.217 -13.566 -22.463  0.00  0.00    +0.000 C 
ATOM     14  C   UNL     1      32.873 -13.750 -23.802  0.00  0.00    +0.003 C 
ATOM     15  C   UNL     1      34.077 -14.466 -21.833  0.00  0.00    +0.003 C 
ATOM     16  C   UNL     1      33.390 -14.835 -24.512  0.00  0.00    +0.037 C 
ATOM     17  C   UNL     1      34.593 -15.550 -22.543  0.00  0.00    +0.037 C 
ATOM     18  C   UNL     1      34.249 -15.735 -23.882  0.00  0.00    +0.147 C 
BRANCH  18  19
ATOM     19  O   UNL     1      34.752 -16.793 -24.574  0.00  0.00    -0.404 OA
BRANCH  19  23
ATOM     20  F   UNL     1      33.958 -18.447 -23.208  0.00  0.00    -0.133 F 
ATOM     21  F   UNL     1      34.780 -18.972 -25.164  0.00  0.00    -0.133 F 
ATOM     22  F   UNL     1      32.845 -17.961 -25.055  0.00  0.00    -0.133 F 
ATOM     23  C   UNL     1      34.069 -18.039 -24.491  0.00  0.00    +0.575 C 
ENDBRANCH  19  23
ENDBRANCH  18  19
ENDBRANCH  10  13
BRANCH   3  24
ATOM     24  C   UNL     1      32.083  -6.337 -22.130  0.00  0.00    +0.194 C 
BRANCH  24  27
ATOM     25  N   UNL     1      34.260  -6.560 -23.171  0.00  0.00    -0.217 NA
ATOM     26  N   UNL     1      32.533  -5.285 -24.267  0.00  0.00    -0.195 NA
ATOM     27  C   UNL     1      33.021  -6.041 -23.264  0.00  0.00    +0.028 C 
ATOM     28  C   UNL     1      35.076  -6.274 -24.207  0.00  0.00    +0.164 C 
ATOM     29  C   UNL     1      33.402  -5.039 -25.269  0.00  0.00    +0.107 C 
ATOM     30  C   UNL     1      34.698  -5.512 -25.293  0.00  0.00    +0.022 C 
ENDBRANCH  24  27
ENDBRANCH   3  24
TORSDOF 5
ENDMDL
MODEL 7
REMARK VINA RESULT:     -10.3      5.487      9.591
REMARK  Name = 71183216
REMARK  5 active torsions:
REMARK  status: ('A' for Active; 'I' for Inactive)
REMARK    1  A    between atoms: N_3  and  C_24
REMARK    2  A    between atoms: C_10  and  C_13
REMARK    3  A    between atoms: C_18  and  O_19
REMARK    4  A    between atoms: O_19  and  C_23
REMARK    5  A    between atoms: C_24  and  C_27
REMARK                            x       y       z     vdW  Elec       q    Type
REMARK                         _______ _______ _______ _____ _____    ______ ____
ROOT
ATOM      1  O   UNL     1      36.830 -22.533 -17.301  0.00  0.00    -0.473 OA
ATOM      2  O   UNL     1      33.544 -23.518 -19.225  0.00  0.00    -0.270 OA
ATOM      3  N   UNL     1      34.044 -23.050 -16.994  0.00  0.00    -0.259 N 
ATOM      4  C   UNL     1      34.696 -22.147 -16.050  0.00  0.00    +0.142 C 
ATOM      5  C   UNL     1      35.101 -21.829 -18.839  0.00  0.00    +0.087 C 
ATOM      6  C   UNL     1      36.204 -22.368 -16.022  0.00  0.00    +0.227 C 
ATOM      7  C   UNL     1      34.157 -22.875 -18.376  0.00  0.00    +0.253 C 
ATOM      8  C   UNL     1      36.370 -21.680 -18.265  0.00  0.00    +0.143 C 
ATOM      9  C   UNL     1      34.715 -21.001 -19.899  0.00  0.00    +0.008 C 
ATOM     10  C   UNL     1      35.593 -20.026 -20.371  0.00  0.00    +0.000 C 
ATOM     11  C   UNL     1      37.253 -20.718 -18.754  0.00  0.00    +0.037 C 
ATOM     12  C   UNL     1      36.859 -19.884 -19.800  0.00  0.00    +0.003 C 
ENDROOT
BRANCH  10  13
ATOM     13  C   UNL     1      35.193 -19.161 -21.460  0.00  0.00    +0.000 C 
ATOM     14  C   UNL     1      35.356 -17.780 -21.351  0.00  0.00    +0.003 C 
ATOM     15  C   UNL     1      34.641 -19.710 -22.618  0.00  0.00    +0.003 C 
ATOM     16  C   UNL     1      34.969 -16.948 -22.401  0.00  0.00    +0.037 C 
ATOM     17  C   UNL     1      34.254 -18.877 -23.668  0.00  0.00    +0.037 C 
ATOM     18  C   UNL     1      34.417 -17.496 -23.559  0.00  0.00    +0.147 C 
BRANCH  18  19
ATOM     19  O   UNL     1      34.038 -16.683 -24.583  0.00  0.00    -0.404 OA
BRANCH  19  23
ATOM     20  F   UNL     1      32.948 -14.959 -23.547  0.00  0.00    -0.133 F 
ATOM     21  F   UNL     1      33.815 -14.645 -25.528  0.00  0.00    -0.133 F 
ATOM     22  F   UNL     1      35.141 -14.838 -23.802  0.00  0.00    -0.133 F 
ATOM     23  C   UNL     1      33.988 -15.280 -24.347  0.00  0.00    +0.575 C 
ENDBRANCH  19  23
ENDBRANCH  18  19
ENDBRANCH  10  13
BRANCH   3  24
ATOM     24  C   UNL     1      33.236 -24.127 -16.443  0.00  0.00    +0.194 C 
BRANCH  24  27
ATOM     25  N   UNL     1      31.887 -23.757 -14.463  0.00  0.00    -0.217 NA
ATOM     26  N   UNL     1      31.067 -23.059 -16.620  0.00  0.00    -0.195 NA
ATOM     27  C   UNL     1      31.980 -23.614 -15.799  0.00  0.00    +0.028 C 
ATOM     28  C   UNL     1      30.746 -23.286 -13.918  0.00  0.00    +0.164 C 
ATOM     29  C   UNL     1      29.952 -22.610 -16.008  0.00  0.00    +0.107 C 
ATOM     30  C   UNL     1      29.734 -22.697 -14.648  0.00  0.00    +0.022 C 
ENDBRANCH  24  27
ENDBRANCH   3  24
TORSDOF 5
ENDMDL
MODEL 8
REMARK VINA RESULT:      -9.6      5.769      9.456
REMARK  Name = 71183216
REMARK  5 active torsions:
REMARK  status: ('A' for Active; 'I' for Inactive)
REMARK    1  A    between atoms: N_3  and  C_24
REMARK    2  A    between atoms: C_10  and  C_13
REMARK    3  A    between atoms: C_18  and  O_19
REMARK    4  A    between atoms: O_19  and  C_23
REMARK    5  A    between atoms: C_24  and  C_27
REMARK                            x       y       z     vdW  Elec       q    Type
REMARK                         _______ _______ _______ _____ _____    ______ ____
ROOT
ATOM      1  O   UNL     1      34.132 -18.818 -23.563  0.00  0.00    -0.473 OA
ATOM      2  O   UNL     1      34.987 -16.921 -20.225  0.00  0.00    -0.270 OA
ATOM      3  N   UNL     1      36.158 -18.398 -21.602  0.00  0.00    -0.259 N 
ATOM      4  C   UNL     1      36.562 -18.742 -22.963  0.00  0.00    +0.142 C 
ATOM      5  C   UNL     1      34.646 -16.698 -22.518  0.00  0.00    +0.087 C 
ATOM      6  C   UNL     1      35.425 -19.414 -23.726  0.00  0.00    +0.227 C 
ATOM      7  C   UNL     1      35.277 -17.345 -21.342  0.00  0.00    +0.253 C 
ATOM      8  C   UNL     1      34.138 -17.452 -23.584  0.00  0.00    +0.143 C 
ATOM      9  C   UNL     1      34.532 -15.304 -22.534  0.00  0.00    +0.008 C 
ATOM     10  C   UNL     1      33.920 -14.672 -23.617  0.00  0.00    +0.000 C 
ATOM     11  C   UNL     1      33.507 -16.817 -24.654  0.00  0.00    +0.037 C 
ATOM     12  C   UNL     1      33.410 -15.426 -24.675  0.00  0.00    +0.003 C 
ENDROOT
BRANCH  10  13
ATOM     13  C   UNL     1      33.809 -13.229 -23.641  0.00  0.00    +0.000 C 
ATOM     14  C   UNL     1      34.241 -12.514 -24.758  0.00  0.00    +0.003 C 
ATOM     15  C   UNL     1      33.271 -12.553 -22.546  0.00  0.00    +0.003 C 
ATOM     16  C   UNL     1      34.135 -11.124 -24.780  0.00  0.00    +0.037 C 
ATOM     17  C   UNL     1      33.165 -11.163 -22.568  0.00  0.00    +0.037 C 
ATOM     18  C   UNL     1      33.597 -10.448 -23.685  0.00  0.00    +0.147 C 
BRANCH  18  19
ATOM     19  O   UNL     1      33.495  -9.091 -23.706  0.00  0.00    -0.404 OA
BRANCH  19  23
ATOM     20  F   UNL     1      34.653  -7.654 -22.355  0.00  0.00    -0.133 F 
ATOM     21  F   UNL     1      34.764  -7.412 -24.524  0.00  0.00    -0.133 F 
ATOM     22  F   UNL     1      35.779  -9.104 -23.586  0.00  0.00    -0.133 F 
ATOM     23  C   UNL     1      34.681  -8.322 -23.528  0.00  0.00    +0.575 C 
ENDBRANCH  19  23
ENDBRANCH  18  19
ENDBRANCH  10  13
BRANCH   3  24
ATOM     24  C   UNL     1      36.736 -19.172 -20.516  0.00  0.00    +0.194 C 
BRANCH  24  27
ATOM     25  N   UNL     1      34.487 -20.063 -20.366  0.00  0.00    -0.217 NA
ATOM     26  N   UNL     1      36.272 -21.102 -19.125  0.00  0.00    -0.195 NA
ATOM     27  C   UNL     1      35.767 -20.179 -19.966  0.00  0.00    +0.028 C 
ATOM     28  C   UNL     1      33.644 -20.984 -19.853  0.00  0.00    +0.164 C 
ATOM     29  C   UNL     1      35.375 -21.991 -18.650  0.00  0.00    +0.107 C 
ATOM     30  C   UNL     1      34.035 -21.980 -18.983  0.00  0.00    +0.022 C 
ENDBRANCH  24  27
ENDBRANCH   3  24
TORSDOF 5
ENDMDL
MODEL 9
REMARK VINA RESULT:      -9.6      5.595      8.852
REMARK  Name = 71183216
REMARK  5 active torsions:
REMARK  status: ('A' for Active; 'I' for Inactive)
REMARK    1  A    between atoms: N_3  and  C_24
REMARK    2  A    between atoms: C_10  and  C_13
REMARK    3  A    between atoms: C_18  and  O_19
REMARK    4  A    between atoms: O_19  and  C_23
REMARK    5  A    between atoms: C_24  and  C_27
REMARK                            x       y       z     vdW  Elec       q    Type
REMARK                         _______ _______ _______ _____ _____    ______ ____
ROOT
ATOM      1  O   UNL     1      34.613  -6.613 -23.198  0.00  0.00    -0.473 OA
ATOM      2  O   UNL     1      31.506  -8.198 -21.382  0.00  0.00    -0.270 OA
ATOM      3  N   UNL     1      31.779  -6.472 -22.928  0.00  0.00    -0.259 N 
ATOM      4  C   UNL     1      32.384  -6.040 -24.185  0.00  0.00    +0.142 C 
ATOM      5  C   UNL     1      33.130  -8.516 -23.020  0.00  0.00    +0.087 C 
ATOM      6  C   UNL     1      33.858  -5.696 -24.002  0.00  0.00    +0.227 C 
ATOM      7  C   UNL     1      32.063  -7.719 -22.366  0.00  0.00    +0.253 C 
ATOM      8  C   UNL     1      34.332  -7.929 -23.436  0.00  0.00    +0.143 C 
ATOM      9  C   UNL     1      32.933  -9.890 -23.186  0.00  0.00    +0.008 C 
ATOM     10  C   UNL     1      33.930 -10.667 -23.774  0.00  0.00    +0.000 C 
ATOM     11  C   UNL     1      35.336  -8.713 -24.004  0.00  0.00    +0.037 C 
ATOM     12  C   UNL     1      35.129 -10.080 -24.183  0.00  0.00    +0.003 C 
ENDROOT
BRANCH  10  13
ATOM     13  C   UNL     1      33.725 -12.088 -23.957  0.00  0.00    +0.000 C 
ATOM     14  C   UNL     1      33.498 -12.603 -25.233  0.00  0.00    +0.003 C 
ATOM     15  C   UNL     1      33.752 -12.943 -22.855  0.00  0.00    +0.003 C 
ATOM     16  C   UNL     1      33.299 -13.972 -25.408  0.00  0.00    +0.037 C 
ATOM     17  C   UNL     1      33.553 -14.313 -23.030  0.00  0.00    +0.037 C 
ATOM     18  C   UNL     1      33.325 -14.827 -24.306  0.00  0.00    +0.147 C 
BRANCH  18  19
ATOM     19  O   UNL     1      33.129 -16.163 -24.477  0.00  0.00    -0.404 OA
BRANCH  19  23
ATOM     20  F   UNL     1      34.001 -18.207 -25.020  0.00  0.00    -0.133 F 
ATOM     21  F   UNL     1      34.570 -17.264 -23.132  0.00  0.00    -0.133 F 
ATOM     22  F   UNL     1      35.336 -16.445 -25.008  0.00  0.00    -0.133 F 
ATOM     23  C   UNL     1      34.263 -17.023 -24.427  0.00  0.00    +0.575 C 
ENDBRANCH  19  23
ENDBRANCH  18  19
ENDBRANCH  10  13
BRANCH   3  24
ATOM     24  C   UNL     1      30.834  -5.567 -22.294  0.00  0.00    +0.194 C 
BRANCH  24  27
ATOM     25  N   UNL     1      30.090  -4.074 -24.053  0.00  0.00    -0.217 NA
ATOM     26  N   UNL     1      31.579  -3.261 -22.340  0.00  0.00    -0.195 NA
ATOM     27  C   UNL     1      30.834  -4.211 -22.938  0.00  0.00    +0.028 C 
ATOM     28  C   UNL     1      30.114  -2.843 -24.605  0.00  0.00    +0.164 C 
ATOM     29  C   UNL     1      31.557  -2.056 -22.946  0.00  0.00    +0.107 C 
ATOM     30  C   UNL     1      30.836  -1.786 -24.091  0.00  0.00    +0.022 C 
ENDBRANCH  24  27
ENDBRANCH   3  24
TORSDOF 5
ENDMDL
