MODEL 1
REMARK VINA RESULT:     -12.1      0.000      0.000
REMARK  Name = 25191001
REMARK  7 active torsions:
REMARK  status: ('A' for Active; 'I' for Inactive)
REMARK    1  A    between atoms: C_1  and  N_9
REMARK    2  A    between atoms: C_2  and  O_24
REMARK    3  A    between atoms: N_8  and  C_14
REMARK    4  A    between atoms: C_15  and  C_23
REMARK    5  A    between atoms: O_24  and  C_26
REMARK    6  A    between atoms: C_28  and  C_33
REMARK    7  A    between atoms: N_32  and  C_35
REMARK                            x       y       z     vdW  Elec       q    Type
REMARK                         _______ _______ _______ _____ _____    ______ ____
ROOT
ATOM      1  C   UNL     1      34.883 -22.003 -18.343  0.00  0.00    +0.052 C 
ATOM      2  C   UNL     1      34.101 -23.502 -16.124  0.00  0.00    +0.145 C 
ATOM      3  C   UNL     1      35.687 -22.035 -17.204  0.00  0.00    +0.018 C 
ATOM      4  C   UNL     1      33.687 -22.720 -18.372  0.00  0.00    +0.018 C 
ATOM      5  C   UNL     1      35.297 -22.785 -16.095  0.00  0.00    +0.039 C 
ATOM      6  C   UNL     1      33.295 -23.471 -17.263  0.00  0.00    +0.039 C 
ENDROOT
BRANCH   1   9
ATOM      7  O   UNL     1      33.305 -20.131 -20.054  0.00  0.00    -0.252 OA
ATOM      8  N   UNL     1      35.276 -19.806 -21.277  0.00  0.00    -0.268 N 
ATOM      9  N   UNL     1      35.278 -21.241 -19.467  0.00  0.00    -0.268 N 
ATOM     10  C   UNL     1      34.494 -20.371 -20.241  0.00  0.00    +0.308 C 
ATOM     11  H   UNL     1      36.218 -20.092 -21.305  0.00  0.00    +0.156 HD
ATOM     12  H   UNL     1      36.219 -21.332 -19.740  0.00  0.00    +0.156 HD
BRANCH   8  14
ATOM     13 CL   UNL     1      33.638 -15.987 -25.480  0.00  0.00    -0.082 Cl
ATOM     14  C   UNL     1      34.890 -18.897 -22.264  0.00  0.00    +0.052 C 
ATOM     15  C   UNL     1      34.460 -16.625 -22.962  0.00  0.00    +0.083 C 
ATOM     16  C   UNL     1      34.846 -17.533 -21.975  0.00  0.00    +0.019 C 
ATOM     17  C   UNL     1      34.549 -19.354 -23.536  0.00  0.00    +0.016 C 
ATOM     18  C   UNL     1      34.119 -17.081 -24.235  0.00  0.00    +0.062 C 
ATOM     19  C   UNL     1      34.164 -18.446 -24.523  0.00  0.00    +0.013 C 
BRANCH  15  23
ATOM     20  F   UNL     1      33.188 -14.611 -22.738  0.00  0.00    -0.166 F 
ATOM     21  F   UNL     1      34.810 -14.911 -21.330  0.00  0.00    -0.166 F 
ATOM     22  F   UNL     1      35.249 -14.427 -23.404  0.00  0.00    -0.166 F 
ATOM     23  C   UNL     1      34.425 -15.172 -22.614  0.00  0.00    +0.419 C 
ENDBRANCH  15  23
ENDBRANCH   8  14
ENDBRANCH   1   9
BRANCH   2  24
ATOM     24  O   UNL     1      33.718 -24.233 -15.041  0.00  0.00    -0.453 OA
BRANCH  24  26
ATOM     25  N   UNL     1      36.658 -25.259 -12.252  0.00  0.00    -0.239 NA
ATOM     26  C   UNL     1      34.691 -24.574 -14.118  0.00  0.00    +0.149 C 
ATOM     27  C   UNL     1      35.838 -25.246 -14.527  0.00  0.00    +0.061 C 
ATOM     28  C   UNL     1      36.783 -25.563 -13.564  0.00  0.00    +0.137 C 
ATOM     29  C   UNL     1      34.527 -24.243 -12.777  0.00  0.00    +0.058 C 
ATOM     30  C   UNL     1      35.530 -24.606 -11.892  0.00  0.00    +0.102 C 
BRANCH  28  33
ATOM     31  O   UNL     1      37.942 -27.371 -14.505  0.00  0.00    -0.269 OA
ATOM     32  N   UNL     1      39.214 -25.633 -13.643  0.00  0.00    -0.313 N 
ATOM     33  C   UNL     1      37.999 -26.265 -13.934  0.00  0.00    +0.263 C 
ATOM     34  H   UNL     1      39.186 -24.759 -13.190  0.00  0.00    +0.149 HD
ATOM     35  C   UNL     1      40.505 -26.191 -13.970  0.00  0.00    +0.128 C 
ENDBRANCH  28  33
ENDBRANCH  24  26
ENDBRANCH   2  24
TORSDOF 6
ENDMDL
MODEL 2
REMARK VINA RESULT:     -12.0      5.867      9.805
REMARK  Name = 25191001
REMARK  7 active torsions:
REMARK  status: ('A' for Active; 'I' for Inactive)
REMARK    1  A    between atoms: C_1  and  N_9
REMARK    2  A    between atoms: C_2  and  O_24
REMARK    3  A    between atoms: N_8  and  C_14
REMARK    4  A    between atoms: C_15  and  C_23
REMARK    5  A    between atoms: O_24  and  C_26
REMARK    6  A    between atoms: C_28  and  C_33
REMARK    7  A    between atoms: N_32  and  C_35
REMARK                            x       y       z     vdW  Elec       q    Type
REMARK                         _______ _______ _______ _____ _____    ______ ____
ROOT
ATOM      1  C   UNL     1      33.533 -13.954 -22.573  0.00  0.00    +0.052 C 
ATOM      2  C   UNL     1      34.696 -16.439 -23.082  0.00  0.00    +0.145 C 
ATOM      3  C   UNL     1      34.228 -14.619 -21.563  0.00  0.00    +0.018 C 
ATOM      4  C   UNL     1      33.418 -14.532 -23.838  0.00  0.00    +0.018 C 
ATOM      5  C   UNL     1      34.810 -15.861 -21.818  0.00  0.00    +0.039 C 
ATOM      6  C   UNL     1      34.000 -15.775 -24.093  0.00  0.00    +0.039 C 
ENDROOT
BRANCH   1   9
ATOM      7  O   UNL     1      34.031 -11.295 -23.839  0.00  0.00    -0.252 OA
ATOM      8  N   UNL     1      32.400 -10.451 -22.383  0.00  0.00    -0.268 N 
ATOM      9  N   UNL     1      32.941 -12.695 -22.314  0.00  0.00    -0.268 N 
ATOM     10  C   UNL     1      33.213 -11.469 -22.941  0.00  0.00    +0.308 C 
ATOM     11  H   UNL     1      31.788 -10.738 -21.668  0.00  0.00    +0.156 HD
ATOM     12  H   UNL     1      32.256 -12.678 -21.609  0.00  0.00    +0.156 HD
BRANCH   8  14
ATOM     13 CL   UNL     1      32.155  -4.712 -23.776  0.00  0.00    -0.082 Cl
ATOM     14  C   UNL     1      32.351  -9.096 -22.715  0.00  0.00    +0.052 C 
ATOM     15  C   UNL     1      33.437  -7.107 -23.550  0.00  0.00    +0.083 C 
ATOM     16  C   UNL     1      33.486  -8.460 -23.219  0.00  0.00    +0.019 C 
ATOM     17  C   UNL     1      31.168  -8.379 -22.542  0.00  0.00    +0.016 C 
ATOM     18  C   UNL     1      32.253  -6.388 -23.377  0.00  0.00    +0.062 C 
ATOM     19  C   UNL     1      31.118  -7.025 -22.873  0.00  0.00    +0.013 C 
BRANCH  15  23
ATOM     20  F   UNL     1      35.164  -7.071 -25.205  0.00  0.00    -0.166 F 
ATOM     21  F   UNL     1      34.496  -5.155 -24.440  0.00  0.00    -0.166 F 
ATOM     22  F   UNL     1      35.697  -6.465 -23.186  0.00  0.00    -0.166 F 
ATOM     23  C   UNL     1      34.674  -6.462 -24.087  0.00  0.00    +0.419 C 
ENDBRANCH  15  23
ENDBRANCH   8  14
ENDBRANCH   1   9
BRANCH   2  24
ATOM     24  O   UNL     1      35.261 -17.652 -23.331  0.00  0.00    -0.453 OA
BRANCH  24  26
ATOM     25  N   UNL     1      36.022 -20.150 -20.067  0.00  0.00    -0.239 NA
ATOM     26  C   UNL     1      35.512 -18.479 -22.249  0.00  0.00    +0.149 C 
ATOM     27  C   UNL     1      34.477 -19.199 -21.664  0.00  0.00    +0.061 C 
ATOM     28  C   UNL     1      34.781 -20.013 -20.585  0.00  0.00    +0.137 C 
ATOM     29  C   UNL     1      36.803 -18.593 -21.744  0.00  0.00    +0.058 C 
ATOM     30  C   UNL     1      37.004 -19.434 -20.661  0.00  0.00    +0.102 C 
BRANCH  28  33
ATOM     31  O   UNL     1      32.551 -20.675 -20.292  0.00  0.00    -0.269 OA
ATOM     32  N   UNL     1      34.137 -21.671 -18.924  0.00  0.00    -0.313 N 
ATOM     33  C   UNL     1      33.738 -20.789 -19.936  0.00  0.00    +0.263 C 
ATOM     34  H   UNL     1      35.093 -21.711 -18.692  0.00  0.00    +0.149 HD
ATOM     35  C   UNL     1      33.223 -22.526 -18.202  0.00  0.00    +0.128 C 
ENDBRANCH  28  33
ENDBRANCH  24  26
ENDBRANCH   2  24
TORSDOF 6
ENDMDL
MODEL 3
REMARK VINA RESULT:     -11.9      2.912      4.499
REMARK  Name = 25191001
REMARK  7 active torsions:
REMARK  status: ('A' for Active; 'I' for Inactive)
REMARK    1  A    between atoms: C_1  and  N_9
REMARK    2  A    between atoms: C_2  and  O_24
REMARK    3  A    between atoms: N_8  and  C_14
REMARK    4  A    between atoms: C_15  and  C_23
REMARK    5  A    between atoms: O_24  and  C_26
REMARK    6  A    between atoms: C_28  and  C_33
REMARK    7  A    between atoms: N_32  and  C_35
REMARK                            x       y       z     vdW  Elec       q    Type
REMARK                         _______ _______ _______ _____ _____    ______ ____
ROOT
ATOM      1  C   UNL     1      35.234 -21.437 -18.973  0.00  0.00    +0.052 C 
ATOM      2  C   UNL     1      34.608 -23.183 -16.888  0.00  0.00    +0.145 C 
ATOM      3  C   UNL     1      36.134 -21.623 -17.924  0.00  0.00    +0.018 C 
ATOM      4  C   UNL     1      34.020 -22.125 -18.979  0.00  0.00    +0.018 C 
ATOM      5  C   UNL     1      35.822 -22.496 -16.882  0.00  0.00    +0.039 C 
ATOM      6  C   UNL     1      33.706 -22.998 -17.937  0.00  0.00    +0.039 C 
ENDROOT
BRANCH   1   9
ATOM      7  O   UNL     1      33.458 -19.689 -20.618  0.00  0.00    -0.252 OA
ATOM      8  N   UNL     1      35.399 -19.007 -21.740  0.00  0.00    -0.268 N 
ATOM      9  N   UNL     1      35.551 -20.551 -20.029  0.00  0.00    -0.268 N 
ATOM     10  C   UNL     1      34.674 -19.747 -20.774  0.00  0.00    +0.308 C 
ATOM     11  H   UNL     1      36.372 -19.156 -21.749  0.00  0.00    +0.156 HD
ATOM     12  H   UNL     1      36.503 -20.490 -20.270  0.00  0.00    +0.156 HD
BRANCH   8  14
ATOM     13 CL   UNL     1      33.358 -15.170 -25.745  0.00  0.00    -0.082 Cl
ATOM     14  C   UNL     1      34.917 -18.094 -22.679  0.00  0.00    +0.052 C 
ATOM     15  C   UNL     1      34.294 -15.838 -23.274  0.00  0.00    +0.083 C 
ATOM     16  C   UNL     1      34.775 -16.750 -22.335  0.00  0.00    +0.019 C 
ATOM     17  C   UNL     1      34.579 -18.527 -23.961  0.00  0.00    +0.016 C 
ATOM     18  C   UNL     1      33.956 -16.269 -24.557  0.00  0.00    +0.062 C 
ATOM     19  C   UNL     1      34.098 -17.615 -24.900  0.00  0.00    +0.013 C 
BRANCH  15  23
ATOM     20  F   UNL     1      32.862 -13.984 -22.787  0.00  0.00    -0.166 F 
ATOM     21  F   UNL     1      34.699 -14.134 -21.645  0.00  0.00    -0.166 F 
ATOM     22  F   UNL     1      34.769 -13.555 -23.740  0.00  0.00    -0.166 F 
ATOM     23  C   UNL     1      34.157 -14.406 -22.867  0.00  0.00    +0.419 C 
ENDBRANCH  15  23
ENDBRANCH   8  14
ENDBRANCH   1   9
BRANCH   2  24
ATOM     24  O   UNL     1      34.301 -24.034 -15.871  0.00  0.00    -0.453 OA
BRANCH  24  26
ATOM     25  N   UNL     1      30.823 -23.273 -13.680  0.00  0.00    -0.239 NA
ATOM     26  C   UNL     1      33.149 -23.781 -15.146  0.00  0.00    +0.149 C 
ATOM     27  C   UNL     1      31.976 -23.420 -15.800  0.00  0.00    +0.061 C 
ATOM     28  C   UNL     1      30.850 -23.179 -15.029  0.00  0.00    +0.137 C 
ATOM     29  C   UNL     1      33.160 -23.889 -13.760  0.00  0.00    +0.058 C 
ATOM     30  C   UNL     1      31.982 -23.626 -13.079  0.00  0.00    +0.102 C 
BRANCH  28  33
ATOM     31  O   UNL     1      29.561 -22.513 -16.870  0.00  0.00    -0.269 OA
ATOM     32  N   UNL     1      28.454 -22.795 -14.852  0.00  0.00    -0.313 N 
ATOM     33  C   UNL     1      29.598 -22.799 -15.659  0.00  0.00    +0.263 C 
ATOM     34  H   UNL     1      28.555 -23.031 -13.902  0.00  0.00    +0.149 HD
ATOM     35  C   UNL     1      27.134 -22.463 -15.337  0.00  0.00    +0.128 C 
ENDBRANCH  28  33
ENDBRANCH  24  26
ENDBRANCH   2  24
TORSDOF 6
ENDMDL
MODEL 4
REMARK VINA RESULT:     -11.6      4.335      7.375
REMARK  Name = 25191001
REMARK  7 active torsions:
REMARK  status: ('A' for Active; 'I' for Inactive)
REMARK    1  A    between atoms: C_1  and  N_9
REMARK    2  A    between atoms: C_2  and  O_24
REMARK    3  A    between atoms: N_8  and  C_14
REMARK    4  A    between atoms: C_15  and  C_23
REMARK    5  A    between atoms: O_24  and  C_26
REMARK    6  A    between atoms: C_28  and  C_33
REMARK    7  A    between atoms: N_32  and  C_35
REMARK                            x       y       z     vdW  Elec       q    Type
REMARK                         _______ _______ _______ _____ _____    ______ ____
ROOT
ATOM      1  C   UNL     1      34.641 -16.381 -22.912  0.00  0.00    +0.052 C 
ATOM      2  C   UNL     1      35.323 -18.848 -21.801  0.00  0.00    +0.145 C 
ATOM      3  C   UNL     1      35.022 -16.462 -21.572  0.00  0.00    +0.018 C 
ATOM      4  C   UNL     1      34.601 -17.534 -23.696  0.00  0.00    +0.018 C 
ATOM      5  C   UNL     1      35.364 -17.694 -21.017  0.00  0.00    +0.039 C 
ATOM      6  C   UNL     1      34.942 -18.768 -23.141  0.00  0.00    +0.039 C 
ENDROOT
BRANCH   1   9
ATOM      7  O   UNL     1      34.776 -13.637 -21.740  0.00  0.00    -0.252 OA
ATOM      8  N   UNL     1      33.928 -12.871 -23.785  0.00  0.00    -0.268 N 
ATOM      9  N   UNL     1      34.294 -15.130 -23.475  0.00  0.00    -0.268 N 
ATOM     10  C   UNL     1      34.376 -13.862 -22.878  0.00  0.00    +0.308 C 
ATOM     11  H   UNL     1      33.636 -13.200 -24.666  0.00  0.00    +0.156 HD
ATOM     12  H   UNL     1      33.952 -15.152 -24.397  0.00  0.00    +0.156 HD
BRANCH   8  14
ATOM     13 CL   UNL     1      33.617  -7.020 -23.008  0.00  0.00    -0.082 Cl
ATOM     14  C   UNL     1      33.847 -11.491 -23.597  0.00  0.00    +0.052 C 
ATOM     15  C   UNL     1      32.715  -9.569 -22.669  0.00  0.00    +0.083 C 
ATOM     16  C   UNL     1      32.795 -10.949 -22.857  0.00  0.00    +0.019 C 
ATOM     17  C   UNL     1      34.817 -10.654 -24.148  0.00  0.00    +0.016 C 
ATOM     18  C   UNL     1      33.685  -8.731 -23.220  0.00  0.00    +0.062 C 
ATOM     19  C   UNL     1      34.736  -9.274 -23.960  0.00  0.00    +0.013 C 
BRANCH  15  23
ATOM     20  F   UNL     1      30.721  -9.991 -21.416  0.00  0.00    -0.166 F 
ATOM     21  F   UNL     1      31.966  -8.342 -20.757  0.00  0.00    -0.166 F 
ATOM     22  F   UNL     1      30.802  -8.159 -22.585  0.00  0.00    -0.166 F 
ATOM     23  C   UNL     1      31.573  -9.027 -21.870  0.00  0.00    +0.419 C 
ENDBRANCH  15  23
ENDBRANCH   8  14
ENDBRANCH   1   9
BRANCH   2  24
ATOM     24  O   UNL     1      35.654 -20.052 -21.259  0.00  0.00    -0.453 OA
BRANCH  24  26
ATOM     25  N   UNL     1      32.973 -21.757 -18.542  0.00  0.00    -0.239 NA
ATOM     26  C   UNL     1      34.766 -20.618 -20.359  0.00  0.00    +0.149 C 
ATOM     27  C   UNL     1      35.238 -21.386 -19.300  0.00  0.00    +0.061 C 
ATOM     28  C   UNL     1      34.310 -21.928 -18.427  0.00  0.00    +0.137 C 
ATOM     29  C   UNL     1      33.399 -20.419 -20.511  0.00  0.00    +0.058 C 
ATOM     30  C   UNL     1      32.551 -21.005 -19.584  0.00  0.00    +0.102 C 
BRANCH  28  33
ATOM     31  O   UNL     1      34.104 -23.751 -16.968  0.00  0.00    -0.269 OA
ATOM     32  N   UNL     1      35.917 -22.342 -16.648  0.00  0.00    -0.313 N 
ATOM     33  C   UNL     1      34.746 -22.739 -17.304  0.00  0.00    +0.263 C 
ATOM     34  H   UNL     1      36.375 -21.530 -16.965  0.00  0.00    +0.149 HD
ATOM     35  C   UNL     1      36.490 -23.056 -15.531  0.00  0.00    +0.128 C 
ENDBRANCH  28  33
ENDBRANCH  24  26
ENDBRANCH   2  24
TORSDOF 6
ENDMDL
MODEL 5
REMARK VINA RESULT:     -11.5      5.781     11.681
REMARK  Name = 25191001
REMARK  7 active torsions:
REMARK  status: ('A' for Active; 'I' for Inactive)
REMARK    1  A    between atoms: C_1  and  N_9
REMARK    2  A    between atoms: C_2  and  O_24
REMARK    3  A    between atoms: N_8  and  C_14
REMARK    4  A    between atoms: C_15  and  C_23
REMARK    5  A    between atoms: O_24  and  C_26
REMARK    6  A    between atoms: C_28  and  C_33
REMARK    7  A    between atoms: N_32  and  C_35
REMARK                            x       y       z     vdW  Elec       q    Type
REMARK                         _______ _______ _______ _____ _____    ______ ____
ROOT
ATOM      1  C   UNL     1      36.388 -19.872 -20.053  0.00  0.00    +0.052 C 
ATOM      2  C   UNL     1      35.514 -18.920 -22.526  0.00  0.00    +0.145 C 
ATOM      3  C   UNL     1      37.235 -19.090 -20.839  0.00  0.00    +0.018 C 
ATOM      4  C   UNL     1      35.104 -20.179 -20.505  0.00  0.00    +0.018 C 
ATOM      5  C   UNL     1      36.798 -18.613 -22.074  0.00  0.00    +0.039 C 
ATOM      6  C   UNL     1      34.667 -19.702 -21.741  0.00  0.00    +0.039 C 
ENDROOT
BRANCH   1   9
ATOM      7  O   UNL     1      35.493 -22.247 -18.478  0.00  0.00    -0.252 OA
ATOM      8  N   UNL     1      37.086 -21.615 -16.881  0.00  0.00    -0.268 N 
ATOM      9  N   UNL     1      36.832 -20.356 -18.800  0.00  0.00    -0.268 N 
ATOM     10  C   UNL     1      36.376 -21.484 -18.099  0.00  0.00    +0.308 C 
ATOM     11  H   UNL     1      37.768 -20.927 -16.708  0.00  0.00    +0.156 HD
ATOM     12  H   UNL     1      37.549 -19.839 -18.367  0.00  0.00    +0.156 HD
BRANCH   8  14
ATOM     13 CL   UNL     1      36.461 -25.739 -12.693  0.00  0.00    -0.082 Cl
ATOM     14  C   UNL     1      36.947 -22.592 -15.893  0.00  0.00    +0.052 C 
ATOM     15  C   UNL     1      37.905 -24.348 -14.539  0.00  0.00    +0.083 C 
ATOM     16  C   UNL     1      38.043 -23.372 -15.526  0.00  0.00    +0.019 C 
ATOM     17  C   UNL     1      35.713 -22.786 -15.274  0.00  0.00    +0.016 C 
ATOM     18  C   UNL     1      36.671 -24.543 -13.918  0.00  0.00    +0.062 C 
ATOM     19  C   UNL     1      35.574 -23.761 -14.287  0.00  0.00    +0.013 C 
BRANCH  15  23
ATOM     20  F   UNL     1      38.922 -26.505 -14.344  0.00  0.00    -0.166 F 
ATOM     21  F   UNL     1      40.213 -24.856 -14.905  0.00  0.00    -0.166 F 
ATOM     22  F   UNL     1      39.465 -25.003 -12.869  0.00  0.00    -0.166 F 
ATOM     23  C   UNL     1      39.103 -25.163 -14.173  0.00  0.00    +0.419 C 
ENDBRANCH  15  23
ENDBRANCH   8  14
ENDBRANCH   1   9
BRANCH   2  24
ATOM     24  O   UNL     1      35.088 -18.457 -23.733  0.00  0.00    -0.453 OA
BRANCH  24  26
ATOM     25  N   UNL     1      33.769 -14.496 -23.942  0.00  0.00    -0.239 NA
ATOM     26  C   UNL     1      34.650 -17.145 -23.801  0.00  0.00    +0.149 C 
ATOM     27  C   UNL     1      34.430 -16.420 -22.636  0.00  0.00    +0.061 C 
ATOM     28  C   UNL     1      33.994 -15.111 -22.758  0.00  0.00    +0.137 C 
ATOM     29  C   UNL     1      34.430 -16.548 -25.037  0.00  0.00    +0.058 C 
ATOM     30  C   UNL     1      33.993 -15.233 -25.054  0.00  0.00    +0.102 C 
BRANCH  28  33
ATOM     31  O   UNL     1      34.563 -14.299 -20.634  0.00  0.00    -0.269 OA
ATOM     32  N   UNL     1      32.579 -13.535 -21.559  0.00  0.00    -0.313 N 
ATOM     33  C   UNL     1      33.747 -14.306 -21.574  0.00  0.00    +0.263 C 
ATOM     34  H   UNL     1      31.977 -13.588 -22.336  0.00  0.00    +0.149 HD
ATOM     35  C   UNL     1      32.207 -12.667 -20.466  0.00  0.00    +0.128 C 
ENDBRANCH  28  33
ENDBRANCH  24  26
ENDBRANCH   2  24
TORSDOF 6
ENDMDL
MODEL 6
REMARK VINA RESULT:     -11.5      5.395     11.201
REMARK  Name = 25191001
REMARK  7 active torsions:
REMARK  status: ('A' for Active; 'I' for Inactive)
REMARK    1  A    between atoms: C_1  and  N_9
REMARK    2  A    between atoms: C_2  and  O_24
REMARK    3  A    between atoms: N_8  and  C_14
REMARK    4  A    between atoms: C_15  and  C_23
REMARK    5  A    between atoms: O_24  and  C_26
REMARK    6  A    between atoms: C_28  and  C_33
REMARK    7  A    between atoms: N_32  and  C_35
REMARK                            x       y       z     vdW  Elec       q    Type
REMARK                         _______ _______ _______ _____ _____    ______ ____
ROOT
ATOM      1  C   UNL     1      35.305 -20.397 -20.255  0.00  0.00    +0.052 C 
ATOM      2  C   UNL     1      35.544 -18.749 -22.493  0.00  0.00    +0.145 C 
ATOM      3  C   UNL     1      34.212 -20.204 -21.100  0.00  0.00    +0.018 C 
ATOM      4  C   UNL     1      36.518 -19.765 -20.529  0.00  0.00    +0.018 C 
ATOM      5  C   UNL     1      34.331 -19.381 -22.219  0.00  0.00    +0.039 C 
ATOM      6  C   UNL     1      36.638 -18.940 -21.649  0.00  0.00    +0.039 C 
ENDROOT
BRANCH   1   9
ATOM      7  O   UNL     1      32.871 -21.280 -18.765  0.00  0.00    -0.252 OA
ATOM      8  N   UNL     1      34.328 -22.460 -17.360  0.00  0.00    -0.268 N 
ATOM      9  N   UNL     1      35.183 -21.231 -19.119  0.00  0.00    -0.268 N 
ATOM     10  C   UNL     1      34.009 -21.618 -18.453  0.00  0.00    +0.308 C 
ATOM     11  H   UNL     1      35.286 -22.646 -17.230  0.00  0.00    +0.156 HD
ATOM     12  H   UNL     1      36.025 -21.584 -18.750  0.00  0.00    +0.156 HD
BRANCH   8  14
ATOM     13 CL   UNL     1      30.704 -25.027 -13.461  0.00  0.00    -0.082 Cl
ATOM     14  C   UNL     1      33.465 -23.062 -16.444  0.00  0.00    +0.052 C 
ATOM     15  C   UNL     1      31.224 -23.489 -15.650  0.00  0.00    +0.083 C 
ATOM     16  C   UNL     1      32.086 -22.887 -16.565  0.00  0.00    +0.019 C 
ATOM     17  C   UNL     1      33.981 -23.839 -15.407  0.00  0.00    +0.016 C 
ATOM     18  C   UNL     1      31.739 -24.267 -14.612  0.00  0.00    +0.062 C 
ATOM     19  C   UNL     1      33.119 -24.441 -14.491  0.00  0.00    +0.013 C 
BRANCH  15  23
ATOM     20  F   UNL     1      29.163 -22.690 -14.734  0.00  0.00    -0.166 F 
ATOM     21  F   UNL     1      29.435 -22.481 -16.875  0.00  0.00    -0.166 F 
ATOM     22  F   UNL     1      29.078 -24.445 -16.014  0.00  0.00    -0.166 F 
ATOM     23  C   UNL     1      29.754 -23.278 -15.814  0.00  0.00    +0.419 C 
ENDBRANCH  15  23
ENDBRANCH   8  14
ENDBRANCH   1   9
BRANCH   2  24
ATOM     24  O   UNL     1      35.660 -17.943 -23.584  0.00  0.00    -0.453 OA
BRANCH  24  26
ATOM     25  N   UNL     1      33.272 -14.515 -23.737  0.00  0.00    -0.239 NA
ATOM     26  C   UNL     1      34.868 -16.808 -23.634  0.00  0.00    +0.149 C 
ATOM     27  C   UNL     1      34.671 -16.043 -22.490  0.00  0.00    +0.061 C 
ATOM     28  C   UNL     1      33.872 -14.916 -22.592  0.00  0.00    +0.137 C 
ATOM     29  C   UNL     1      34.269 -16.428 -24.829  0.00  0.00    +0.058 C 
ATOM     30  C   UNL     1      33.487 -15.284 -24.828  0.00  0.00    +0.102 C 
BRANCH  28  33
ATOM     31  O   UNL     1      34.479 -14.001 -20.521  0.00  0.00    -0.269 OA
ATOM     32  N   UNL     1      32.429 -13.362 -21.398  0.00  0.00    -0.313 N 
ATOM     33  C   UNL     1      33.631 -14.079 -21.430  0.00  0.00    +0.263 C 
ATOM     34  H   UNL     1      31.803 -13.471 -22.150  0.00  0.00    +0.149 HD
ATOM     35  C   UNL     1      32.057 -12.471 -20.324  0.00  0.00    +0.128 C 
ENDBRANCH  28  33
ENDBRANCH  24  26
ENDBRANCH   2  24
TORSDOF 6
ENDMDL
MODEL 7
REMARK VINA RESULT:     -11.5      5.437     11.876
REMARK  Name = 25191001
REMARK  7 active torsions:
REMARK  status: ('A' for Active; 'I' for Inactive)
REMARK    1  A    between atoms: C_1  and  N_9
REMARK    2  A    between atoms: C_2  and  O_24
REMARK    3  A    between atoms: N_8  and  C_14
REMARK    4  A    between atoms: C_15  and  C_23
REMARK    5  A    between atoms: O_24  and  C_26
REMARK    6  A    between atoms: C_28  and  C_33
REMARK    7  A    between atoms: N_32  and  C_35
REMARK                            x       y       z     vdW  Elec       q    Type
REMARK                         _______ _______ _______ _____ _____    ______ ____
ROOT
ATOM      1  C   UNL     1      35.014 -18.783 -22.641  0.00  0.00    +0.052 C 
ATOM      2  C   UNL     1      34.140 -17.098 -24.686  0.00  0.00    +0.145 C 
ATOM      3  C   UNL     1      34.181 -19.278 -23.645  0.00  0.00    +0.018 C 
ATOM      4  C   UNL     1      35.410 -17.446 -22.660  0.00  0.00    +0.018 C 
ATOM      5  C   UNL     1      33.744 -18.436 -24.667  0.00  0.00    +0.039 C 
ATOM      6  C   UNL     1      34.973 -16.602 -23.683  0.00  0.00    +0.039 C 
ENDROOT
BRANCH   1   9
ATOM      7  O   UNL     1      33.495 -20.020 -20.386  0.00  0.00    -0.252 OA
ATOM      8  N   UNL     1      35.524 -20.992 -19.735  0.00  0.00    -0.268 N 
ATOM      9  N   UNL     1      35.456 -19.637 -21.603  0.00  0.00    -0.268 N 
ATOM     10  C   UNL     1      34.697 -20.194 -20.562  0.00  0.00    +0.308 C 
ATOM     11  H   UNL     1      36.472 -21.040 -19.998  0.00  0.00    +0.156 HD
ATOM     12  H   UNL     1      36.412 -19.869 -21.613  0.00  0.00    +0.156 HD
BRANCH   8  14
ATOM     13 CL   UNL     1      34.007 -24.081 -14.929  0.00  0.00    -0.082 Cl
ATOM     14  C   UNL     1      35.175 -21.721 -18.597  0.00  0.00    +0.052 C 
ATOM     15  C   UNL     1      35.778 -22.699 -16.472  0.00  0.00    +0.083 C 
ATOM     16  C   UNL     1      36.128 -21.971 -17.609  0.00  0.00    +0.019 C 
ATOM     17  C   UNL     1      33.873 -22.199 -18.448  0.00  0.00    +0.016 C 
ATOM     18  C   UNL     1      34.476 -23.177 -16.322  0.00  0.00    +0.062 C 
ATOM     19  C   UNL     1      33.523 -22.927 -17.311  0.00  0.00    +0.013 C 
BRANCH  15  23
ATOM     20  F   UNL     1      37.033 -24.267 -15.172  0.00  0.00    -0.166 F 
ATOM     21  F   UNL     1      38.054 -22.452 -15.777  0.00  0.00    -0.166 F 
ATOM     22  F   UNL     1      36.521 -22.373 -14.237  0.00  0.00    -0.166 F 
ATOM     23  C   UNL     1      36.827 -22.945 -15.436  0.00  0.00    +0.419 C 
ENDBRANCH  15  23
ENDBRANCH   8  14
ENDBRANCH   1   9
BRANCH   2  24
ATOM     24  O   UNL     1      33.712 -16.275 -25.683  0.00  0.00    -0.453 OA
BRANCH  24  26
ATOM     25  N   UNL     1      33.342 -12.203 -24.815  0.00  0.00    -0.239 NA
ATOM     26  C   UNL     1      33.588 -14.927 -25.395  0.00  0.00    +0.149 C 
ATOM     27  C   UNL     1      33.260 -14.514 -24.108  0.00  0.00    +0.061 C 
ATOM     28  C   UNL     1      33.150 -13.153 -23.872  0.00  0.00    +0.137 C 
ATOM     29  C   UNL     1      33.794 -13.980 -26.392  0.00  0.00    +0.058 C 
ATOM     30  C   UNL     1      33.659 -12.642 -26.054  0.00  0.00    +0.102 C 
BRANCH  28  33
ATOM     31  O   UNL     1      32.705 -11.442 -22.332  0.00  0.00    -0.269 OA
ATOM     32  N   UNL     1      32.586 -13.623 -21.552  0.00  0.00    -0.313 N 
ATOM     33  C   UNL     1      32.810 -12.664 -22.547  0.00  0.00    +0.263 C 
ATOM     34  H   UNL     1      32.686 -14.573 -21.790  0.00  0.00    +0.149 HD
ATOM     35  C   UNL     1      32.217 -13.296 -20.194  0.00  0.00    +0.128 C 
ENDBRANCH  28  33
ENDBRANCH  24  26
ENDBRANCH   2  24
TORSDOF 6
ENDMDL
MODEL 8
REMARK VINA RESULT:     -11.4      5.591      9.716
REMARK  Name = 25191001
REMARK  7 active torsions:
REMARK  status: ('A' for Active; 'I' for Inactive)
REMARK    1  A    between atoms: C_1  and  N_9
REMARK    2  A    between atoms: C_2  and  O_24
REMARK    3  A    between atoms: N_8  and  C_14
REMARK    4  A    between atoms: C_15  and  C_23
REMARK    5  A    between atoms: O_24  and  C_26
REMARK    6  A    between atoms: C_28  and  C_33
REMARK    7  A    between atoms: N_32  and  C_35
REMARK                            x       y       z     vdW  Elec       q    Type
REMARK                         _______ _______ _______ _____ _____    ______ ____
ROOT
ATOM      1  C   UNL     1      33.996 -14.061 -23.988  0.00  0.00    +0.052 C 
ATOM      2  C   UNL     1      34.351 -16.827 -23.880  0.00  0.00    +0.145 C 
ATOM      3  C   UNL     1      34.576 -14.647 -22.862  0.00  0.00    +0.018 C 
ATOM      4  C   UNL     1      33.594 -14.859 -25.060  0.00  0.00    +0.018 C 
ATOM      5  C   UNL     1      34.753 -16.029 -22.808  0.00  0.00    +0.039 C 
ATOM      6  C   UNL     1      33.771 -16.242 -25.006  0.00  0.00    +0.039 C 
ENDROOT
BRANCH   1   9
ATOM      7  O   UNL     1      32.530 -12.236 -22.134  0.00  0.00    -0.252 OA
ATOM      8  N   UNL     1      33.173 -10.494 -23.562  0.00  0.00    -0.268 N 
ATOM      9  N   UNL     1      33.815 -12.659 -24.042  0.00  0.00    -0.268 N 
ATOM     10  C   UNL     1      33.113 -11.844 -23.141  0.00  0.00    +0.308 C 
ATOM     11  H   UNL     1      33.678 -10.327 -24.391  0.00  0.00    +0.156 HD
ATOM     12  H   UNL     1      34.232 -12.200 -24.806  0.00  0.00    +0.156 HD
BRANCH   8  14
ATOM     13 CL   UNL     1      30.794  -5.708 -21.039  0.00  0.00    -0.082 Cl
ATOM     14  C   UNL     1      32.614  -9.367 -22.958  0.00  0.00    +0.052 C 
ATOM     15  C   UNL     1      32.142  -8.075 -20.972  0.00  0.00    +0.083 C 
ATOM     16  C   UNL     1      32.701  -9.201 -21.576  0.00  0.00    +0.019 C 
ATOM     17  C   UNL     1      31.968  -8.407 -23.737  0.00  0.00    +0.016 C 
ATOM     18  C   UNL     1      31.496  -7.114 -21.750  0.00  0.00    +0.062 C 
ATOM     19  C   UNL     1      31.409  -7.280 -23.134  0.00  0.00    +0.013 C 
BRANCH  15  23
ATOM     20  F   UNL     1      31.058  -7.740 -18.865  0.00  0.00    -0.166 F 
ATOM     21  F   UNL     1      32.804  -9.025 -18.880  0.00  0.00    -0.166 F 
ATOM     22  F   UNL     1      33.037  -6.877 -19.124  0.00  0.00    -0.166 F 
ATOM     23  C   UNL     1      32.257  -7.934 -19.488  0.00  0.00    +0.419 C 
ENDBRANCH  15  23
ENDBRANCH   8  14
ENDBRANCH   1   9
BRANCH   2  24
ATOM     24  O   UNL     1      34.522 -18.176 -23.826  0.00  0.00    -0.453 OA
BRANCH  24  26
ATOM     25  N   UNL     1      35.849 -19.828 -20.223  0.00  0.00    -0.239 NA
ATOM     26  C   UNL     1      34.960 -18.723 -22.632  0.00  0.00    +0.149 C 
ATOM     27  C   UNL     1      34.095 -19.478 -21.849  0.00  0.00    +0.061 C 
ATOM     28  C   UNL     1      34.583 -20.004 -20.664  0.00  0.00    +0.137 C 
ATOM     29  C   UNL     1      36.271 -18.520 -22.213  0.00  0.00    +0.058 C 
ATOM     30  C   UNL     1      36.663 -19.088 -21.011  0.00  0.00    +0.102 C 
BRANCH  28  33
ATOM     31  O   UNL     1      32.486 -20.664 -19.849  0.00  0.00    -0.269 OA
ATOM     32  N   UNL     1      34.346 -21.728 -18.963  0.00  0.00    -0.313 N 
ATOM     33  C   UNL     1      33.723 -20.800 -19.806  0.00  0.00    +0.263 C 
ATOM     34  H   UNL     1      35.329 -21.784 -18.979  0.00  0.00    +0.149 HD
ATOM     35  C   UNL     1      33.627 -22.607 -18.070  0.00  0.00    +0.128 C 
ENDBRANCH  28  33
ENDBRANCH  24  26
ENDBRANCH   2  24
TORSDOF 6
ENDMDL
MODEL 9
REMARK VINA RESULT:     -11.4      5.863     11.918
REMARK  Name = 25191001
REMARK  7 active torsions:
REMARK  status: ('A' for Active; 'I' for Inactive)
REMARK    1  A    between atoms: C_1  and  N_9
REMARK    2  A    between atoms: C_2  and  O_24
REMARK    3  A    between atoms: N_8  and  C_14
REMARK    4  A    between atoms: C_15  and  C_23
REMARK    5  A    between atoms: O_24  and  C_26
REMARK    6  A    between atoms: C_28  and  C_33
REMARK    7  A    between atoms: N_32  and  C_35
REMARK                            x       y       z     vdW  Elec       q    Type
REMARK                         _______ _______ _______ _____ _____    ______ ____
ROOT
ATOM      1  C   UNL     1      35.085 -21.066 -19.513  0.00  0.00    +0.052 C 
ATOM      2  C   UNL     1      35.774 -19.285 -21.547  0.00  0.00    +0.145 C 
ATOM      3  C   UNL     1      34.097 -20.548 -20.351  0.00  0.00    +0.018 C 
ATOM      4  C   UNL     1      36.417 -20.694 -19.692  0.00  0.00    +0.018 C 
ATOM      5  C   UNL     1      34.441 -19.658 -21.368  0.00  0.00    +0.039 C 
ATOM      6  C   UNL     1      36.762 -19.803 -20.709  0.00  0.00    +0.039 C 
ENDROOT
BRANCH   1   9
ATOM      7  O   UNL     1      36.352 -21.530 -16.848  0.00  0.00    -0.252 OA
ATOM      8  N   UNL     1      34.700 -23.153 -16.499  0.00  0.00    -0.268 N 
ATOM      9  N   UNL     1      34.735 -21.968 -18.480  0.00  0.00    -0.268 N 
ATOM     10  C   UNL     1      35.367 -22.148 -17.240  0.00  0.00    +0.308 C 
ATOM     11  H   UNL     1      33.922 -23.564 -16.940  0.00  0.00    +0.156 HD
ATOM     12  H   UNL     1      33.952 -22.539 -18.653  0.00  0.00    +0.156 HD
BRANCH   8  14
ATOM     13 CL   UNL     1      35.926 -25.200 -11.091  0.00  0.00    -0.082 Cl
ATOM     14  C   UNL     1      34.998 -23.639 -15.225  0.00  0.00    +0.052 C 
ATOM     15  C   UNL     1      36.574 -24.605 -13.670  0.00  0.00    +0.083 C 
ATOM     16  C   UNL     1      36.277 -24.120 -14.943  0.00  0.00    +0.019 C 
ATOM     17  C   UNL     1      34.017 -23.642 -14.233  0.00  0.00    +0.016 C 
ATOM     18  C   UNL     1      35.594 -24.608 -12.677  0.00  0.00    +0.062 C 
ATOM     19  C   UNL     1      34.315 -24.127 -12.960  0.00  0.00    +0.013 C 
BRANCH  15  23
ATOM     20  F   UNL     1      38.799 -24.970 -14.472  0.00  0.00    -0.166 F 
ATOM     21  F   UNL     1      38.579 -24.480 -12.372  0.00  0.00    -0.166 F 
ATOM     22  F   UNL     1      37.975 -26.439 -13.097  0.00  0.00    -0.166 F 
ATOM     23  C   UNL     1      37.956 -25.112 -13.408  0.00  0.00    +0.419 C 
ENDBRANCH  15  23
ENDBRANCH   8  14
ENDBRANCH   1   9
BRANCH   2  24
ATOM     24  O   UNL     1      36.110 -18.414 -22.538  0.00  0.00    -0.453 OA
BRANCH  24  26
ATOM     25  N   UNL     1      33.929 -14.860 -22.819  0.00  0.00    -0.239 NA
ATOM     26  C   UNL     1      35.389 -17.237 -22.632  0.00  0.00    +0.149 C 
ATOM     27  C   UNL     1      34.892 -16.817 -23.861  0.00  0.00    +0.061 C 
ATOM     28  C   UNL     1      34.175 -15.633 -23.901  0.00  0.00    +0.137 C 
ATOM     29  C   UNL     1      35.156 -16.469 -21.496  0.00  0.00    +0.058 C 
ATOM     30  C   UNL     1      34.428 -15.299 -21.641  0.00  0.00    +0.102 C 
BRANCH  28  33
ATOM     31  O   UNL     1      33.369 -15.939 -26.082  0.00  0.00    -0.269 OA
ATOM     32  N   UNL     1      33.403 -13.769 -25.263  0.00  0.00    -0.313 N 
ATOM     33  C   UNL     1      33.632 -15.146 -25.158  0.00  0.00    +0.263 C 
ATOM     34  H   UNL     1      33.634 -13.200 -24.494  0.00  0.00    +0.149 HD
ATOM     35  C   UNL     1      32.846 -13.138 -26.437  0.00  0.00    +0.128 C 
ENDBRANCH  28  33
ENDBRANCH  24  26
ENDBRANCH   2  24
TORSDOF 6
ENDMDL
