MODEL 1
REMARK VINA RESULT:     -12.0      0.000      0.000
REMARK  Name = 59473233
REMARK  3 active torsions:
REMARK  status: ('A' for Active; 'I' for Inactive)
REMARK    1  A    between atoms: N_1  and  C_25
REMARK    2  A    between atoms: C_7  and  C_14
REMARK    3  A    between atoms: C_22  and  N_29
REMARK                            x       y       z     vdW  Elec       q    Type
REMARK                         _______ _______ _______ _____ _____    ______ ____
ROOT
ATOM      1  N   UNL     1      36.601 -22.969 -15.987  0.00  0.00    -0.286 N 
ATOM      2  N   UNL     1      35.288 -23.768 -12.620  0.00  0.00    -0.260 N 
ATOM      3  N   UNL     1      34.439 -23.432 -15.234  0.00  0.00    -0.387 NA
ATOM      4  N   UNL     1      37.412 -23.355 -13.163  0.00  0.00    -0.224 NA
ATOM      5  C   UNL     1      35.724 -23.284 -14.976  0.00  0.00    +0.216 C 
ATOM      6  C   UNL     1      36.182 -23.460 -13.612  0.00  0.00    +0.180 C 
ATOM      7  C   UNL     1      33.557 -23.753 -14.201  0.00  0.00    +0.131 C 
ATOM      8  C   UNL     1      33.949 -23.916 -12.917  0.00  0.00    +0.156 C 
ATOM      9  C   UNL     1      35.995 -23.866 -11.455  0.00  0.00    +0.088 C 
ATOM     10  C   UNL     1      37.301 -23.607 -11.815  0.00  0.00    +0.117 C 
ATOM     11  H   UNL     1      37.524 -23.299 -15.889  0.00  0.00    +0.155 HD
ENDROOT
BRANCH   7  14
ATOM     12  N   UNL     1      29.414 -22.645 -16.763  0.00  0.00    -0.236 N 
ATOM     13  N   UNL     1      28.146 -23.090 -16.749  0.00  0.00    -0.180 NA
ATOM     14  C   UNL     1      32.127 -23.893 -14.554  0.00  0.00    +0.028 C 
ATOM     15  C   UNL     1      30.234 -23.258 -15.854  0.00  0.00    +0.067 C 
ATOM     16  C   UNL     1      31.588 -23.085 -15.561  0.00  0.00    +0.018 C 
ATOM     17  C   UNL     1      29.428 -24.180 -15.197  0.00  0.00    +0.035 C 
ATOM     18  C   UNL     1      31.339 -24.826 -13.877  0.00  0.00    +0.002 C 
ATOM     19  C   UNL     1      29.983 -24.984 -14.187  0.00  0.00    +0.003 C 
ATOM     20  C   UNL     1      28.158 -24.023 -15.795  0.00  0.00    +0.119 C 
ATOM     21  H   UNL     1      29.725 -21.938 -17.373  0.00  0.00    +0.174 HD
ENDBRANCH   7  14
BRANCH   1  25
ATOM     22  C   UNL     1      35.756 -20.761 -19.437  0.00  0.00    +0.048 C 
ATOM     23  C   UNL     1      36.946 -20.542 -18.742  0.00  0.00    +0.016 C 
ATOM     24  C   UNL     1      34.849 -21.717 -18.980  0.00  0.00    +0.016 C 
ATOM     25  C   UNL     1      36.319 -22.233 -17.134  0.00  0.00    +0.050 C 
ATOM     26  C   UNL     1      37.228 -21.278 -17.590  0.00  0.00    +0.016 C 
ATOM     27  C   UNL     1      35.129 -22.452 -17.829  0.00  0.00    +0.016 C 
BRANCH  22  29
ATOM     28  O   UNL     1      34.858 -18.323 -22.741  0.00  0.00    -0.350 OA
ATOM     29  N   UNL     1      35.474 -20.023 -20.591  0.00  0.00    -0.303 N 
ATOM     30  C   UNL     1      36.368 -18.910 -20.937  0.00  0.00    +0.123 C 
ATOM     31  C   UNL     1      34.087 -19.875 -21.044  0.00  0.00    +0.123 C 
ATOM     32  C   UNL     1      36.225 -18.576 -22.417  0.00  0.00    +0.164 C 
ATOM     33  C   UNL     1      34.065 -19.487 -22.518  0.00  0.00    +0.164 C 
ENDBRANCH  22  29
ENDBRANCH   1  25
TORSDOF 3
ENDMDL
MODEL 2
REMARK VINA RESULT:      -9.6      2.533      7.078
REMARK  Name = 59473233
REMARK  3 active torsions:
REMARK  status: ('A' for Active; 'I' for Inactive)
REMARK    1  A    between atoms: N_1  and  C_25
REMARK    2  A    between atoms: C_7  and  C_14
REMARK    3  A    between atoms: C_22  and  N_29
REMARK                            x       y       z     vdW  Elec       q    Type
REMARK                         _______ _______ _______ _____ _____    ______ ____
ROOT
ATOM      1  N   UNL     1      34.011 -23.858 -13.032  0.00  0.00    -0.286 N 
ATOM      2  N   UNL     1      37.544 -24.555 -13.887  0.00  0.00    -0.260 N 
ATOM      3  N   UNL     1      35.400 -23.007 -14.706  0.00  0.00    -0.387 NA
ATOM      4  N   UNL     1      36.366 -25.469 -12.229  0.00  0.00    -0.224 NA
ATOM      5  C   UNL     1      35.228 -23.806 -13.672  0.00  0.00    +0.216 C 
ATOM      6  C   UNL     1      36.343 -24.620 -13.230  0.00  0.00    +0.180 C 
ATOM      7  C   UNL     1      36.638 -22.960 -15.347  0.00  0.00    +0.131 C 
ATOM      8  C   UNL     1      37.697 -23.710 -14.968  0.00  0.00    +0.156 C 
ATOM      9  C   UNL     1      38.394 -25.423 -13.262  0.00  0.00    +0.088 C 
ATOM     10  C   UNL     1      37.645 -25.974 -12.244  0.00  0.00    +0.117 C 
ATOM     11  H   UNL     1      34.026 -24.071 -12.071  0.00  0.00    +0.155 HD
ENDROOT
BRANCH   7  14
ATOM     12  N   UNL     1      35.475 -21.285 -19.908  0.00  0.00    -0.236 N 
ATOM     13  N   UNL     1      35.908 -20.278 -20.684  0.00  0.00    -0.180 NA
ATOM     14  C   UNL     1      36.763 -22.052 -16.509  0.00  0.00    +0.028 C 
ATOM     15  C   UNL     1      36.103 -21.368 -18.694  0.00  0.00    +0.067 C 
ATOM     16  C   UNL     1      35.944 -22.253 -17.626  0.00  0.00    +0.018 C 
ATOM     17  C   UNL     1      37.021 -20.324 -18.684  0.00  0.00    +0.035 C 
ATOM     18  C   UNL     1      37.694 -21.013 -16.474  0.00  0.00    +0.002 C 
ATOM     19  C   UNL     1      37.837 -20.135 -17.556  0.00  0.00    +0.003 C 
ATOM     20  C   UNL     1      36.849 -19.696 -19.937  0.00  0.00    +0.119 C 
ATOM     21  H   UNL     1      34.767 -21.909 -20.188  0.00  0.00    +0.174 HD
ENDBRANCH   7  14
BRANCH   1  25
ATOM     22  C   UNL     1      30.254 -23.203 -14.749  0.00  0.00    +0.048 C 
ATOM     23  C   UNL     1      30.356 -23.535 -13.397  0.00  0.00    +0.016 C 
ATOM     24  C   UNL     1      31.406 -23.090 -15.527  0.00  0.00    +0.016 C 
ATOM     25  C   UNL     1      32.760 -23.642 -13.604  0.00  0.00    +0.050 C 
ATOM     26  C   UNL     1      31.609 -23.754 -12.824  0.00  0.00    +0.016 C 
ATOM     27  C   UNL     1      32.659 -23.310 -14.955  0.00  0.00    +0.016 C 
BRANCH  22  29
ATOM     28  O   UNL     1      26.581 -22.309 -16.587  0.00  0.00    -0.350 OA
ATOM     29  N   UNL     1      28.998 -22.983 -15.322  0.00  0.00    -0.303 N 
ATOM     30  C   UNL     1      28.883 -23.045 -16.785  0.00  0.00    +0.123 C 
ATOM     31  C   UNL     1      28.034 -22.098 -14.657  0.00  0.00    +0.123 C 
ATOM     32  C   UNL     1      27.431 -23.292 -17.178  0.00  0.00    +0.164 C 
ATOM     33  C   UNL     1      26.628 -22.395 -15.164  0.00  0.00    +0.164 C 
ENDBRANCH  22  29
ENDBRANCH   1  25
TORSDOF 3
ENDMDL
MODEL 3
REMARK VINA RESULT:      -9.5      1.486      2.109
REMARK  Name = 59473233
REMARK  3 active torsions:
REMARK  status: ('A' for Active; 'I' for Inactive)
REMARK    1  A    between atoms: N_1  and  C_25
REMARK    2  A    between atoms: C_7  and  C_14
REMARK    3  A    between atoms: C_22  and  N_29
REMARK                            x       y       z     vdW  Elec       q    Type
REMARK                         _______ _______ _______ _____ _____    ______ ____
ROOT
ATOM      1  N   UNL     1      35.216 -23.149 -16.797  0.00  0.00    -0.286 N 
ATOM      2  N   UNL     1      33.646 -23.955 -13.544  0.00  0.00    -0.260 N 
ATOM      3  N   UNL     1      32.983 -23.163 -16.113  0.00  0.00    -0.387 NA
ATOM      4  N   UNL     1      35.823 -24.002 -14.024  0.00  0.00    -0.224 NA
ATOM      5  C   UNL     1      34.258 -23.350 -15.831  0.00  0.00    +0.216 C 
ATOM      6  C   UNL     1      34.618 -23.767 -14.491  0.00  0.00    +0.180 C 
ATOM      7  C   UNL     1      32.018 -23.370 -15.127  0.00  0.00    +0.131 C 
ATOM      8  C   UNL     1      32.319 -23.752 -13.865  0.00  0.00    +0.156 C 
ATOM      9  C   UNL     1      34.272 -24.336 -12.391  0.00  0.00    +0.088 C 
ATOM     10  C   UNL     1      35.613 -24.358 -12.712  0.00  0.00    +0.117 C 
ATOM     11  H   UNL     1      36.033 -23.695 -16.729  0.00  0.00    +0.155 HD
ENDROOT
BRANCH   7  14
ATOM     12  N   UNL     1      27.237 -22.243 -14.217  0.00  0.00    -0.236 N 
ATOM     13  N   UNL     1      26.133 -22.124 -14.974  0.00  0.00    -0.180 NA
ATOM     14  C   UNL     1      30.607 -23.132 -15.502  0.00  0.00    +0.028 C 
ATOM     15  C   UNL     1      28.364 -22.581 -14.918  0.00  0.00    +0.067 C 
ATOM     16  C   UNL     1      29.681 -22.795 -14.509  0.00  0.00    +0.018 C 
ATOM     17  C   UNL     1      27.954 -22.688 -16.242  0.00  0.00    +0.035 C 
ATOM     18  C   UNL     1      30.221 -23.247 -16.839  0.00  0.00    +0.002 C 
ATOM     19  C   UNL     1      28.894 -23.027 -17.229  0.00  0.00    +0.003 C 
ATOM     20  C   UNL     1      26.573 -22.395 -16.205  0.00  0.00    +0.119 C 
ATOM     21  H   UNL     1      27.235 -22.101 -13.243  0.00  0.00    +0.174 HD
ENDBRANCH   7  14
BRANCH   1  25
ATOM     22  C   UNL     1      35.022 -20.463 -19.996  0.00  0.00    +0.048 C 
ATOM     23  C   UNL     1      36.247 -20.731 -19.384  0.00  0.00    +0.016 C 
ATOM     24  C   UNL     1      33.863 -21.092 -19.541  0.00  0.00    +0.016 C 
ATOM     25  C   UNL     1      35.152 -22.254 -17.861  0.00  0.00    +0.050 C 
ATOM     26  C   UNL     1      36.312 -21.627 -18.315  0.00  0.00    +0.016 C 
ATOM     27  C   UNL     1      33.927 -21.986 -18.474  0.00  0.00    +0.016 C 
BRANCH  22  29
ATOM     28  O   UNL     1      35.062 -17.881 -23.314  0.00  0.00    -0.350 OA
ATOM     29  N   UNL     1      34.958 -19.565 -21.067  0.00  0.00    -0.303 N 
ATOM     30  C   UNL     1      34.720 -20.106 -22.412  0.00  0.00    +0.123 C 
ATOM     31  C   UNL     1      35.728 -18.317 -21.022  0.00  0.00    +0.123 C 
ATOM     32  C   UNL     1      34.184 -19.007 -23.321  0.00  0.00    +0.164 C 
ATOM     33  C   UNL     1      35.139 -17.314 -22.007  0.00  0.00    +0.164 C 
ENDBRANCH  22  29
ENDBRANCH   1  25
TORSDOF 3
ENDMDL
