MODEL 1
REMARK VINA RESULT:     -13.3      0.000      0.000
REMARK  Name = 16741238
REMARK  6 active torsions:
REMARK  status: ('A' for Active; 'I' for Inactive)
REMARK    1  A    between atoms: N_1  and  C_22
REMARK    2  A    between atoms: C_10  and  C_15
REMARK    3  A    between atoms: C_15  and  C_16
REMARK    4  A    between atoms: C_22  and  C_23
REMARK    5  A    between atoms: C_23  and  C_26
REMARK    6  A    between atoms: N_25  and  C_28
REMARK                            x       y       z     vdW  Elec       q    Type
REMARK                         _______ _______ _______ _____ _____    ______ ____
ROOT
ATOM      1  N   UNL     1      33.807 -13.977 -24.533  0.00  0.00    -0.249 N 
ATOM      2  N   UNL     1      33.163 -16.073 -25.521  0.00  0.00    -0.373 NA
ATOM      3  N   UNL     1      32.507 -14.080 -26.496  0.00  0.00    -0.321 N 
ATOM      4  C   UNL     1      34.546 -14.591 -23.428  0.00  0.00    +0.071 C 
ATOM      5  C   UNL     1      34.517 -16.093 -23.474  0.00  0.00    +0.045 C 
ATOM      6  C   UNL     1      33.170 -14.762 -25.500  0.00  0.00    +0.239 C 
ATOM      7  C   UNL     1      33.838 -16.762 -24.502  0.00  0.00    +0.136 C 
ATOM      8  C   UNL     1      35.176 -16.831 -22.480  0.00  0.00    +0.007 C 
ATOM      9  C   UNL     1      33.829 -18.162 -24.519  0.00  0.00    +0.032 C 
ATOM     10  C   UNL     1      35.161 -18.225 -22.506  0.00  0.00    +0.039 C 
ATOM     11  C   UNL     1      34.487 -18.891 -23.527  0.00  0.00    +0.006 C 
ATOM     12  H   UNL     1      32.502 -13.095 -26.500  0.00  0.00    +0.146 HD
ATOM     13  H   UNL     1      32.040 -14.578 -27.206  0.00  0.00    +0.146 HD
ENDROOT
BRANCH  10  15
ATOM     14  O   UNL     1      37.058 -18.809 -21.269  0.00  0.00    -0.287 OA
ATOM     15  C   UNL     1      35.846 -18.981 -21.472  0.00  0.00    +0.196 C 
BRANCH  15  16
ATOM     16  C   UNL     1      35.143 -19.982 -20.614  0.00  0.00    +0.039 C 
ATOM     17  C   UNL     1      35.880 -20.893 -19.858  0.00  0.00    +0.003 C 
ATOM     18  C   UNL     1      33.749 -20.005 -20.568  0.00  0.00    +0.003 C 
ATOM     19  C   UNL     1      35.224 -21.827 -19.056  0.00  0.00    +0.000 C 
ATOM     20  C   UNL     1      33.093 -20.939 -19.766  0.00  0.00    +0.000 C 
ATOM     21  C   UNL     1      33.830 -21.851 -19.011  0.00  0.00    +0.000 C 
ENDBRANCH  15  16
ENDBRANCH  10  15
BRANCH   1  22
ATOM     22  C   UNL     1      33.798 -12.518 -24.537  0.00  0.00    +0.109 C 
BRANCH  22  23
ATOM     23  C   UNL     1      33.386 -11.983 -23.168  0.00  0.00    +0.107 C 
BRANCH  23  26
ATOM     24  O   UNL     1      34.296  -9.817 -23.668  0.00  0.00    -0.275 OA
ATOM     25  N   UNL     1      32.453  -9.869 -22.262  0.00  0.00    -0.279 N 
ATOM     26  C   UNL     1      33.433 -10.462 -23.065  0.00  0.00    +0.227 C 
ATOM     27  C   UNL     1      31.440 -10.650 -21.556  0.00  0.00    +0.115 C 
BRANCH  25  28
ATOM     28  C   UNL     1      32.369  -8.440 -22.070  0.00  0.00    +0.075 C 
ATOM     29  C   UNL     1      32.402  -8.097 -20.579  0.00  0.00    +0.020 C 
ATOM     30  C   UNL     1      31.116  -7.876 -22.745  0.00  0.00    +0.020 C 
ATOM     31  C   UNL     1      32.261  -6.595 -20.344  0.00  0.00    +0.002 C 
ATOM     32  C   UNL     1      30.978  -6.374 -22.508  0.00  0.00    +0.002 C 
ATOM     33  C   UNL     1      31.014  -6.034 -21.021  0.00  0.00    +0.000 C 
ENDBRANCH  25  28
ENDBRANCH  23  26
ENDBRANCH  22  23
ENDBRANCH   1  22
TORSDOF 6
ENDMDL
MODEL 2
REMARK VINA RESULT:     -11.6      6.275     11.085
REMARK  Name = 16741238
REMARK  6 active torsions:
REMARK  status: ('A' for Active; 'I' for Inactive)
REMARK    1  A    between atoms: N_1  and  C_22
REMARK    2  A    between atoms: C_10  and  C_15
REMARK    3  A    between atoms: C_15  and  C_16
REMARK    4  A    between atoms: C_22  and  C_23
REMARK    5  A    between atoms: C_23  and  C_26
REMARK    6  A    between atoms: N_25  and  C_28
REMARK                            x       y       z     vdW  Elec       q    Type
REMARK                         _______ _______ _______ _____ _____    ______ ____
ROOT
ATOM      1  N   UNL     1      36.148 -22.563 -16.537  0.00  0.00    -0.249 N 
ATOM      2  N   UNL     1      36.518 -23.698 -14.449  0.00  0.00    -0.373 NA
ATOM      3  N   UNL     1      38.315 -23.089 -15.772  0.00  0.00    -0.321 N 
ATOM      4  C   UNL     1      34.690 -22.550 -16.406  0.00  0.00    +0.071 C 
ATOM      5  C   UNL     1      34.214 -23.206 -15.140  0.00  0.00    +0.045 C 
ATOM      6  C   UNL     1      36.956 -23.135 -15.549  0.00  0.00    +0.239 C 
ATOM      7  C   UNL     1      35.132 -23.744 -14.228  0.00  0.00    +0.136 C 
ATOM      8  C   UNL     1      32.840 -23.279 -14.870  0.00  0.00    +0.007 C 
ATOM      9  C   UNL     1      34.660 -24.349 -13.057  0.00  0.00    +0.032 C 
ATOM     10  C   UNL     1      32.380 -23.883 -13.701  0.00  0.00    +0.039 C 
ATOM     11  C   UNL     1      33.291 -24.418 -12.793  0.00  0.00    +0.006 C 
ATOM     12  H   UNL     1      38.665 -22.669 -16.591  0.00  0.00    +0.146 HD
ATOM     13  H   UNL     1      38.935 -23.475 -15.112  0.00  0.00    +0.146 HD
ENDROOT
BRANCH  10  15
ATOM     14  O   UNL     1      30.546 -24.139 -12.272  0.00  0.00    -0.287 OA
ATOM     15  C   UNL     1      30.955 -23.955 -13.429  0.00  0.00    +0.196 C 
BRANCH  15  16
ATOM     16  C   UNL     1      29.926 -23.811 -14.504  0.00  0.00    +0.039 C 
ATOM     17  C   UNL     1      29.330 -22.572 -14.737  0.00  0.00    +0.003 C 
ATOM     18  C   UNL     1      29.564 -24.916 -15.275  0.00  0.00    +0.003 C 
ATOM     19  C   UNL     1      28.371 -22.438 -15.741  0.00  0.00    +0.000 C 
ATOM     20  C   UNL     1      28.605 -24.782 -16.278  0.00  0.00    +0.000 C 
ATOM     21  C   UNL     1      28.008 -23.542 -16.511  0.00  0.00    +0.000 C 
ENDBRANCH  15  16
ENDBRANCH  10  15
BRANCH   1  22
ATOM     22  C   UNL     1      36.667 -21.942 -17.751  0.00  0.00    +0.109 C 
BRANCH  22  23
ATOM     23  C   UNL     1      35.521 -21.524 -18.669  0.00  0.00    +0.107 C 
BRANCH  23  26
ATOM     24  O   UNL     1      37.127 -20.252 -19.921  0.00  0.00    -0.275 OA
ATOM     25  N   UNL     1      34.914 -20.073 -20.589  0.00  0.00    -0.279 N 
ATOM     26  C   UNL     1      35.941 -20.562 -19.775  0.00  0.00    +0.227 C 
ATOM     27  C   UNL     1      33.515 -20.453 -20.399  0.00  0.00    +0.115 C 
BRANCH  25  28
ATOM     28  C   UNL     1      35.158 -19.158 -21.678  0.00  0.00    +0.075 C 
ATOM     29  C   UNL     1      35.126 -17.711 -21.179  0.00  0.00    +0.020 C 
ATOM     30  C   UNL     1      34.150 -19.379 -22.809  0.00  0.00    +0.020 C 
ATOM     31  C   UNL     1      35.329 -16.717 -22.320  0.00  0.00    +0.002 C 
ATOM     32  C   UNL     1      34.356 -18.384 -23.949  0.00  0.00    +0.002 C 
ATOM     33  C   UNL     1      34.326 -16.943 -23.448  0.00  0.00    +0.000 C 
ENDBRANCH  25  28
ENDBRANCH  23  26
ENDBRANCH  22  23
ENDBRANCH   1  22
TORSDOF 6
ENDMDL
MODEL 3
REMARK VINA RESULT:     -11.6      6.304     11.058
REMARK  Name = 16741238
REMARK  6 active torsions:
REMARK  status: ('A' for Active; 'I' for Inactive)
REMARK    1  A    between atoms: N_1  and  C_22
REMARK    2  A    between atoms: C_10  and  C_15
REMARK    3  A    between atoms: C_15  and  C_16
REMARK    4  A    between atoms: C_22  and  C_23
REMARK    5  A    between atoms: C_23  and  C_26
REMARK    6  A    between atoms: N_25  and  C_28
REMARK                            x       y       z     vdW  Elec       q    Type
REMARK                         _______ _______ _______ _____ _____    ______ ____
ROOT
ATOM      1  N   UNL     1      36.099 -22.463 -16.677  0.00  0.00    -0.249 N 
ATOM      2  N   UNL     1      36.550 -23.556 -14.582  0.00  0.00    -0.373 NA
ATOM      3  N   UNL     1      38.298 -22.867 -15.931  0.00  0.00    -0.321 N 
ATOM      4  C   UNL     1      34.644 -22.525 -16.530  0.00  0.00    +0.071 C 
ATOM      5  C   UNL     1      34.216 -23.192 -15.252  0.00  0.00    +0.045 C 
ATOM      6  C   UNL     1      36.946 -22.982 -15.692  0.00  0.00    +0.239 C 
ATOM      7  C   UNL     1      35.171 -23.672 -14.345  0.00  0.00    +0.136 C 
ATOM      8  C   UNL     1      32.851 -23.333 -14.966  0.00  0.00    +0.007 C 
ATOM      9  C   UNL     1      34.743 -24.288 -13.163  0.00  0.00    +0.032 C 
ATOM     10  C   UNL     1      32.436 -23.948 -13.786  0.00  0.00    +0.039 C 
ATOM     11  C   UNL     1      33.383 -24.425 -12.883  0.00  0.00    +0.006 C 
ATOM     12  H   UNL     1      38.618 -22.438 -16.758  0.00  0.00    +0.146 HD
ATOM     13  H   UNL     1      38.945 -23.214 -15.274  0.00  0.00    +0.146 HD
ENDROOT
BRANCH  10  15
ATOM     14  O   UNL     1      30.640 -24.393 -12.356  0.00  0.00    -0.287 OA
ATOM     15  C   UNL     1      31.019 -24.091 -13.497  0.00  0.00    +0.196 C 
BRANCH  15  16
ATOM     16  C   UNL     1      29.966 -23.884 -14.537  0.00  0.00    +0.039 C 
ATOM     17  C   UNL     1      29.539 -24.956 -15.321  0.00  0.00    +0.003 C 
ATOM     18  C   UNL     1      29.407 -22.619 -14.722  0.00  0.00    +0.003 C 
ATOM     19  C   UNL     1      28.556 -24.763 -16.291  0.00  0.00    +0.000 C 
ATOM     20  C   UNL     1      28.423 -22.426 -15.692  0.00  0.00    +0.000 C 
ATOM     21  C   UNL     1      27.998 -23.498 -16.476  0.00  0.00    +0.000 C 
ENDBRANCH  15  16
ENDBRANCH  10  15
BRANCH   1  22
ATOM     22  C   UNL     1      36.572 -21.829 -17.903  0.00  0.00    +0.109 C 
BRANCH  22  23
ATOM     23  C   UNL     1      35.474 -21.831 -18.963  0.00  0.00    +0.107 C 
BRANCH  23  26
ATOM     24  O   UNL     1      36.611 -20.114 -20.198  0.00  0.00    -0.275 OA
ATOM     25  N   UNL     1      34.303 -20.183 -20.403  0.00  0.00    -0.279 N 
ATOM     26  C   UNL     1      35.530 -20.634 -19.906  0.00  0.00    +0.227 C 
ATOM     27  C   UNL     1      33.033 -20.812 -20.044  0.00  0.00    +0.115 C 
BRANCH  25  28
ATOM     28  C   UNL     1      34.198 -19.062 -21.307  0.00  0.00    +0.075 C 
ATOM     29  C   UNL     1      34.473 -19.507 -22.745  0.00  0.00    +0.020 C 
ATOM     30  C   UNL     1      35.141 -17.933 -20.882  0.00  0.00    +0.020 C 
ATOM     31  C   UNL     1      34.421 -18.331 -23.718  0.00  0.00    +0.002 C 
ATOM     32  C   UNL     1      35.087 -16.759 -21.857  0.00  0.00    +0.002 C 
ATOM     33  C   UNL     1      35.359 -17.205 -23.290  0.00  0.00    +0.000 C 
ENDBRANCH  25  28
ENDBRANCH  23  26
ENDBRANCH  22  23
ENDBRANCH   1  22
TORSDOF 6
ENDMDL
MODEL 4
REMARK VINA RESULT:     -11.3      2.563     11.056
REMARK  Name = 16741238
REMARK  6 active torsions:
REMARK  status: ('A' for Active; 'I' for Inactive)
REMARK    1  A    between atoms: N_1  and  C_22
REMARK    2  A    between atoms: C_10  and  C_15
REMARK    3  A    between atoms: C_15  and  C_16
REMARK    4  A    between atoms: C_22  and  C_23
REMARK    5  A    between atoms: C_23  and  C_26
REMARK    6  A    between atoms: N_25  and  C_28
REMARK                            x       y       z     vdW  Elec       q    Type
REMARK                         _______ _______ _______ _____ _____    ______ ____
ROOT
ATOM      1  N   UNL     1      32.319 -12.268 -22.023  0.00  0.00    -0.249 N 
ATOM      2  N   UNL     1      31.849 -11.242 -19.899  0.00  0.00    -0.373 NA
ATOM      3  N   UNL     1      31.900 -13.547 -20.088  0.00  0.00    -0.321 N 
ATOM      4  C   UNL     1      32.474 -10.998 -22.734  0.00  0.00    +0.071 C 
ATOM      5  C   UNL     1      32.270  -9.804 -21.844  0.00  0.00    +0.045 C 
ATOM      6  C   UNL     1      32.019 -12.298 -20.657  0.00  0.00    +0.239 C 
ATOM      7  C   UNL     1      31.971  -9.972 -20.485  0.00  0.00    +0.136 C 
ATOM      8  C   UNL     1      32.380  -8.513 -22.378  0.00  0.00    +0.007 C 
ATOM      9  C   UNL     1      31.786  -8.842 -19.679  0.00  0.00    +0.032 C 
ATOM     10  C   UNL     1      32.194  -7.394 -21.567  0.00  0.00    +0.039 C 
ATOM     11  C   UNL     1      31.897  -7.559 -20.216  0.00  0.00    +0.006 C 
ATOM     12  H   UNL     1      32.025 -14.353 -20.639  0.00  0.00    +0.146 HD
ATOM     13  H   UNL     1      31.690 -13.633 -19.130  0.00  0.00    +0.146 HD
ENDROOT
BRANCH  10  15
ATOM     14  O   UNL     1      31.762  -5.095 -21.571  0.00  0.00    -0.287 OA
ATOM     15  C   UNL     1      32.309  -6.059 -22.129  0.00  0.00    +0.196 C 
BRANCH  15  16
ATOM     16  C   UNL     1      33.076  -5.780 -23.381  0.00  0.00    +0.039 C 
ATOM     17  C   UNL     1      32.520  -4.979 -24.377  0.00  0.00    +0.003 C 
ATOM     18  C   UNL     1      34.351  -6.321 -23.552  0.00  0.00    +0.003 C 
ATOM     19  C   UNL     1      33.237  -4.718 -25.544  0.00  0.00    +0.000 C 
ATOM     20  C   UNL     1      35.068  -6.060 -24.719  0.00  0.00    +0.000 C 
ATOM     21  C   UNL     1      34.511  -5.259 -25.716  0.00  0.00    +0.000 C 
ENDBRANCH  15  16
ENDBRANCH  10  15
BRANCH   1  22
ATOM     22  C   UNL     1      32.504 -13.463 -22.840  0.00  0.00    +0.109 C 
BRANCH  22  23
ATOM     23  C   UNL     1      33.989 -13.734 -23.062  0.00  0.00    +0.107 C 
BRANCH  23  26
ATOM     24  O   UNL     1      34.571 -15.110 -21.182  0.00  0.00    -0.275 OA
ATOM     25  N   UNL     1      34.809 -16.067 -23.280  0.00  0.00    -0.279 N 
ATOM     26  C   UNL     1      34.480 -15.023 -22.409  0.00  0.00    +0.227 C 
ATOM     27  C   UNL     1      34.694 -15.943 -24.732  0.00  0.00    +0.115 C 
BRANCH  25  28
ATOM     28  C   UNL     1      35.285 -17.346 -22.810  0.00  0.00    +0.075 C 
ATOM     29  C   UNL     1      34.446 -18.481 -23.402  0.00  0.00    +0.020 C 
ATOM     30  C   UNL     1      35.288 -17.394 -21.280  0.00  0.00    +0.020 C 
ATOM     31  C   UNL     1      34.894 -19.844 -22.880  0.00  0.00    +0.002 C 
ATOM     32  C   UNL     1      35.737 -18.758 -20.761  0.00  0.00    +0.002 C 
ATOM     33  C   UNL     1      34.900 -19.888 -21.354  0.00  0.00    +0.000 C 
ENDBRANCH  25  28
ENDBRANCH  23  26
ENDBRANCH  22  23
ENDBRANCH   1  22
TORSDOF 6
ENDMDL
MODEL 5
REMARK VINA RESULT:     -11.2      2.429     10.255
REMARK  Name = 16741238
REMARK  6 active torsions:
REMARK  status: ('A' for Active; 'I' for Inactive)
REMARK    1  A    between atoms: N_1  and  C_22
REMARK    2  A    between atoms: C_10  and  C_15
REMARK    3  A    between atoms: C_15  and  C_16
REMARK    4  A    between atoms: C_22  and  C_23
REMARK    5  A    between atoms: C_23  and  C_26
REMARK    6  A    between atoms: N_25  and  C_28
REMARK                            x       y       z     vdW  Elec       q    Type
REMARK                         _______ _______ _______ _____ _____    ______ ____
ROOT
ATOM      1  N   UNL     1      35.129 -18.206 -22.822  0.00  0.00    -0.249 N 
ATOM      2  N   UNL     1      33.995 -17.725 -24.888  0.00  0.00    -0.373 NA
ATOM      3  N   UNL     1      34.633 -19.892 -24.393  0.00  0.00    -0.321 N 
ATOM      4  C   UNL     1      35.114 -16.818 -22.355  0.00  0.00    +0.071 C 
ATOM      5  C   UNL     1      34.457 -15.883 -23.331  0.00  0.00    +0.045 C 
ATOM      6  C   UNL     1      34.567 -18.558 -24.054  0.00  0.00    +0.239 C 
ATOM      7  C   UNL     1      33.932 -16.367 -24.538  0.00  0.00    +0.136 C 
ATOM      8  C   UNL     1      34.367 -14.516 -23.030  0.00  0.00    +0.007 C 
ATOM      9  C   UNL     1      33.325 -15.472 -25.427  0.00  0.00    +0.032 C 
ATOM     10  C   UNL     1      33.760 -13.635 -23.924  0.00  0.00    +0.039 C 
ATOM     11  C   UNL     1      33.239 -14.113 -25.123  0.00  0.00    +0.006 C 
ATOM     12  H   UNL     1      35.058 -20.535 -23.780  0.00  0.00    +0.146 HD
ATOM     13  H   UNL     1      34.255 -20.201 -25.247  0.00  0.00    +0.146 HD
ENDROOT
BRANCH  10  15
ATOM     14  O   UNL     1      34.335 -11.391 -24.248  0.00  0.00    -0.287 OA
ATOM     15  C   UNL     1      33.673 -12.219 -23.605  0.00  0.00    +0.196 C 
BRANCH  15  16
ATOM     16  C   UNL     1      32.798 -11.698 -22.512  0.00  0.00    +0.039 C 
ATOM     17  C   UNL     1      32.470 -10.343 -22.467  0.00  0.00    +0.003 C 
ATOM     18  C   UNL     1      32.309 -12.566 -21.535  0.00  0.00    +0.003 C 
ATOM     19  C   UNL     1      31.652  -9.857 -21.447  0.00  0.00    +0.000 C 
ATOM     20  C   UNL     1      31.491 -12.080 -20.515  0.00  0.00    +0.000 C 
ATOM     21  C   UNL     1      31.164 -10.724 -20.471  0.00  0.00    +0.000 C 
ENDBRANCH  15  16
ENDBRANCH  10  15
BRANCH   1  22
ATOM     22  C   UNL     1      35.759 -19.159 -21.914  0.00  0.00    +0.109 C 
BRANCH  22  23
ATOM     23  C   UNL     1      34.721 -19.774 -20.981  0.00  0.00    +0.107 C 
BRANCH  23  26
ATOM     24  O   UNL     1      36.535 -20.864 -19.847  0.00  0.00    -0.275 OA
ATOM     25  N   UNL     1      34.395 -21.424 -19.155  0.00  0.00    -0.279 N 
ATOM     26  C   UNL     1      35.313 -20.731 -19.951  0.00  0.00    +0.227 C 
ATOM     27  C   UNL     1      32.950 -21.252 -19.294  0.00  0.00    +0.115 C 
BRANCH  25  28
ATOM     28  C   UNL     1      34.805 -22.360 -18.136  0.00  0.00    +0.075 C 
ATOM     29  C   UNL     1      33.611 -22.767 -17.269  0.00  0.00    +0.020 C 
ATOM     30  C   UNL     1      35.937 -21.775 -17.286  0.00  0.00    +0.020 C 
ATOM     31  C   UNL     1      34.026 -23.718 -16.149  0.00  0.00    +0.002 C 
ATOM     32  C   UNL     1      36.350 -22.728 -16.167  0.00  0.00    +0.002 C 
ATOM     33  C   UNL     1      35.157 -23.134 -15.306  0.00  0.00    +0.000 C 
ENDBRANCH  25  28
ENDBRANCH  23  26
ENDBRANCH  22  23
ENDBRANCH   1  22
TORSDOF 6
ENDMDL
MODEL 6
REMARK VINA RESULT:     -11.2      5.522      9.951
REMARK  Name = 16741238
REMARK  6 active torsions:
REMARK  status: ('A' for Active; 'I' for Inactive)
REMARK    1  A    between atoms: N_1  and  C_22
REMARK    2  A    between atoms: C_10  and  C_15
REMARK    3  A    between atoms: C_15  and  C_16
REMARK    4  A    between atoms: C_22  and  C_23
REMARK    5  A    between atoms: C_23  and  C_26
REMARK    6  A    between atoms: N_25  and  C_28
REMARK                            x       y       z     vdW  Elec       q    Type
REMARK                         _______ _______ _______ _____ _____    ______ ____
ROOT
ATOM      1  N   UNL     1      34.561 -22.118 -18.778  0.00  0.00    -0.249 N 
ATOM      2  N   UNL     1      32.378 -22.406 -17.810  0.00  0.00    -0.373 NA
ATOM      3  N   UNL     1      32.593 -21.606 -19.970  0.00  0.00    -0.321 N 
ATOM      4  C   UNL     1      35.278 -22.590 -17.591  0.00  0.00    +0.071 C 
ATOM      5  C   UNL     1      34.355 -22.973 -16.469  0.00  0.00    +0.045 C 
ATOM      6  C   UNL     1      33.164 -22.061 -18.801  0.00  0.00    +0.239 C 
ATOM      7  C   UNL     1      32.965 -22.867 -16.621  0.00  0.00    +0.136 C 
ATOM      8  C   UNL     1      34.889 -23.440 -15.259  0.00  0.00    +0.007 C 
ATOM      9  C   UNL     1      32.130 -23.232 -15.558  0.00  0.00    +0.032 C 
ATOM     10  C   UNL     1      34.048 -23.801 -14.207  0.00  0.00    +0.039 C 
ATOM     11  C   UNL     1      32.667 -23.697 -14.357  0.00  0.00    +0.006 C 
ATOM     12  H   UNL     1      33.165 -21.343 -20.727  0.00  0.00    +0.146 HD
ATOM     13  H   UNL     1      31.614 -21.544 -20.047  0.00  0.00    +0.146 HD
ENDROOT
BRANCH  10  15
ATOM     14  O   UNL     1      33.895 -24.394 -11.950  0.00  0.00    -0.287 OA
ATOM     15  C   UNL     1      34.610 -24.284 -12.957  0.00  0.00    +0.196 C 
BRANCH  15  16
ATOM     16  C   UNL     1      36.048 -24.667 -12.821  0.00  0.00    +0.039 C 
ATOM     17  C   UNL     1      36.545 -25.771 -13.514  0.00  0.00    +0.003 C 
ATOM     18  C   UNL     1      36.895 -23.920 -12.002  0.00  0.00    +0.003 C 
ATOM     19  C   UNL     1      37.887 -26.128 -13.388  0.00  0.00    +0.000 C 
ATOM     20  C   UNL     1      38.237 -24.277 -11.875  0.00  0.00    +0.000 C 
ATOM     21  C   UNL     1      38.733 -25.381 -12.568  0.00  0.00    +0.000 C 
ENDBRANCH  15  16
ENDBRANCH  10  15
BRANCH   1  22
ATOM     22  C   UNL     1      35.409 -21.728 -19.900  0.00  0.00    +0.109 C 
BRANCH  22  23
ATOM     23  C   UNL     1      35.718 -20.235 -19.840  0.00  0.00    +0.107 C 
BRANCH  23  26
ATOM     24  O   UNL     1      33.896 -19.456 -21.196  0.00  0.00    -0.275 OA
ATOM     25  N   UNL     1      36.012 -18.703 -21.772  0.00  0.00    -0.279 N 
ATOM     26  C   UNL     1      35.113 -19.437 -20.991  0.00  0.00    +0.227 C 
ATOM     27  C   UNL     1      37.450 -18.695 -21.512  0.00  0.00    +0.115 C 
BRANCH  25  28
ATOM     28  C   UNL     1      35.587 -17.899 -22.893  0.00  0.00    +0.075 C 
ATOM     29  C   UNL     1      35.140 -16.514 -22.420  0.00  0.00    +0.020 C 
ATOM     30  C   UNL     1      34.477 -18.606 -23.677  0.00  0.00    +0.020 C 
ATOM     31  C   UNL     1      34.634 -15.659 -23.579  0.00  0.00    +0.002 C 
ATOM     32  C   UNL     1      33.974 -17.748 -24.836  0.00  0.00    +0.002 C 
ATOM     33  C   UNL     1      33.531 -16.367 -24.361  0.00  0.00    +0.000 C 
ENDBRANCH  25  28
ENDBRANCH  23  26
ENDBRANCH  22  23
ENDBRANCH   1  22
TORSDOF 6
ENDMDL
MODEL 7
REMARK VINA RESULT:     -11.1      4.486      7.979
REMARK  Name = 16741238
REMARK  6 active torsions:
REMARK  status: ('A' for Active; 'I' for Inactive)
REMARK    1  A    between atoms: N_1  and  C_22
REMARK    2  A    between atoms: C_10  and  C_15
REMARK    3  A    between atoms: C_15  and  C_16
REMARK    4  A    between atoms: C_22  and  C_23
REMARK    5  A    between atoms: C_23  and  C_26
REMARK    6  A    between atoms: N_25  and  C_28
REMARK                            x       y       z     vdW  Elec       q    Type
REMARK                         _______ _______ _______ _____ _____    ______ ____
ROOT
ATOM      1  N   UNL     1      34.639 -20.615 -20.230  0.00  0.00    -0.249 N 
ATOM      2  N   UNL     1      33.111 -21.693 -18.717  0.00  0.00    -0.373 NA
ATOM      3  N   UNL     1      32.313 -20.636 -20.614  0.00  0.00    -0.321 N 
ATOM      4  C   UNL     1      35.832 -20.957 -19.454  0.00  0.00    +0.071 C 
ATOM      5  C   UNL     1      35.513 -21.736 -18.210  0.00  0.00    +0.045 C 
ATOM      6  C   UNL     1      33.365 -21.008 -19.806  0.00  0.00    +0.239 C 
ATOM      7  C   UNL     1      34.187 -22.067 -17.897  0.00  0.00    +0.136 C 
ATOM      8  C   UNL     1      36.551 -22.136 -17.356  0.00  0.00    +0.007 C 
ATOM      9  C   UNL     1      33.920 -22.796 -16.731  0.00  0.00    +0.032 C 
ATOM     10  C   UNL     1      36.273 -22.861 -16.197  0.00  0.00    +0.039 C 
ATOM     11  C   UNL     1      34.957 -23.191 -15.885  0.00  0.00    +0.006 C 
ATOM     12  H   UNL     1      32.482 -20.123 -21.437  0.00  0.00    +0.146 HD
ATOM     13  H   UNL     1      31.393 -20.884 -20.368  0.00  0.00    +0.146 HD
ENDROOT
BRANCH  10  15
ATOM     14  O   UNL     1      38.533 -23.028 -15.619  0.00  0.00    -0.287 OA
ATOM     15  C   UNL     1      37.355 -23.270 -15.317  0.00  0.00    +0.196 C 
BRANCH  15  16
ATOM     16  C   UNL     1      37.111 -23.987 -14.029  0.00  0.00    +0.039 C 
ATOM     17  C   UNL     1      36.756 -23.269 -12.887  0.00  0.00    +0.003 C 
ATOM     18  C   UNL     1      37.237 -25.375 -13.968  0.00  0.00    +0.003 C 
ATOM     19  C   UNL     1      36.528 -23.939 -11.685  0.00  0.00    +0.000 C 
ATOM     20  C   UNL     1      37.009 -26.045 -12.766  0.00  0.00    +0.000 C 
ATOM     21  C   UNL     1      36.654 -25.326 -11.624  0.00  0.00    +0.000 C 
ENDBRANCH  15  16
ENDBRANCH  10  15
BRANCH   1  22
ATOM     22  C   UNL     1      34.889 -19.852 -21.449  0.00  0.00    +0.109 C 
BRANCH  22  23
ATOM     23  C   UNL     1      35.180 -18.392 -21.115  0.00  0.00    +0.107 C 
BRANCH  23  26
ATOM     24  O   UNL     1      35.431 -17.885 -23.449  0.00  0.00    -0.275 OA
ATOM     25  N   UNL     1      34.747 -16.145 -22.078  0.00  0.00    -0.279 N 
ATOM     26  C   UNL     1      35.136 -17.466 -22.326  0.00  0.00    +0.227 C 
ATOM     27  C   UNL     1      34.401 -15.668 -20.740  0.00  0.00    +0.115 C 
BRANCH  25  28
ATOM     28  C   UNL     1      34.656 -15.155 -23.124  0.00  0.00    +0.075 C 
ATOM     29  C   UNL     1      34.199 -13.811 -22.552  0.00  0.00    +0.020 C 
ATOM     30  C   UNL     1      33.724 -15.631 -24.242  0.00  0.00    +0.020 C 
ATOM     31  C   UNL     1      34.043 -12.757 -23.646  0.00  0.00    +0.002 C 
ATOM     32  C   UNL     1      33.571 -14.575 -25.334  0.00  0.00    +0.002 C 
ATOM     33  C   UNL     1      33.117 -13.236 -24.761  0.00  0.00    +0.000 C 
ENDBRANCH  25  28
ENDBRANCH  23  26
ENDBRANCH  22  23
ENDBRANCH   1  22
TORSDOF 6
ENDMDL
MODEL 8
REMARK VINA RESULT:     -10.8      5.064     11.689
REMARK  Name = 16741238
REMARK  6 active torsions:
REMARK  status: ('A' for Active; 'I' for Inactive)
REMARK    1  A    between atoms: N_1  and  C_22
REMARK    2  A    between atoms: C_10  and  C_15
REMARK    3  A    between atoms: C_15  and  C_16
REMARK    4  A    between atoms: C_22  and  C_23
REMARK    5  A    between atoms: C_23  and  C_26
REMARK    6  A    between atoms: N_25  and  C_28
REMARK                            x       y       z     vdW  Elec       q    Type
REMARK                         _______ _______ _______ _____ _____    ______ ____
ROOT
ATOM      1  N   UNL     1      34.800 -21.686 -19.415  0.00  0.00    -0.249 N 
ATOM      2  N   UNL     1      36.753 -20.298 -19.622  0.00  0.00    -0.373 NA
ATOM      3  N   UNL     1      36.676 -21.960 -18.015  0.00  0.00    -0.321 N 
ATOM      4  C   UNL     1      34.076 -21.032 -20.506  0.00  0.00    +0.071 C 
ATOM      5  C   UNL     1      34.860 -19.916 -21.137  0.00  0.00    +0.045 C 
ATOM      6  C   UNL     1      36.086 -21.272 -19.053  0.00  0.00    +0.239 C 
ATOM      7  C   UNL     1      36.145 -19.600 -20.677  0.00  0.00    +0.136 C 
ATOM      8  C   UNL     1      34.300 -19.186 -22.196  0.00  0.00    +0.007 C 
ATOM      9  C   UNL     1      36.853 -18.555 -21.286  0.00  0.00    +0.032 C 
ATOM     10  C   UNL     1      35.013 -18.148 -22.794  0.00  0.00    +0.039 C 
ATOM     11  C   UNL     1      36.291 -17.833 -22.339  0.00  0.00    +0.006 C 
ATOM     12  H   UNL     1      36.193 -22.696 -17.574  0.00  0.00    +0.146 HD
ATOM     13  H   UNL     1      37.581 -21.715 -17.714  0.00  0.00    +0.146 HD
ENDROOT
BRANCH  10  15
ATOM     14  O   UNL     1      34.118 -17.968 -24.948  0.00  0.00    -0.287 OA
ATOM     15  C   UNL     1      34.425 -17.396 -23.890  0.00  0.00    +0.196 C 
BRANCH  15  16
ATOM     16  C   UNL     1      34.161 -15.928 -23.804  0.00  0.00    +0.039 C 
ATOM     17  C   UNL     1      33.575 -15.260 -24.878  0.00  0.00    +0.003 C 
ATOM     18  C   UNL     1      34.501 -15.225 -22.648  0.00  0.00    +0.003 C 
ATOM     19  C   UNL     1      33.328 -13.890 -24.797  0.00  0.00    +0.000 C 
ATOM     20  C   UNL     1      34.255 -13.855 -22.566  0.00  0.00    +0.000 C 
ATOM     21  C   UNL     1      33.668 -13.187 -23.642  0.00  0.00    +0.000 C 
ENDBRANCH  15  16
ENDBRANCH  10  15
BRANCH   1  22
ATOM     22  C   UNL     1      34.083 -22.776 -18.761  0.00  0.00    +0.109 C 
BRANCH  22  23
ATOM     23  C   UNL     1      33.997 -22.532 -17.257  0.00  0.00    +0.107 C 
BRANCH  23  26
ATOM     24  O   UNL     1      31.601 -22.368 -17.277  0.00  0.00    -0.275 OA
ATOM     25  N   UNL     1      32.552 -23.441 -15.454  0.00  0.00    -0.279 N 
ATOM     26  C   UNL     1      32.605 -22.764 -16.678  0.00  0.00    +0.227 C 
ATOM     27  C   UNL     1      33.753 -23.901 -14.761  0.00  0.00    +0.115 C 
BRANCH  25  28
ATOM     28  C   UNL     1      31.307 -23.734 -14.785  0.00  0.00    +0.075 C 
ATOM     29  C   UNL     1      31.534 -24.727 -13.643  0.00  0.00    +0.020 C 
ATOM     30  C   UNL     1      30.267 -24.257 -15.780  0.00  0.00    +0.020 C 
ATOM     31  C   UNL     1      30.225 -25.097 -12.950  0.00  0.00    +0.002 C 
ATOM     32  C   UNL     1      28.959 -24.626 -15.084  0.00  0.00    +0.002 C 
ATOM     33  C   UNL     1      29.189 -25.614 -13.945  0.00  0.00    +0.000 C 
ENDBRANCH  25  28
ENDBRANCH  23  26
ENDBRANCH  22  23
ENDBRANCH   1  22
TORSDOF 6
ENDMDL
MODEL 9
REMARK VINA RESULT:     -10.7      6.449     11.272
REMARK  Name = 16741238
REMARK  6 active torsions:
REMARK  status: ('A' for Active; 'I' for Inactive)
REMARK    1  A    between atoms: N_1  and  C_22
REMARK    2  A    between atoms: C_10  and  C_15
REMARK    3  A    between atoms: C_15  and  C_16
REMARK    4  A    between atoms: C_22  and  C_23
REMARK    5  A    between atoms: C_23  and  C_26
REMARK    6  A    between atoms: N_25  and  C_28
REMARK                            x       y       z     vdW  Elec       q    Type
REMARK                         _______ _______ _______ _____ _____    ______ ____
ROOT
ATOM      1  N   UNL     1      33.056 -23.162 -17.094  0.00  0.00    -0.249 N 
ATOM      2  N   UNL     1      31.871 -23.198 -15.001  0.00  0.00    -0.373 NA
ATOM      3  N   UNL     1      30.813 -22.458 -16.920  0.00  0.00    -0.321 N 
ATOM      4  C   UNL     1      34.301 -23.690 -16.533  0.00  0.00    +0.071 C 
ATOM      5  C   UNL     1      34.206 -23.955 -15.056  0.00  0.00    +0.045 C 
ATOM      6  C   UNL     1      31.932 -22.955 -16.288  0.00  0.00    +0.239 C 
ATOM      7  C   UNL     1      33.015 -23.702 -14.362  0.00  0.00    +0.136 C 
ATOM      8  C   UNL     1      35.320 -24.459 -14.369  0.00  0.00    +0.007 C 
ATOM      9  C   UNL     1      32.956 -23.959 -12.986  0.00  0.00    +0.032 C 
ATOM     10  C   UNL     1      35.250 -24.711 -12.999  0.00  0.00    +0.039 C 
ATOM     11  C   UNL     1      34.067 -24.461 -12.307  0.00  0.00    +0.006 C 
ATOM     12  H   UNL     1      30.837 -22.270 -17.886  0.00  0.00    +0.146 HD
ATOM     13  H   UNL     1      29.991 -22.291 -16.405  0.00  0.00    +0.146 HD
ENDROOT
BRANCH  10  15
ATOM     14  O   UNL     1      36.341 -25.490 -11.082  0.00  0.00    -0.287 OA
ATOM     15  C   UNL     1      36.409 -25.233 -12.294  0.00  0.00    +0.196 C 
BRANCH  15  16
ATOM     16  C   UNL     1      37.714 -25.485 -12.976  0.00  0.00    +0.039 C 
ATOM     17  C   UNL     1      38.839 -24.738 -12.628  0.00  0.00    +0.003 C 
ATOM     18  C   UNL     1      37.808 -26.469 -13.961  0.00  0.00    +0.003 C 
ATOM     19  C   UNL     1      40.057 -24.974 -13.264  0.00  0.00    +0.000 C 
ATOM     20  C   UNL     1      39.027 -26.705 -14.596  0.00  0.00    +0.000 C 
ATOM     21  C   UNL     1      40.152 -25.957 -14.248  0.00  0.00    +0.000 C 
ENDBRANCH  15  16
ENDBRANCH  10  15
BRANCH   1  22
ATOM     22  C   UNL     1      33.091 -22.882 -18.525  0.00  0.00    +0.109 C 
BRANCH  22  23
ATOM     23  C   UNL     1      34.153 -21.831 -18.838  0.00  0.00    +0.107 C 
BRANCH  23  26
ATOM     24  O   UNL     1      32.476 -20.549 -19.983  0.00  0.00    -0.275 OA
ATOM     25  N   UNL     1      34.684 -20.029 -20.462  0.00  0.00    -0.279 N 
ATOM     26  C   UNL     1      33.680 -20.752 -19.807  0.00  0.00    +0.227 C 
ATOM     27  C   UNL     1      36.105 -20.286 -20.239  0.00  0.00    +0.115 C 
BRANCH  25  28
ATOM     28  C   UNL     1      34.391 -18.977 -21.405  0.00  0.00    +0.075 C 
ATOM     29  C   UNL     1      34.544 -19.486 -22.840  0.00  0.00    +0.020 C 
ATOM     30  C   UNL     1      35.279 -17.756 -21.149  0.00  0.00    +0.020 C 
ATOM     31  C   UNL     1      34.291 -18.379 -23.861  0.00  0.00    +0.002 C 
ATOM     32  C   UNL     1      35.024 -16.651 -22.171  0.00  0.00    +0.002 C 
ATOM     33  C   UNL     1      35.175 -17.162 -23.600  0.00  0.00    +0.000 C 
ENDBRANCH  25  28
ENDBRANCH  23  26
ENDBRANCH  22  23
ENDBRANCH   1  22
TORSDOF 6
ENDMDL
