MODEL 1
REMARK VINA RESULT:     -12.5      0.000      0.000
REMARK  Name = 23629645
REMARK  6 active torsions:
REMARK  status: ('A' for Active; 'I' for Inactive)
REMARK    1  A    between atoms: N_1  and  C_6
REMARK    2  A    between atoms: N_1  and  C_21
REMARK    3  A    between atoms: C_3  and  C_16
REMARK    4  A    between atoms: C_11  and  C_18
REMARK    5  A    between atoms: C_18  and  O_19
REMARK    6  A    between atoms: C_21  and  C_28
REMARK                            x       y       z     vdW  Elec       q    Type
REMARK                         _______ _______ _______ _____ _____    ______ ____
ROOT
ATOM      1  N   UNL     1      35.475 -19.240 -21.994  0.00  0.00    -0.300 N 
ATOM      2  C   UNL     1      36.720 -18.516 -21.834  0.00  0.00    +0.113 C 
ENDROOT
BRANCH   1   6
ATOM      3  C   UNL     1      33.995 -21.636 -18.883  0.00  0.00    +0.054 C 
ATOM      4  C   UNL     1      35.366 -21.569 -19.115  0.00  0.00    +0.006 C 
ATOM      5  C   UNL     1      33.112 -20.912 -19.680  0.00  0.00    +0.006 C 
ATOM      6  C   UNL     1      34.977 -20.046 -20.947  0.00  0.00    +0.048 C 
ATOM      7  C   UNL     1      35.859 -20.773 -20.148  0.00  0.00    +0.015 C 
ATOM      8  C   UNL     1      33.603 -20.115 -20.714  0.00  0.00    +0.015 C 
BRANCH   3  16
ATOM      9  O   UNL     1      32.264 -22.679 -17.798  0.00  0.00    -0.270 OA
ATOM     10  N   UNL     1      34.382 -22.962 -16.850  0.00  0.00    -0.276 N 
ATOM     11  C   UNL     1      35.761 -22.871 -14.300  0.00  0.00    +0.102 C 
ATOM     12  C   UNL     1      34.273 -23.224 -14.410  0.00  0.00    +0.033 C 
ATOM     13  C   UNL     1      36.266 -22.094 -15.522  0.00  0.00    +0.033 C 
ATOM     14  C   UNL     1      33.908 -23.821 -15.769  0.00  0.00    +0.094 C 
ATOM     15  C   UNL     1      35.829 -22.720 -16.845  0.00  0.00    +0.094 C 
ATOM     16  C   UNL     1      33.476 -22.475 -17.796  0.00  0.00    +0.249 C 
BRANCH  11  18
ATOM     17  O   UNL     1      36.096 -25.196 -13.765  0.00  0.00    -0.250 OA
ATOM     18  C   UNL     1      36.572 -24.114 -14.077  0.00  0.00    +0.317 C 
BRANCH  18  19
ATOM     19  O   UNL     1      37.893 -23.838 -14.275  0.00  0.00    -0.444 OA
ATOM     20  C   UNL     1      38.755 -24.978 -14.349  0.00  0.00    +0.256 C 
ENDBRANCH  18  19
ENDBRANCH  11  18
ENDBRANCH   3  16
ENDBRANCH   1   6
BRANCH   1  21
ATOM     21  C   UNL     1      34.753 -19.137 -23.247  0.00  0.00    +0.148 C 
BRANCH  21  28
ATOM     22  N   UNL     1      34.497 -16.797 -22.666  0.00  0.00    -0.392 NA
ATOM     23  N   UNL     1      34.132 -16.095 -25.319  0.00  0.00    -0.200 NA
ATOM     24  N   UNL     1      33.893 -13.873 -24.713  0.00  0.00    -0.271 NA
ATOM     25  N   UNL     1      34.037 -13.199 -22.416  0.00  0.00    -0.310 NA
ATOM     26  N   UNL     1      34.427 -14.822 -20.744  0.00  0.00    -0.329 N 
ATOM     27  N   UNL     1      33.652 -11.619 -24.102  0.00  0.00    -0.283 N 
ATOM     28  C   UNL     1      34.520 -17.703 -23.644  0.00  0.00    +0.133 C 
ATOM     29  C   UNL     1      34.341 -17.374 -24.950  0.00  0.00    +0.193 C 
ATOM     30  C   UNL     1      34.287 -15.519 -23.037  0.00  0.00    +0.248 C 
ATOM     31  C   UNL     1      34.101 -15.150 -24.371  0.00  0.00    +0.131 C 
ATOM     32  C   UNL     1      34.243 -14.492 -22.113  0.00  0.00    +0.231 C 
ATOM     33  C   UNL     1      33.871 -12.961 -23.723  0.00  0.00    +0.207 C 
ATOM     34  H   UNL     1      34.401 -14.114 -20.060  0.00  0.00    +0.145 HD
ATOM     35  H   UNL     1      34.581 -15.757 -20.480  0.00  0.00    +0.145 HD
ATOM     36  H   UNL     1      33.525 -11.392 -25.052  0.00  0.00    +0.156 HD
ATOM     37  H   UNL     1      33.626 -10.913 -23.418  0.00  0.00    +0.156 HD
ENDBRANCH  21  28
ENDBRANCH   1  21
TORSDOF 6
ENDMDL
MODEL 2
REMARK VINA RESULT:     -12.2      0.674      1.619
REMARK  Name = 23629645
REMARK  6 active torsions:
REMARK  status: ('A' for Active; 'I' for Inactive)
REMARK    1  A    between atoms: N_1  and  C_6
REMARK    2  A    between atoms: N_1  and  C_21
REMARK    3  A    between atoms: C_3  and  C_16
REMARK    4  A    between atoms: C_11  and  C_18
REMARK    5  A    between atoms: C_18  and  O_19
REMARK    6  A    between atoms: C_21  and  C_28
REMARK                            x       y       z     vdW  Elec       q    Type
REMARK                         _______ _______ _______ _____ _____    ______ ____
ROOT
ATOM      1  N   UNL     1      35.734 -19.130 -21.803  0.00  0.00    -0.300 N 
ATOM      2  C   UNL     1      37.135 -18.764 -21.763  0.00  0.00    +0.113 C 
ENDROOT
BRANCH   1   6
ATOM      3  C   UNL     1      34.109 -21.640 -18.860  0.00  0.00    +0.054 C 
ATOM      4  C   UNL     1      35.490 -21.560 -19.017  0.00  0.00    +0.006 C 
ATOM      5  C   UNL     1      33.264 -20.892 -19.676  0.00  0.00    +0.006 C 
ATOM      6  C   UNL     1      35.188 -19.974 -20.813  0.00  0.00    +0.048 C 
ATOM      7  C   UNL     1      36.031 -20.725 -19.995  0.00  0.00    +0.015 C 
ATOM      8  C   UNL     1      33.804 -20.058 -20.654  0.00  0.00    +0.015 C 
BRANCH   3  16
ATOM      9  O   UNL     1      32.335 -22.749 -17.918  0.00  0.00    -0.270 OA
ATOM     10  N   UNL     1      34.393 -23.013 -16.841  0.00  0.00    -0.276 N 
ATOM     11  C   UNL     1      35.601 -22.964 -14.204  0.00  0.00    +0.102 C 
ATOM     12  C   UNL     1      34.132 -23.344 -14.421  0.00  0.00    +0.033 C 
ATOM     13  C   UNL     1      36.166 -22.143 -15.369  0.00  0.00    +0.033 C 
ATOM     14  C   UNL     1      33.869 -23.912 -15.816  0.00  0.00    +0.094 C 
ATOM     15  C   UNL     1      35.831 -22.741 -16.735  0.00  0.00    +0.094 C 
ATOM     16  C   UNL     1      33.540 -22.520 -17.831  0.00  0.00    +0.249 C 
BRANCH  11  18
ATOM     17  O   UNL     1      35.955 -25.282 -13.651  0.00  0.00    -0.250 OA
ATOM     18  C   UNL     1      36.424 -24.195 -13.960  0.00  0.00    +0.317 C 
BRANCH  18  19
ATOM     19  O   UNL     1      37.744 -23.904 -14.137  0.00  0.00    -0.444 OA
ATOM     20  C   UNL     1      38.658 -24.937 -13.756  0.00  0.00    +0.256 C 
ENDBRANCH  18  19
ENDBRANCH  11  18
ENDBRANCH   3  16
ENDBRANCH   1   6
BRANCH   1  21
ATOM     21  C   UNL     1      34.903 -18.629 -22.880  0.00  0.00    +0.148 C 
BRANCH  21  28
ATOM     22  N   UNL     1      34.289 -16.507 -23.879  0.00  0.00    -0.392 NA
ATOM     23  N   UNL     1      34.688 -15.174 -21.486  0.00  0.00    -0.200 NA
ATOM     24  N   UNL     1      34.094 -13.172 -22.487  0.00  0.00    -0.271 NA
ATOM     25  N   UNL     1      33.477 -13.085 -24.802  0.00  0.00    -0.310 NA
ATOM     26  N   UNL     1      33.475 -15.069 -26.085  0.00  0.00    -0.329 N 
ATOM     27  N   UNL     1      33.491 -11.140 -23.497  0.00  0.00    -0.283 N 
ATOM     28  C   UNL     1      34.682 -17.144 -22.775  0.00  0.00    +0.133 C 
ATOM     29  C   UNL     1      34.882 -16.502 -21.594  0.00  0.00    +0.193 C 
ATOM     30  C   UNL     1      34.095 -15.178 -23.769  0.00  0.00    +0.248 C 
ATOM     31  C   UNL     1      34.293 -14.492 -22.569  0.00  0.00    +0.131 C 
ATOM     32  C   UNL     1      33.687 -14.413 -24.845  0.00  0.00    +0.231 C 
ATOM     33  C   UNL     1      33.697 -12.533 -23.603  0.00  0.00    +0.207 C 
ATOM     34  H   UNL     1      33.184 -14.552 -26.872  0.00  0.00    +0.145 HD
ATOM     35  H   UNL     1      33.617 -16.040 -26.159  0.00  0.00    +0.145 HD
ATOM     36  H   UNL     1      33.639 -10.686 -22.637  0.00  0.00    +0.156 HD
ATOM     37  H   UNL     1      33.202 -10.625 -24.284  0.00  0.00    +0.156 HD
ENDBRANCH  21  28
ENDBRANCH   1  21
TORSDOF 6
ENDMDL
MODEL 3
REMARK VINA RESULT:     -11.1      1.845      3.471
REMARK  Name = 23629645
REMARK  6 active torsions:
REMARK  status: ('A' for Active; 'I' for Inactive)
REMARK    1  A    between atoms: N_1  and  C_6
REMARK    2  A    between atoms: N_1  and  C_21
REMARK    3  A    between atoms: C_3  and  C_16
REMARK    4  A    between atoms: C_11  and  C_18
REMARK    5  A    between atoms: C_18  and  O_19
REMARK    6  A    between atoms: C_21  and  C_28
REMARK                            x       y       z     vdW  Elec       q    Type
REMARK                         _______ _______ _______ _____ _____    ______ ____
ROOT
ATOM      1  N   UNL     1      34.027 -20.939 -19.773  0.00  0.00    -0.300 N 
ATOM      2  C   UNL     1      32.769 -20.534 -20.367  0.00  0.00    +0.113 C 
ENDROOT
BRANCH   1   6
ATOM      3  C   UNL     1      34.078 -23.207 -16.244  0.00  0.00    +0.054 C 
ATOM      4  C   UNL     1      32.874 -22.980 -16.904  0.00  0.00    +0.006 C 
ATOM      5  C   UNL     1      35.266 -22.684 -16.748  0.00  0.00    +0.006 C 
ATOM      6  C   UNL     1      34.044 -21.702 -18.586  0.00  0.00    +0.048 C 
ATOM      7  C   UNL     1      32.856 -22.227 -18.078  0.00  0.00    +0.015 C 
ATOM      8  C   UNL     1      35.249 -21.930 -17.922  0.00  0.00    +0.015 C 
BRANCH   3  16
ATOM      9  O   UNL     1      33.000 -24.278 -14.526  0.00  0.00    -0.270 OA
ATOM     10  N   UNL     1      35.335 -24.363 -14.475  0.00  0.00    -0.276 N 
ATOM     11  C   UNL     1      37.584 -24.011 -12.677  0.00  0.00    +0.102 C 
ATOM     12  C   UNL     1      36.206 -24.462 -12.181  0.00  0.00    +0.033 C 
ATOM     13  C   UNL     1      37.507 -23.290 -14.029  0.00  0.00    +0.033 C 
ATOM     14  C   UNL     1      35.393 -25.173 -13.262  0.00  0.00    +0.094 C 
ATOM     15  C   UNL     1      36.645 -24.032 -15.049  0.00  0.00    +0.094 C 
ATOM     16  C   UNL     1      34.096 -24.000 -15.008  0.00  0.00    +0.249 C 
BRANCH  11  18
ATOM     17  O   UNL     1      38.290 -26.271 -12.233  0.00  0.00    -0.250 OA
ATOM     18  C   UNL     1      38.520 -25.183 -12.742  0.00  0.00    +0.317 C 
BRANCH  18  19
ATOM     19  O   UNL     1      39.636 -24.837 -13.444  0.00  0.00    -0.444 OA
ATOM     20  C   UNL     1      40.203 -25.875 -14.249  0.00  0.00    +0.256 C 
ENDBRANCH  18  19
ENDBRANCH  11  18
ENDBRANCH   3  16
ENDBRANCH   1   6
BRANCH   1  21
ATOM     21  C   UNL     1      35.269 -20.539 -20.406  0.00  0.00    +0.148 C 
BRANCH  21  28
ATOM     22  N   UNL     1      34.587 -19.438 -22.456  0.00  0.00    -0.392 NA
ATOM     23  N   UNL     1      35.321 -16.960 -21.465  0.00  0.00    -0.200 NA
ATOM     24  N   UNL     1      34.656 -15.956 -23.443  0.00  0.00    -0.271 NA
ATOM     25  N   UNL     1      33.753 -17.257 -25.243  0.00  0.00    -0.310 NA
ATOM     26  N   UNL     1      33.536 -19.597 -24.999  0.00  0.00    -0.329 N 
ATOM     27  N   UNL     1      33.982 -14.936 -25.447  0.00  0.00    -0.283 N 
ATOM     28  C   UNL     1      35.101 -19.292 -21.234  0.00  0.00    +0.133 C 
ATOM     29  C   UNL     1      35.466 -18.083 -20.735  0.00  0.00    +0.193 C 
ATOM     30  C   UNL     1      34.443 -18.314 -23.185  0.00  0.00    +0.248 C 
ATOM     31  C   UNL     1      34.809 -17.058 -22.699  0.00  0.00    +0.131 C 
ATOM     32  C   UNL     1      33.921 -18.340 -24.464  0.00  0.00    +0.231 C 
ATOM     33  C   UNL     1      34.137 -16.108 -24.676  0.00  0.00    +0.207 C 
ATOM     34  H   UNL     1      33.161 -19.651 -25.908  0.00  0.00    +0.145 HD
ATOM     35  H   UNL     1      33.643 -20.415 -24.462  0.00  0.00    +0.145 HD
ATOM     36  H   UNL     1      34.250 -14.064 -25.075  0.00  0.00    +0.156 HD
ATOM     37  H   UNL     1      33.609 -14.990 -26.355  0.00  0.00    +0.156 HD
ENDBRANCH  21  28
ENDBRANCH   1  21
TORSDOF 6
ENDMDL
MODEL 4
REMARK VINA RESULT:     -10.6      4.084     10.457
REMARK  Name = 23629645
REMARK  6 active torsions:
REMARK  status: ('A' for Active; 'I' for Inactive)
REMARK    1  A    between atoms: N_1  and  C_6
REMARK    2  A    between atoms: N_1  and  C_21
REMARK    3  A    between atoms: C_3  and  C_16
REMARK    4  A    between atoms: C_11  and  C_18
REMARK    5  A    between atoms: C_18  and  O_19
REMARK    6  A    between atoms: C_21  and  C_28
REMARK                            x       y       z     vdW  Elec       q    Type
REMARK                         _______ _______ _______ _____ _____    ______ ____
ROOT
ATOM      1  N   UNL     1      36.231 -20.641 -19.801  0.00  0.00    -0.300 N 
ATOM      2  C   UNL     1      37.124 -20.209 -18.745  0.00  0.00    +0.113 C 
ENDROOT
BRANCH   1   6
ATOM      3  C   UNL     1      34.938 -17.932 -22.731  0.00  0.00    +0.054 C 
ATOM      4  C   UNL     1      34.142 -19.025 -22.399  0.00  0.00    +0.006 C 
ATOM      5  C   UNL     1      36.161 -17.734 -22.097  0.00  0.00    +0.006 C 
ATOM      6  C   UNL     1      35.796 -19.730 -20.786  0.00  0.00    +0.048 C 
ATOM      7  C   UNL     1      34.571 -19.926 -21.424  0.00  0.00    +0.015 C 
ATOM      8  C   UNL     1      36.591 -18.634 -21.122  0.00  0.00    +0.015 C 
BRANCH   3  16
ATOM      9  O   UNL     1      34.610 -17.349 -24.926  0.00  0.00    -0.270 OA
ATOM     10  N   UNL     1      33.967 -15.757 -23.340  0.00  0.00    -0.276 N 
ATOM     11  C   UNL     1      34.174 -12.924 -22.748  0.00  0.00    +0.102 C 
ATOM     12  C   UNL     1      34.210 -13.462 -24.183  0.00  0.00    +0.033 C 
ATOM     13  C   UNL     1      34.546 -13.996 -21.717  0.00  0.00    +0.033 C 
ATOM     14  C   UNL     1      33.483 -14.799 -24.330  0.00  0.00    +0.094 C 
ATOM     15  C   UNL     1      33.817 -15.320 -21.947  0.00  0.00    +0.094 C 
ATOM     16  C   UNL     1      34.485 -16.984 -23.758  0.00  0.00    +0.249 C 
BRANCH  11  18
ATOM     17  O   UNL     1      31.896 -12.957 -21.965  0.00  0.00    -0.250 OA
ATOM     18  C   UNL     1      32.828 -12.331 -22.451  0.00  0.00    +0.317 C 
BRANCH  18  19
ATOM     19  O   UNL     1      32.821 -11.015 -22.806  0.00  0.00    -0.444 OA
ATOM     20  C   UNL     1      32.006 -10.163 -21.994  0.00  0.00    +0.256 C 
ENDBRANCH  18  19
ENDBRANCH  11  18
ENDBRANCH   3  16
ENDBRANCH   1   6
BRANCH   1  21
ATOM     21  C   UNL     1      35.780 -22.019 -19.825  0.00  0.00    +0.148 C 
BRANCH  21  28
ATOM     22  N   UNL     1      35.076 -22.750 -17.623  0.00  0.00    -0.392 NA
ATOM     23  N   UNL     1      32.420 -22.244 -18.216  0.00  0.00    -0.200 NA
ATOM     24  N   UNL     1      31.799 -22.953 -16.101  0.00  0.00    -0.271 NA
ATOM     25  N   UNL     1      33.438 -23.709 -14.522  0.00  0.00    -0.310 NA
ATOM     26  N   UNL     1      35.721 -23.733 -15.130  0.00  0.00    -0.329 N 
ATOM     27  N   UNL     1      31.165 -23.670 -13.957  0.00  0.00    -0.283 N 
ATOM     28  C   UNL     1      34.697 -22.273 -18.810  0.00  0.00    +0.133 C 
ATOM     29  C   UNL     1      33.398 -22.021 -19.115  0.00  0.00    +0.193 C 
ATOM     30  C   UNL     1      34.097 -22.972 -16.725  0.00  0.00    +0.248 C 
ATOM     31  C   UNL     1      32.753 -22.723 -17.010  0.00  0.00    +0.131 C 
ATOM     32  C   UNL     1      34.367 -23.464 -15.463  0.00  0.00    +0.231 C 
ATOM     33  C   UNL     1      32.185 -23.433 -14.904  0.00  0.00    +0.207 C 
ATOM     34  H   UNL     1      35.948 -24.084 -14.239  0.00  0.00    +0.145 HD
ATOM     35  H   UNL     1      36.432 -23.568 -15.790  0.00  0.00    +0.145 HD
ATOM     36  H   UNL     1      30.227 -23.483 -14.189  0.00  0.00    +0.156 HD
ATOM     37  H   UNL     1      31.393 -24.022 -13.067  0.00  0.00    +0.156 HD
ENDBRANCH  21  28
ENDBRANCH   1  21
TORSDOF 6
ENDMDL
MODEL 5
REMARK VINA RESULT:     -10.1      1.605      2.936
REMARK  Name = 23629645
REMARK  6 active torsions:
REMARK  status: ('A' for Active; 'I' for Inactive)
REMARK    1  A    between atoms: N_1  and  C_6
REMARK    2  A    between atoms: N_1  and  C_21
REMARK    3  A    between atoms: C_3  and  C_16
REMARK    4  A    between atoms: C_11  and  C_18
REMARK    5  A    between atoms: C_18  and  O_19
REMARK    6  A    between atoms: C_21  and  C_28
REMARK                            x       y       z     vdW  Elec       q    Type
REMARK                         _______ _______ _______ _____ _____    ______ ____
ROOT
ATOM      1  N   UNL     1      35.041 -19.721 -21.243  0.00  0.00    -0.300 N 
ATOM      2  C   UNL     1      33.654 -19.823 -21.651  0.00  0.00    +0.113 C 
ENDROOT
BRANCH   1   6
ATOM      3  C   UNL     1      36.385 -21.669 -17.778  0.00  0.00    +0.054 C 
ATOM      4  C   UNL     1      35.142 -21.991 -18.317  0.00  0.00    +0.006 C 
ATOM      5  C   UNL     1      37.184 -20.703 -18.384  0.00  0.00    +0.006 C 
ATOM      6  C   UNL     1      35.493 -20.377 -20.078  0.00  0.00    +0.048 C 
ATOM      7  C   UNL     1      34.695 -21.344 -19.469  0.00  0.00    +0.015 C 
ATOM      8  C   UNL     1      36.737 -20.055 -19.536  0.00  0.00    +0.015 C 
BRANCH   3  16
ATOM      9  O   UNL     1      38.073 -22.449 -16.436  0.00  0.00    -0.270 OA
ATOM     10  N   UNL     1      35.899 -22.834 -15.669  0.00  0.00    -0.276 N 
ATOM     11  C   UNL     1      34.218 -24.918 -14.553  0.00  0.00    +0.102 C 
ATOM     12  C   UNL     1      35.737 -24.900 -14.351  0.00  0.00    +0.033 C 
ATOM     13  C   UNL     1      33.785 -24.093 -15.771  0.00  0.00    +0.033 C 
ATOM     14  C   UNL     1      36.328 -23.493 -14.439  0.00  0.00    +0.094 C 
ATOM     15  C   UNL     1      34.444 -22.716 -15.821  0.00  0.00    +0.094 C 
ATOM     16  C   UNL     1      36.855 -22.349 -16.565  0.00  0.00    +0.249 C 
BRANCH  11  18
ATOM     17  O   UNL     1      34.102 -24.170 -12.265  0.00  0.00    -0.250 OA
ATOM     18  C   UNL     1      33.525 -24.448 -13.307  0.00  0.00    +0.317 C 
BRANCH  18  19
ATOM     19  O   UNL     1      32.181 -24.385 -13.529  0.00  0.00    -0.444 OA
ATOM     20  C   UNL     1      31.504 -23.294 -12.898  0.00  0.00    +0.256 C 
ENDBRANCH  18  19
ENDBRANCH  11  18
ENDBRANCH   3  16
ENDBRANCH   1   6
BRANCH   1  21
ATOM     21  C   UNL     1      35.956 -18.928 -22.040  0.00  0.00    +0.148 C 
BRANCH  21  28
ATOM     22  N   UNL     1      35.024 -16.778 -22.662  0.00  0.00    -0.392 NA
ATOM     23  N   UNL     1      34.153 -17.769 -25.096  0.00  0.00    -0.200 NA
ATOM     24  N   UNL     1      33.279 -15.695 -25.643  0.00  0.00    -0.271 NA
ATOM     25  N   UNL     1      33.456 -13.844 -24.130  0.00  0.00    -0.310 NA
ATOM     26  N   UNL     1      34.537 -14.134 -22.050  0.00  0.00    -0.329 N 
ATOM     27  N   UNL     1      32.393 -13.595 -26.202  0.00  0.00    -0.283 N 
ATOM     28  C   UNL     1      35.228 -18.046 -23.020  0.00  0.00    +0.133 C 
ATOM     29  C   UNL     1      34.805 -18.546 -24.210  0.00  0.00    +0.193 C 
ATOM     30  C   UNL     1      34.371 -16.001 -23.549  0.00  0.00    +0.248 C 
ATOM     31  C   UNL     1      33.926 -16.487 -24.780  0.00  0.00    +0.131 C 
ATOM     32  C   UNL     1      34.103 -14.671 -23.290  0.00  0.00    +0.231 C 
ATOM     33  C   UNL     1      33.076 -14.416 -25.278  0.00  0.00    +0.207 C 
ATOM     34  H   UNL     1      34.362 -13.190 -21.834  0.00  0.00    +0.145 HD
ATOM     35  H   UNL     1      35.014 -14.706 -21.406  0.00  0.00    +0.145 HD
ATOM     36  H   UNL     1      32.092 -13.968 -27.062  0.00  0.00    +0.156 HD
ATOM     37  H   UNL     1      32.217 -12.651 -25.985  0.00  0.00    +0.156 HD
ENDBRANCH  21  28
ENDBRANCH   1  21
TORSDOF 6
ENDMDL
MODEL 6
REMARK VINA RESULT:     -10.1      5.005     10.474
REMARK  Name = 23629645
REMARK  6 active torsions:
REMARK  status: ('A' for Active; 'I' for Inactive)
REMARK    1  A    between atoms: N_1  and  C_6
REMARK    2  A    between atoms: N_1  and  C_21
REMARK    3  A    between atoms: C_3  and  C_16
REMARK    4  A    between atoms: C_11  and  C_18
REMARK    5  A    between atoms: C_18  and  O_19
REMARK    6  A    between atoms: C_21  and  C_28
REMARK                            x       y       z     vdW  Elec       q    Type
REMARK                         _______ _______ _______ _____ _____    ______ ____
ROOT
ATOM      1  N   UNL     1      35.092 -18.775 -23.039  0.00  0.00    -0.300 N 
ATOM      2  C   UNL     1      34.781 -19.800 -24.014  0.00  0.00    +0.113 C 
ENDROOT
BRANCH   1   6
ATOM      3  C   UNL     1      33.972 -14.788 -23.717  0.00  0.00    +0.054 C 
ATOM      4  C   UNL     1      33.688 -15.760 -24.673  0.00  0.00    +0.006 C 
ATOM      5  C   UNL     1      34.626 -15.133 -22.537  0.00  0.00    +0.006 C 
ATOM      6  C   UNL     1      34.715 -17.434 -23.267  0.00  0.00    +0.048 C 
ATOM      7  C   UNL     1      34.060 -17.086 -24.448  0.00  0.00    +0.015 C 
ATOM      8  C   UNL     1      34.998 -16.458 -22.311  0.00  0.00    +0.015 C 
BRANCH   3  16
ATOM      9  O   UNL     1      33.990 -12.885 -24.998  0.00  0.00    -0.270 OA
ATOM     10  N   UNL     1      32.798 -12.754 -22.991  0.00  0.00    -0.276 N 
ATOM     11  C   UNL     1      32.421 -11.045 -20.678  0.00  0.00    +0.102 C 
ATOM     12  C   UNL     1      32.824 -10.487 -22.048  0.00  0.00    +0.033 C 
ATOM     13  C   UNL     1      32.753 -12.535 -20.538  0.00  0.00    +0.033 C 
ATOM     14  C   UNL     1      32.367 -11.376 -23.205  0.00  0.00    +0.094 C 
ATOM     15  C   UNL     1      32.309 -13.359 -21.746  0.00  0.00    +0.094 C 
ATOM     16  C   UNL     1      33.581 -13.393 -23.955  0.00  0.00    +0.249 C 
BRANCH  11  18
ATOM     17  O   UNL     1      30.064 -11.153 -21.168  0.00  0.00    -0.250 OA
ATOM     18  C   UNL     1      30.964 -10.789 -20.424  0.00  0.00    +0.317 C 
BRANCH  18  19
ATOM     19  O   UNL     1      30.819 -10.101 -19.255  0.00  0.00    -0.444 OA
ATOM     20  C   UNL     1      31.623  -8.924 -19.131  0.00  0.00    +0.256 C 
ENDBRANCH  18  19
ENDBRANCH  11  18
ENDBRANCH   3  16
ENDBRANCH   1   6
BRANCH   1  21
ATOM     21  C   UNL     1      35.806 -19.140 -21.832  0.00  0.00    +0.148 C 
BRANCH  21  28
ATOM     22  N   UNL     1      35.572 -20.615 -19.921  0.00  0.00    -0.392 NA
ATOM     23  N   UNL     1      32.823 -20.708 -20.228  0.00  0.00    -0.200 NA
ATOM     24  N   UNL     1      32.652 -22.116 -18.397  0.00  0.00    -0.271 NA
ATOM     25  N   UNL     1      34.603 -22.803 -17.183  0.00  0.00    -0.310 NA
ATOM     26  N   UNL     1      36.732 -22.035 -17.863  0.00  0.00    -0.329 N 
ATOM     27  N   UNL     1      32.476 -23.541 -16.540  0.00  0.00    -0.283 N 
ATOM     28  C   UNL     1      34.949 -19.950 -20.895  0.00  0.00    +0.133 C 
ATOM     29  C   UNL     1      33.601 -19.988 -21.058  0.00  0.00    +0.193 C 
ATOM     30  C   UNL     1      34.793 -21.335 -19.091  0.00  0.00    +0.248 C 
ATOM     31  C   UNL     1      33.405 -21.392 -19.234  0.00  0.00    +0.131 C 
ATOM     32  C   UNL     1      35.324 -22.064 -18.045  0.00  0.00    +0.231 C 
ATOM     33  C   UNL     1      33.285 -22.784 -17.415  0.00  0.00    +0.207 C 
ATOM     34  H   UNL     1      37.143 -22.543 -17.126  0.00  0.00    +0.145 HD
ATOM     35  H   UNL     1      37.296 -21.506 -18.471  0.00  0.00    +0.145 HD
ATOM     36  H   UNL     1      31.500 -23.561 -16.668  0.00  0.00    +0.156 HD
ATOM     37  H   UNL     1      32.887 -24.050 -15.805  0.00  0.00    +0.156 HD
ENDBRANCH  21  28
ENDBRANCH   1  21
TORSDOF 6
ENDMDL
MODEL 7
REMARK VINA RESULT:      -9.9      2.318      4.846
REMARK  Name = 23629645
REMARK  6 active torsions:
REMARK  status: ('A' for Active; 'I' for Inactive)
REMARK    1  A    between atoms: N_1  and  C_6
REMARK    2  A    between atoms: N_1  and  C_21
REMARK    3  A    between atoms: C_3  and  C_16
REMARK    4  A    between atoms: C_11  and  C_18
REMARK    5  A    between atoms: C_18  and  O_19
REMARK    6  A    between atoms: C_21  and  C_28
REMARK                            x       y       z     vdW  Elec       q    Type
REMARK                         _______ _______ _______ _____ _____    ______ ____
ROOT
ATOM      1  N   UNL     1      33.931 -15.963 -24.409  0.00  0.00    -0.300 N 
ATOM      2  C   UNL     1      32.752 -16.294 -25.183  0.00  0.00    +0.113 C 
ENDROOT
BRANCH   1   6
ATOM      3  C   UNL     1      35.518 -18.716 -21.670  0.00  0.00    +0.054 C 
ATOM      4  C   UNL     1      35.478 -17.362 -21.347  0.00  0.00    +0.006 C 
ATOM      5  C   UNL     1      35.035 -19.161 -22.898  0.00  0.00    +0.006 C 
ATOM      6  C   UNL     1      34.464 -16.889 -23.488  0.00  0.00    +0.048 C 
ATOM      7  C   UNL     1      34.950 -16.447 -22.257  0.00  0.00    +0.015 C 
ATOM      8  C   UNL     1      34.507 -18.246 -23.808  0.00  0.00    +0.015 C 
BRANCH   3  16
ATOM      9  O   UNL     1      37.298 -19.803 -20.715  0.00  0.00    -0.270 OA
ATOM     10  N   UNL     1      35.188 -20.379 -19.890  0.00  0.00    -0.276 N 
ATOM     11  C   UNL     1      33.570 -22.685 -19.199  0.00  0.00    +0.102 C 
ATOM     12  C   UNL     1      35.101 -22.713 -19.128  0.00  0.00    +0.033 C 
ATOM     13  C   UNL     1      33.051 -21.581 -20.128  0.00  0.00    +0.033 C 
ATOM     14  C   UNL     1      35.706 -21.327 -18.907  0.00  0.00    +0.094 C 
ATOM     15  C   UNL     1      33.728 -20.233 -19.884  0.00  0.00    +0.094 C 
ATOM     16  C   UNL     1      36.075 -19.680 -20.712  0.00  0.00    +0.249 C 
BRANCH  11  18
ATOM     17  O   UNL     1      31.843 -22.188 -17.593  0.00  0.00    -0.250 OA
ATOM     18  C   UNL     1      32.990 -22.549 -17.821  0.00  0.00    +0.317 C 
BRANCH  18  19
ATOM     19  O   UNL     1      33.932 -22.884 -16.894  0.00  0.00    -0.444 OA
ATOM     20  C   UNL     1      33.431 -23.491 -15.699  0.00  0.00    +0.256 C 
ENDBRANCH  18  19
ENDBRANCH  11  18
ENDBRANCH   3  16
ENDBRANCH   1   6
BRANCH   1  21
ATOM     21  C   UNL     1      34.548 -14.663 -24.583  0.00  0.00    +0.148 C 
BRANCH  21  28
ATOM     22  N   UNL     1      34.234 -12.332 -23.993  0.00  0.00    -0.392 NA
ATOM     23  N   UNL     1      32.124 -12.959 -22.313  0.00  0.00    -0.200 NA
ATOM     24  N   UNL     1      31.865 -10.720 -21.781  0.00  0.00    -0.271 NA
ATOM     25  N   UNL     1      33.292  -9.050 -22.743  0.00  0.00    -0.310 NA
ATOM     26  N   UNL     1      34.989  -9.694 -24.256  0.00  0.00    -0.329 N 
ATOM     27  N   UNL     1      31.599  -8.451 -21.241  0.00  0.00    -0.283 N 
ATOM     28  C   UNL     1      33.819 -13.588 -23.822  0.00  0.00    +0.133 C 
ATOM     29  C   UNL     1      32.786 -13.910 -23.000  0.00  0.00    +0.193 C 
ATOM     30  C   UNL     1      33.572 -11.382 -23.305  0.00  0.00    +0.248 C 
ATOM     31  C   UNL     1      32.506 -11.683 -22.454  0.00  0.00    +0.131 C 
ATOM     32  C   UNL     1      33.911 -10.046 -23.402  0.00  0.00    +0.231 C 
ATOM     33  C   UNL     1      32.287  -9.454 -21.958  0.00  0.00    +0.207 C 
ATOM     34  H   UNL     1      35.256  -8.751 -24.348  0.00  0.00    +0.145 HD
ATOM     35  H   UNL     1      35.468 -10.393 -24.757  0.00  0.00    +0.145 HD
ATOM     36  H   UNL     1      30.851  -8.696 -20.648  0.00  0.00    +0.156 HD
ATOM     37  H   UNL     1      31.867  -7.509 -21.332  0.00  0.00    +0.156 HD
ENDBRANCH  21  28
ENDBRANCH   1  21
TORSDOF 6
ENDMDL
MODEL 8
REMARK VINA RESULT:      -9.9      4.340     10.832
REMARK  Name = 23629645
REMARK  6 active torsions:
REMARK  status: ('A' for Active; 'I' for Inactive)
REMARK    1  A    between atoms: N_1  and  C_6
REMARK    2  A    between atoms: N_1  and  C_21
REMARK    3  A    between atoms: C_3  and  C_16
REMARK    4  A    between atoms: C_11  and  C_18
REMARK    5  A    between atoms: C_18  and  O_19
REMARK    6  A    between atoms: C_21  and  C_28
REMARK                            x       y       z     vdW  Elec       q    Type
REMARK                         _______ _______ _______ _____ _____    ______ ____
ROOT
ATOM      1  N   UNL     1      35.628 -20.143 -20.651  0.00  0.00    -0.300 N 
ATOM      2  C   UNL     1      36.863 -20.031 -19.902  0.00  0.00    +0.113 C 
ENDROOT
BRANCH   1   6
ATOM      3  C   UNL     1      34.528 -17.165 -23.395  0.00  0.00    +0.054 C 
ATOM      4  C   UNL     1      35.279 -16.829 -22.271  0.00  0.00    +0.006 C 
ATOM      5  C   UNL     1      34.140 -18.485 -23.612  0.00  0.00    +0.006 C 
ATOM      6  C   UNL     1      35.258 -19.142 -21.574  0.00  0.00    +0.048 C 
ATOM      7  C   UNL     1      35.645 -17.819 -21.359  0.00  0.00    +0.015 C 
ATOM      8  C   UNL     1      34.505 -19.475 -22.700  0.00  0.00    +0.015 C 
BRANCH   3  16
ATOM      9  O   UNL     1      34.263 -16.409 -25.544  0.00  0.00    -0.270 OA
ATOM     10  N   UNL     1      33.684 -14.902 -23.853  0.00  0.00    -0.276 N 
ATOM     11  C   UNL     1      34.035 -12.136 -23.055  0.00  0.00    +0.102 C 
ATOM     12  C   UNL     1      34.062 -12.570 -24.525  0.00  0.00    +0.033 C 
ATOM     13  C   UNL     1      34.334 -13.298 -22.100  0.00  0.00    +0.033 C 
ATOM     14  C   UNL     1      33.266 -13.851 -24.776  0.00  0.00    +0.094 C 
ATOM     15  C   UNL     1      33.538 -14.559 -22.434  0.00  0.00    +0.094 C 
ATOM     16  C   UNL     1      34.142 -16.123 -24.354  0.00  0.00    +0.249 C 
BRANCH  11  18
ATOM     17  O   UNL     1      31.800 -12.065 -22.157  0.00  0.00    -0.250 OA
ATOM     18  C   UNL     1      32.718 -11.493 -22.729  0.00  0.00    +0.317 C 
BRANCH  18  19
ATOM     19  O   UNL     1      32.720 -10.202 -23.168  0.00  0.00    -0.444 OA
ATOM     20  C   UNL     1      31.989  -9.276 -22.357  0.00  0.00    +0.256 C 
ENDBRANCH  18  19
ENDBRANCH  11  18
ENDBRANCH   3  16
ENDBRANCH   1   6
BRANCH   1  21
ATOM     21  C   UNL     1      34.770 -21.291 -20.432  0.00  0.00    +0.148 C 
BRANCH  21  28
ATOM     22  N   UNL     1      33.710 -22.145 -18.426  0.00  0.00    -0.392 NA
ATOM     23  N   UNL     1      36.142 -22.314 -17.115  0.00  0.00    -0.200 NA
ATOM     24  N   UNL     1      35.082 -23.127 -15.223  0.00  0.00    -0.271 NA
ATOM     25  N   UNL     1      32.705 -23.439 -15.180  0.00  0.00    -0.310 NA
ATOM     26  N   UNL     1      31.422 -22.912 -17.092  0.00  0.00    -0.329 N 
ATOM     27  N   UNL     1      34.011 -23.952 -13.304  0.00  0.00    -0.283 N 
ATOM     28  C   UNL     1      34.853 -21.791 -19.014  0.00  0.00    +0.133 C 
ATOM     29  C   UNL     1      36.053 -21.868 -18.383  0.00  0.00    +0.193 C 
ATOM     30  C   UNL     1      33.800 -22.591 -17.157  0.00  0.00    +0.248 C 
ATOM     31  C   UNL     1      35.019 -22.681 -16.483  0.00  0.00    +0.131 C 
ATOM     32  C   UNL     1      32.684 -22.987 -16.446  0.00  0.00    +0.231 C 
ATOM     33  C   UNL     1      33.926 -23.483 -14.634  0.00  0.00    +0.207 C 
ATOM     34  H   UNL     1      30.607 -23.187 -16.613  0.00  0.00    +0.145 HD
ATOM     35  H   UNL     1      31.363 -22.586 -18.019  0.00  0.00    +0.145 HD
ATOM     36  H   UNL     1      34.887 -24.003 -12.857  0.00  0.00    +0.156 HD
ATOM     37  H   UNL     1      33.196 -24.225 -12.826  0.00  0.00    +0.156 HD
ENDBRANCH  21  28
ENDBRANCH   1  21
TORSDOF 6
ENDMDL
MODEL 9
REMARK VINA RESULT:      -9.9      4.272     10.782
REMARK  Name = 23629645
REMARK  6 active torsions:
REMARK  status: ('A' for Active; 'I' for Inactive)
REMARK    1  A    between atoms: N_1  and  C_6
REMARK    2  A    between atoms: N_1  and  C_21
REMARK    3  A    between atoms: C_3  and  C_16
REMARK    4  A    between atoms: C_11  and  C_18
REMARK    5  A    between atoms: C_18  and  O_19
REMARK    6  A    between atoms: C_21  and  C_28
REMARK                            x       y       z     vdW  Elec       q    Type
REMARK                         _______ _______ _______ _____ _____    ______ ____
ROOT
ATOM      1  N   UNL     1      35.272 -20.184 -20.691  0.00  0.00    -0.300 N 
ATOM      2  C   UNL     1      36.624 -20.429 -20.234  0.00  0.00    +0.113 C 
ENDROOT
BRANCH   1   6
ATOM      3  C   UNL     1      34.472 -17.073 -23.391  0.00  0.00    +0.054 C 
ATOM      4  C   UNL     1      35.127 -16.800 -22.193  0.00  0.00    +0.006 C 
ATOM      5  C   UNL     1      34.081 -18.374 -23.697  0.00  0.00    +0.006 C 
ATOM      6  C   UNL     1      35.003 -19.138 -21.599  0.00  0.00    +0.048 C 
ATOM      7  C   UNL     1      35.393 -17.834 -21.295  0.00  0.00    +0.015 C 
ATOM      8  C   UNL     1      34.347 -19.408 -22.800  0.00  0.00    +0.015 C 
BRANCH   3  16
ATOM      9  O   UNL     1      34.424 -16.220 -25.520  0.00  0.00    -0.270 OA
ATOM     10  N   UNL     1      33.700 -14.781 -23.827  0.00  0.00    -0.276 N 
ATOM     11  C   UNL     1      34.001 -12.057 -22.876  0.00  0.00    +0.102 C 
ATOM     12  C   UNL     1      34.165 -12.427 -24.354  0.00  0.00    +0.033 C 
ATOM     13  C   UNL     1      34.194 -13.264 -21.950  0.00  0.00    +0.033 C 
ATOM     14  C   UNL     1      33.384 -13.684 -24.738  0.00  0.00    +0.094 C 
ATOM     15  C   UNL     1      33.422 -14.498 -22.414  0.00  0.00    +0.094 C 
ATOM     16  C   UNL     1      34.191 -15.985 -24.336  0.00  0.00    +0.249 C 
BRANCH  11  18
ATOM     17  O   UNL     1      31.738 -11.942 -22.055  0.00  0.00    -0.250 OA
ATOM     18  C   UNL     1      32.665 -11.410 -22.650  0.00  0.00    +0.317 C 
BRANCH  18  19
ATOM     19  O   UNL     1      32.662 -10.164 -23.204  0.00  0.00    -0.444 OA
ATOM     20  C   UNL     1      32.007  -9.150 -22.435  0.00  0.00    +0.256 C 
ENDBRANCH  18  19
ENDBRANCH  11  18
ENDBRANCH   3  16
ENDBRANCH   1   6
BRANCH   1  21
ATOM     21  C   UNL     1      34.195 -21.017 -20.193  0.00  0.00    +0.148 C 
BRANCH  21  28
ATOM     22  N   UNL     1      35.638 -21.263 -18.260  0.00  0.00    -0.392 NA
ATOM     23  N   UNL     1      34.185 -23.438 -17.352  0.00  0.00    -0.200 NA
ATOM     24  N   UNL     1      35.592 -23.631 -15.523  0.00  0.00    -0.271 NA
ATOM     25  N   UNL     1      37.427 -22.119 -15.213  0.00  0.00    -0.310 NA
ATOM     26  N   UNL     1      37.809 -20.406 -16.795  0.00  0.00    -0.329 N 
ATOM     27  N   UNL     1      37.015 -23.829 -13.666  0.00  0.00    -0.283 N 
ATOM     28  C   UNL     1      34.576 -21.727 -18.921  0.00  0.00    +0.133 C 
ATOM     29  C   UNL     1      33.855 -22.794 -18.488  0.00  0.00    +0.193 C 
ATOM     30  C   UNL     1      35.967 -21.908 -17.124  0.00  0.00    +0.248 C 
ATOM     31  C   UNL     1      35.244 -23.007 -16.654  0.00  0.00    +0.131 C 
ATOM     32  C   UNL     1      37.045 -21.519 -16.354  0.00  0.00    +0.231 C 
ATOM     33  C   UNL     1      36.663 -23.159 -14.858  0.00  0.00    +0.207 C 
ATOM     34  H   UNL     1      38.585 -20.103 -16.269  0.00  0.00    +0.145 HD
ATOM     35  H   UNL     1      37.564 -19.938 -17.625  0.00  0.00    +0.145 HD
ATOM     36  H   UNL     1      36.485 -24.601 -13.362  0.00  0.00    +0.156 HD
ATOM     37  H   UNL     1      37.790 -23.526 -13.142  0.00  0.00    +0.156 HD
ENDBRANCH  21  28
ENDBRANCH   1  21
TORSDOF 6
ENDMDL
