MODEL 1
REMARK VINA RESULT:     -12.8      0.000      0.000
REMARK  Name = 71245288
REMARK  5 active torsions:
REMARK  status: ('A' for Active; 'I' for Inactive)
REMARK    1  A    between atoms: C_3  and  C_9
REMARK    2  A    between atoms: C_6  and  N_14
REMARK    3  A    between atoms: C_15  and  C_18
REMARK    4  A    between atoms: C_22  and  C_30
REMARK    5  A    between atoms: N_27  and  C_32
REMARK                            x       y       z     vdW  Elec       q    Type
REMARK                         _______ _______ _______ _____ _____    ______ ____
ROOT
ATOM      1  O   UNL     1      32.613 -21.829 -19.232  0.00  0.00    -0.270 OA
ATOM      2  N   UNL     1      34.252 -22.170 -17.586  0.00  0.00    -0.259 N 
ATOM      3  C   UNL     1      33.771 -21.683 -18.811  0.00  0.00    +0.253 C 
ATOM      4  H   UNL     1      35.196 -21.975 -17.389  0.00  0.00    +0.157 HD
ATOM      5  N   UNL     1      34.221 -23.278 -15.482  0.00  0.00    -0.388 NA
ATOM      6  C   UNL     1      33.516 -23.980 -14.567  0.00  0.00    +0.166 C 
ATOM      7  C   UNL     1      33.556 -22.907 -16.597  0.00  0.00    +0.167 C 
ATOM      8  C   UNL     1      32.182 -24.324 -14.714  0.00  0.00    +0.031 C 
ATOM      9  C   UNL     1      32.223 -23.201 -16.840  0.00  0.00    +0.101 C 
ATOM     10  C   UNL     1      31.530 -23.924 -15.875  0.00  0.00    -0.015 C 
ENDROOT
BRANCH   3  15
ATOM     11  F   UNL     1      36.514 -21.619 -18.209  0.00  0.00    -0.204 F 
ATOM     12  C   UNL     1      35.195 -19.487 -21.492  0.00  0.00    +0.046 C 
ATOM     13  C   UNL     1      36.548 -19.486 -21.153  0.00  0.00    -0.006 C 
ATOM     14  C   UNL     1      34.283 -20.209 -20.721  0.00  0.00    +0.021 C 
ATOM     15  C   UNL     1      34.725 -20.931 -19.612  0.00  0.00    +0.082 C 
ATOM     16  C   UNL     1      36.989 -20.207 -20.043  0.00  0.00    +0.027 C 
ATOM     17  C   UNL     1      37.551 -18.722 -21.956  0.00  0.00    +0.032 C 
ATOM     18  C   UNL     1      36.078 -20.929 -19.273  0.00  0.00    +0.144 C 
BRANCH  12  20
ATOM     19  N   UNL     1      33.676 -18.345 -24.493  0.00  0.00    -0.255 NA
ATOM     20  N   UNL     1      34.736 -18.778 -22.589  0.00  0.00    -0.282 N 
ATOM     21  C   UNL     1      34.324 -17.221 -24.047  0.00  0.00    +0.053 C 
ATOM     22  C   UNL     1      34.988 -17.464 -22.868  0.00  0.00    +0.134 C 
ATOM     23  C   UNL     1      33.944 -19.265 -23.592  0.00  0.00    +0.219 C 
BRANCH  21  24
ATOM     24  C   UNL     1      34.304 -15.879 -24.772  0.00  0.00    +0.037 C 
ATOM     25  C   UNL     1      33.377 -14.807 -24.279  0.00  0.00    +0.006 C 
ATOM     26  C   UNL     1      33.090 -15.511 -25.573  0.00  0.00    +0.006 C 
ENDBRANCH  21  24
ENDBRANCH  12  20
ENDBRANCH   3  15
BRANCH   6  30
ATOM     27  N   UNL     1      35.514 -24.888 -13.426  0.00  0.00    -0.252 N 
ATOM     28  N   UNL     1      33.858 -24.245 -12.149  0.00  0.00    -0.129 NA
ATOM     29  N   UNL     1      34.873 -24.718 -11.341  0.00  0.00    -0.128 NA
ATOM     30  C   UNL     1      34.261 -24.356 -13.394  0.00  0.00    +0.188 C 
ATOM     31  C   UNL     1      35.857 -25.098 -12.124  0.00  0.00    +0.192 C 
BRANCH  27  32
ATOM     32  C   UNL     1      36.330 -25.177 -14.580  0.00  0.00    +0.080 C 
ATOM     33  C   UNL     1      37.610 -24.337 -14.589  0.00  0.00    +0.022 C 
ATOM     34  C   UNL     1      36.658 -26.669 -14.679  0.00  0.00    +0.022 C 
ENDBRANCH  27  32
ENDBRANCH   6  30
TORSDOF 5
ENDMDL
MODEL 2
REMARK VINA RESULT:     -12.3      3.205     11.030
REMARK  Name = 71245288
REMARK  5 active torsions:
REMARK  status: ('A' for Active; 'I' for Inactive)
REMARK    1  A    between atoms: C_3  and  C_9
REMARK    2  A    between atoms: C_6  and  N_14
REMARK    3  A    between atoms: C_15  and  C_18
REMARK    4  A    between atoms: C_22  and  C_30
REMARK    5  A    between atoms: N_27  and  C_32
REMARK                            x       y       z     vdW  Elec       q    Type
REMARK                         _______ _______ _______ _____ _____    ______ ____
ROOT
ATOM      1  O   UNL     1      34.303 -18.966 -24.002  0.00  0.00    -0.270 OA
ATOM      2  N   UNL     1      34.569 -16.958 -22.818  0.00  0.00    -0.259 N 
ATOM      3  C   UNL     1      34.651 -18.348 -22.984  0.00  0.00    +0.253 C 
ATOM      4  H   UNL     1      34.884 -16.611 -21.952  0.00  0.00    +0.157 HD
ATOM      5  N   UNL     1      34.104 -14.689 -23.360  0.00  0.00    -0.388 NA
ATOM      6  C   UNL     1      33.639 -13.800 -24.266  0.00  0.00    +0.166 C 
ATOM      7  C   UNL     1      34.092 -15.988 -23.732  0.00  0.00    +0.167 C 
ATOM      8  C   UNL     1      33.166 -14.148 -25.521  0.00  0.00    +0.031 C 
ATOM      9  C   UNL     1      33.640 -16.438 -24.963  0.00  0.00    +0.101 C 
ATOM     10  C   UNL     1      33.169 -15.493 -25.869  0.00  0.00    -0.015 C 
ENDROOT
BRANCH   3  15
ATOM     11  F   UNL     1      37.398 -18.316 -22.400  0.00  0.00    -0.204 F 
ATOM     12  C   UNL     1      34.921 -20.557 -19.971  0.00  0.00    +0.046 C 
ATOM     13  C   UNL     1      36.293 -20.510 -19.721  0.00  0.00    -0.006 C 
ATOM     14  C   UNL     1      34.383 -19.847 -21.044  0.00  0.00    +0.021 C 
ATOM     15  C   UNL     1      35.216 -19.088 -21.866  0.00  0.00    +0.082 C 
ATOM     16  C   UNL     1      37.126 -19.753 -20.544  0.00  0.00    +0.027 C 
ATOM     17  C   UNL     1      36.903 -21.261 -18.581  0.00  0.00    +0.032 C 
ATOM     18  C   UNL     1      36.587 -19.042 -21.616  0.00  0.00    +0.144 C 
BRANCH  12  20
ATOM     19  N   UNL     1      32.192 -22.099 -18.300  0.00  0.00    -0.255 NA
ATOM     20  N   UNL     1      34.077 -21.304 -19.167  0.00  0.00    -0.282 N 
ATOM     21  C   UNL     1      33.275 -22.684 -17.692  0.00  0.00    +0.053 C 
ATOM     22  C   UNL     1      34.455 -22.207 -18.213  0.00  0.00    +0.134 C 
ATOM     23  C   UNL     1      32.710 -21.274 -19.182  0.00  0.00    +0.219 C 
BRANCH  21  24
ATOM     24  C   UNL     1      33.173 -23.727 -16.584  0.00  0.00    +0.037 C 
ATOM     25  C   UNL     1      32.289 -23.441 -15.405  0.00  0.00    +0.006 C 
ATOM     26  C   UNL     1      33.782 -23.421 -15.248  0.00  0.00    +0.006 C 
ENDBRANCH  21  24
ENDBRANCH  12  20
ENDBRANCH   3  15
BRANCH   6  30
ATOM     27  N   UNL     1      32.979 -11.955 -22.756  0.00  0.00    -0.252 N 
ATOM     28  N   UNL     1      34.348 -11.451 -24.388  0.00  0.00    -0.129 NA
ATOM     29  N   UNL     1      34.097 -10.305 -23.660  0.00  0.00    -0.128 NA
ATOM     30  C   UNL     1      33.669 -12.428 -23.831  0.00  0.00    +0.188 C 
ATOM     31  C   UNL     1      33.276 -10.627 -22.686  0.00  0.00    +0.192 C 
BRANCH  27  32
ATOM     32  C   UNL     1      32.113 -12.684 -21.862  0.00  0.00    +0.080 C 
ATOM     33  C   UNL     1      32.912 -13.476 -20.825  0.00  0.00    +0.022 C 
ATOM     34  C   UNL     1      31.102 -11.759 -21.180  0.00  0.00    +0.022 C 
ENDBRANCH  27  32
ENDBRANCH   6  30
TORSDOF 5
ENDMDL
MODEL 3
REMARK VINA RESULT:     -11.9      1.655     10.755
REMARK  Name = 71245288
REMARK  5 active torsions:
REMARK  status: ('A' for Active; 'I' for Inactive)
REMARK    1  A    between atoms: C_3  and  C_9
REMARK    2  A    between atoms: C_6  and  N_14
REMARK    3  A    between atoms: C_15  and  C_18
REMARK    4  A    between atoms: C_22  and  C_30
REMARK    5  A    between atoms: N_27  and  C_32
REMARK                            x       y       z     vdW  Elec       q    Type
REMARK                         _______ _______ _______ _____ _____    ______ ____
ROOT
ATOM      1  O   UNL     1      36.648 -21.443 -18.319  0.00  0.00    -0.270 OA
ATOM      2  N   UNL     1      34.825 -20.748 -19.624  0.00  0.00    -0.259 N 
ATOM      3  C   UNL     1      35.431 -21.434 -18.561  0.00  0.00    +0.253 C 
ATOM      4  H   UNL     1      33.847 -20.836 -19.687  0.00  0.00    +0.157 HD
ATOM      5  N   UNL     1      34.654 -19.375 -21.558  0.00  0.00    -0.388 NA
ATOM      6  C   UNL     1      35.282 -18.620 -22.487  0.00  0.00    +0.166 C 
ATOM      7  C   UNL     1      35.437 -19.947 -20.618  0.00  0.00    +0.167 C 
ATOM      8  C   UNL     1      36.652 -18.411 -22.518  0.00  0.00    +0.031 C 
ATOM      9  C   UNL     1      36.814 -19.800 -20.562  0.00  0.00    +0.101 C 
ATOM     10  C   UNL     1      37.426 -19.016 -21.534  0.00  0.00    -0.015 C 
ENDROOT
BRANCH   3  15
ATOM     11  F   UNL     1      32.700 -21.749 -19.136  0.00  0.00    -0.204 F 
ATOM     12  C   UNL     1      34.157 -23.422 -15.652  0.00  0.00    +0.046 C 
ATOM     13  C   UNL     1      32.807 -23.551 -15.981  0.00  0.00    -0.006 C 
ATOM     14  C   UNL     1      35.018 -22.725 -16.500  0.00  0.00    +0.021 C 
ATOM     15  C   UNL     1      34.530 -22.159 -17.678  0.00  0.00    +0.082 C 
ATOM     16  C   UNL     1      32.320 -22.985 -17.158  0.00  0.00    +0.027 C 
ATOM     17  C   UNL     1      31.857 -24.290 -15.094  0.00  0.00    +0.032 C 
ATOM     18  C   UNL     1      33.181 -22.289 -18.007  0.00  0.00    +0.144 C 
BRANCH  12  20
ATOM     19  N   UNL     1      34.814 -24.529 -12.342  0.00  0.00    -0.255 NA
ATOM     20  N   UNL     1      34.662 -23.976 -14.488  0.00  0.00    -0.282 N 
ATOM     21  C   UNL     1      35.887 -25.029 -13.035  0.00  0.00    +0.053 C 
ATOM     22  C   UNL     1      35.815 -24.699 -14.368  0.00  0.00    +0.134 C 
ATOM     23  C   UNL     1      34.095 -23.901 -13.245  0.00  0.00    +0.219 C 
BRANCH  21  24
ATOM     24  C   UNL     1      37.010 -25.844 -12.401  0.00  0.00    +0.037 C 
ATOM     25  C   UNL     1      38.122 -25.117 -11.703  0.00  0.00    +0.006 C 
ATOM     26  C   UNL     1      38.376 -25.791 -13.020  0.00  0.00    +0.006 C 
ENDBRANCH  21  24
ENDBRANCH  12  20
ENDBRANCH   3  15
BRANCH   6  30
ATOM     27  N   UNL     1      34.234 -16.687 -23.619  0.00  0.00    -0.252 N 
ATOM     28  N   UNL     1      33.680 -18.674 -24.347  0.00  0.00    -0.129 NA
ATOM     29  N   UNL     1      33.002 -17.731 -25.094  0.00  0.00    -0.128 NA
ATOM     30  C   UNL     1      34.413 -18.028 -23.469  0.00  0.00    +0.188 C 
ATOM     31  C   UNL     1      33.347 -16.547 -24.644  0.00  0.00    +0.192 C 
BRANCH  27  32
ATOM     32  C   UNL     1      34.845 -15.617 -22.868  0.00  0.00    +0.080 C 
ATOM     33  C   UNL     1      34.422 -14.244 -23.397  0.00  0.00    +0.022 C 
ATOM     34  C   UNL     1      34.549 -15.739 -21.372  0.00  0.00    +0.022 C 
ENDBRANCH  27  32
ENDBRANCH   6  30
TORSDOF 5
ENDMDL
MODEL 4
REMARK VINA RESULT:     -11.2      5.791      9.979
REMARK  Name = 71245288
REMARK  5 active torsions:
REMARK  status: ('A' for Active; 'I' for Inactive)
REMARK    1  A    between atoms: C_3  and  C_9
REMARK    2  A    between atoms: C_6  and  N_14
REMARK    3  A    between atoms: C_15  and  C_18
REMARK    4  A    between atoms: C_22  and  C_30
REMARK    5  A    between atoms: N_27  and  C_32
REMARK                            x       y       z     vdW  Elec       q    Type
REMARK                         _______ _______ _______ _____ _____    ______ ____
ROOT
ATOM      1  O   UNL     1      32.810 -13.546 -24.047  0.00  0.00    -0.270 OA
ATOM      2  N   UNL     1      33.777 -14.528 -22.148  0.00  0.00    -0.259 N 
ATOM      3  C   UNL     1      33.086 -13.521 -22.838  0.00  0.00    +0.253 C 
ATOM      4  H   UNL     1      33.922 -14.366 -21.188  0.00  0.00    +0.157 HD
ATOM      5  N   UNL     1      34.934 -16.577 -21.801  0.00  0.00    -0.388 NA
ATOM      6  C   UNL     1      35.411 -17.727 -22.328  0.00  0.00    +0.166 C 
ATOM      7  C   UNL     1      34.295 -15.745 -22.653  0.00  0.00    +0.167 C 
ATOM      8  C   UNL     1      35.278 -18.082 -23.661  0.00  0.00    +0.031 C 
ATOM      9  C   UNL     1      34.110 -16.008 -24.001  0.00  0.00    +0.101 C 
ATOM     10  C   UNL     1      34.615 -17.201 -24.507  0.00  0.00    -0.015 C 
ENDROOT
BRANCH   3  15
ATOM     11  F   UNL     1      32.243 -13.803 -20.174  0.00  0.00    -0.204 F 
ATOM     12  C   UNL     1      32.228 -10.018 -21.826  0.00  0.00    +0.046 C 
ATOM     13  C   UNL     1      31.818 -10.208 -20.506  0.00  0.00    -0.006 C 
ATOM     14  C   UNL     1      32.644 -11.107 -22.592  0.00  0.00    +0.021 C 
ATOM     15  C   UNL     1      32.651 -12.387 -22.037  0.00  0.00    +0.082 C 
ATOM     16  C   UNL     1      31.824 -11.488 -19.952  0.00  0.00    +0.027 C 
ATOM     17  C   UNL     1      31.365  -9.063 -19.659  0.00  0.00    +0.032 C 
ATOM     18  C   UNL     1      32.241 -12.577 -20.718  0.00  0.00    +0.144 C 
BRANCH  12  20
ATOM     19  N   UNL     1      31.454  -6.861 -23.259  0.00  0.00    -0.255 NA
ATOM     20  N   UNL     1      32.229  -8.756 -22.395  0.00  0.00    -0.282 N 
ATOM     21  C   UNL     1      32.826  -6.848 -23.247  0.00  0.00    +0.053 C 
ATOM     22  C   UNL     1      33.330  -8.012 -22.716  0.00  0.00    +0.134 C 
ATOM     23  C   UNL     1      31.126  -8.023 -22.739  0.00  0.00    +0.219 C 
BRANCH  21  24
ATOM     24  C   UNL     1      33.674  -5.687 -23.759  0.00  0.00    +0.037 C 
ATOM     25  C   UNL     1      33.618  -5.343 -25.218  0.00  0.00    +0.006 C 
ATOM     26  C   UNL     1      34.846  -5.988 -24.645  0.00  0.00    +0.006 C 
ENDBRANCH  21  24
ENDBRANCH  12  20
ENDBRANCH   3  15
BRANCH   6  30
ATOM     27  N   UNL     1      35.452 -19.506 -20.609  0.00  0.00    -0.252 N 
ATOM     28  N   UNL     1      37.375 -18.611 -21.147  0.00  0.00    -0.129 NA
ATOM     29  N   UNL     1      37.596 -19.574 -20.183  0.00  0.00    -0.128 NA
ATOM     30  C   UNL     1      36.084 -18.585 -21.388  0.00  0.00    +0.188 C 
ATOM     31  C   UNL     1      36.433 -20.099 -19.874  0.00  0.00    +0.192 C 
BRANCH  27  32
ATOM     32  C   UNL     1      34.042 -19.811 -20.556  0.00  0.00    +0.080 C 
ATOM     33  C   UNL     1      33.459 -20.025 -21.954  0.00  0.00    +0.022 C 
ATOM     34  C   UNL     1      33.761 -21.017 -19.657  0.00  0.00    +0.022 C 
ENDBRANCH  27  32
ENDBRANCH   6  30
TORSDOF 5
ENDMDL
MODEL 5
REMARK VINA RESULT:     -11.0      2.017     10.663
REMARK  Name = 71245288
REMARK  5 active torsions:
REMARK  status: ('A' for Active; 'I' for Inactive)
REMARK    1  A    between atoms: C_3  and  C_9
REMARK    2  A    between atoms: C_6  and  N_14
REMARK    3  A    between atoms: C_15  and  C_18
REMARK    4  A    between atoms: C_22  and  C_30
REMARK    5  A    between atoms: N_27  and  C_32
REMARK                            x       y       z     vdW  Elec       q    Type
REMARK                         _______ _______ _______ _____ _____    ______ ____
ROOT
ATOM      1  O   UNL     1      36.513 -21.956 -19.588  0.00  0.00    -0.270 OA
ATOM      2  N   UNL     1      34.995 -20.165 -19.601  0.00  0.00    -0.259 N 
ATOM      3  C   UNL     1      35.479 -21.410 -19.171  0.00  0.00    +0.253 C 
ATOM      4  H   UNL     1      34.160 -19.862 -19.178  0.00  0.00    +0.157 HD
ATOM      5  N   UNL     1      34.910 -18.129 -20.828  0.00  0.00    -0.388 NA
ATOM      6  C   UNL     1      35.477 -17.326 -21.756  0.00  0.00    +0.166 C 
ATOM      7  C   UNL     1      35.550 -19.290 -20.566  0.00  0.00    +0.167 C 
ATOM      8  C   UNL     1      36.650 -17.628 -22.430  0.00  0.00    +0.031 C 
ATOM      9  C   UNL     1      36.726 -19.684 -21.184  0.00  0.00    +0.101 C 
ATOM     10  C   UNL     1      37.280 -18.831 -22.133  0.00  0.00    -0.015 C 
ENDROOT
BRANCH   3  15
ATOM     11  F   UNL     1      32.673 -21.502 -19.240  0.00  0.00    -0.204 F 
ATOM     12  C   UNL     1      34.599 -23.322 -16.072  0.00  0.00    +0.046 C 
ATOM     13  C   UNL     1      33.206 -23.341 -16.151  0.00  0.00    -0.006 C 
ATOM     14  C   UNL     1      35.345 -22.686 -17.065  0.00  0.00    +0.021 C 
ATOM     15  C   UNL     1      34.698 -22.071 -18.137  0.00  0.00    +0.082 C 
ATOM     16  C   UNL     1      32.560 -22.725 -17.222  0.00  0.00    +0.027 C 
ATOM     17  C   UNL     1      32.377 -24.012 -15.103  0.00  0.00    +0.032 C 
ATOM     18  C   UNL     1      33.306 -22.090 -18.215  0.00  0.00    +0.144 C 
BRANCH  12  20
ATOM     19  N   UNL     1      36.096 -25.534 -13.731  0.00  0.00    -0.255 NA
ATOM     20  N   UNL     1      35.261 -23.926 -15.017  0.00  0.00    -0.282 N 
ATOM     21  C   UNL     1      36.383 -24.303 -13.195  0.00  0.00    +0.053 C 
ATOM     22  C   UNL     1      35.875 -23.291 -13.974  0.00  0.00    +0.134 C 
ATOM     23  C   UNL     1      35.420 -25.272 -14.827  0.00  0.00    +0.219 C 
BRANCH  21  24
ATOM     24  C   UNL     1      37.164 -24.096 -11.901  0.00  0.00    +0.037 C 
ATOM     25  C   UNL     1      36.403 -23.960 -10.614  0.00  0.00    +0.006 C 
ATOM     26  C   UNL     1      37.082 -22.764 -11.216  0.00  0.00    +0.006 C 
ENDBRANCH  21  24
ENDBRANCH  12  20
ENDBRANCH   3  15
BRANCH   6  30
ATOM     27  N   UNL     1      34.321 -15.715 -23.234  0.00  0.00    -0.252 N 
ATOM     28  N   UNL     1      34.442 -15.194 -21.112  0.00  0.00    -0.129 NA
ATOM     29  N   UNL     1      33.769 -14.185 -21.771  0.00  0.00    -0.128 NA
ATOM     30  C   UNL     1      34.765 -16.101 -22.006  0.00  0.00    +0.188 C 
ATOM     31  C   UNL     1      33.705 -14.515 -23.041  0.00  0.00    +0.192 C 
BRANCH  27  32
ATOM     32  C   UNL     1      34.457 -16.411 -24.490  0.00  0.00    +0.080 C 
ATOM     33  C   UNL     1      33.819 -17.802 -24.436  0.00  0.00    +0.022 C 
ATOM     34  C   UNL     1      33.886 -15.595 -25.651  0.00  0.00    +0.022 C 
ENDBRANCH  27  32
ENDBRANCH   6  30
TORSDOF 5
ENDMDL
MODEL 6
REMARK VINA RESULT:     -10.9      1.053      1.733
REMARK  Name = 71245288
REMARK  5 active torsions:
REMARK  status: ('A' for Active; 'I' for Inactive)
REMARK    1  A    between atoms: C_3  and  C_9
REMARK    2  A    between atoms: C_6  and  N_14
REMARK    3  A    between atoms: C_15  and  C_18
REMARK    4  A    between atoms: C_22  and  C_30
REMARK    5  A    between atoms: N_27  and  C_32
REMARK                            x       y       z     vdW  Elec       q    Type
REMARK                         _______ _______ _______ _____ _____    ______ ____
ROOT
ATOM      1  O   UNL     1      33.056 -21.433 -18.680  0.00  0.00    -0.270 OA
ATOM      2  N   UNL     1      34.985 -22.352 -17.708  0.00  0.00    -0.259 N 
ATOM      3  C   UNL     1      34.290 -21.544 -18.621  0.00  0.00    +0.253 C 
ATOM      4  H   UNL     1      35.966 -22.337 -17.784  0.00  0.00    +0.157 HD
ATOM      5  N   UNL     1      35.319 -23.883 -15.918  0.00  0.00    -0.388 NA
ATOM      6  C   UNL     1      34.770 -24.665 -14.962  0.00  0.00    +0.166 C 
ATOM      7  C   UNL     1      34.458 -23.186 -16.692  0.00  0.00    +0.167 C 
ATOM      8  C   UNL     1      33.407 -24.781 -14.744  0.00  0.00    +0.031 C 
ATOM      9  C   UNL     1      33.080 -23.232 -16.554  0.00  0.00    +0.101 C 
ATOM     10  C   UNL     1      32.552 -24.048 -15.559  0.00  0.00    -0.015 C 
ENDROOT
BRANCH   3  15
ATOM     11  F   UNL     1      37.047 -21.186 -18.222  0.00  0.00    -0.204 F 
ATOM     12  C   UNL     1      35.322 -19.441 -21.544  0.00  0.00    +0.046 C 
ATOM     13  C   UNL     1      36.688 -19.291 -21.303  0.00  0.00    -0.006 C 
ATOM     14  C   UNL     1      34.535 -20.181 -20.662  0.00  0.00    +0.021 C 
ATOM     15  C   UNL     1      35.114 -20.773 -19.539  0.00  0.00    +0.082 C 
ATOM     16  C   UNL     1      37.266 -19.881 -20.180  0.00  0.00    +0.027 C 
ATOM     17  C   UNL     1      37.560 -18.503 -22.228  0.00  0.00    +0.032 C 
ATOM     18  C   UNL     1      36.479 -20.622 -19.298  0.00  0.00    +0.144 C 
BRANCH  12  20
ATOM     19  N   UNL     1      33.431 -18.644 -24.443  0.00  0.00    -0.255 NA
ATOM     20  N   UNL     1      34.728 -18.862 -22.653  0.00  0.00    -0.282 N 
ATOM     21  C   UNL     1      34.138 -17.488 -24.229  0.00  0.00    +0.053 C 
ATOM     22  C   UNL     1      34.949 -17.598 -23.125  0.00  0.00    +0.134 C 
ATOM     23  C   UNL     1      33.808 -19.451 -23.477  0.00  0.00    +0.219 C 
BRANCH  21  24
ATOM     24  C   UNL     1      34.032 -16.245 -25.108  0.00  0.00    +0.037 C 
ATOM     25  C   UNL     1      33.399 -15.010 -24.536  0.00  0.00    +0.006 C 
ATOM     26  C   UNL     1      32.675 -15.811 -25.580  0.00  0.00    +0.006 C 
ENDBRANCH  21  24
ENDBRANCH  12  20
ENDBRANCH   3  15
BRANCH   6  30
ATOM     27  N   UNL     1      36.196 -24.954 -12.962  0.00  0.00    -0.252 N 
ATOM     28  N   UNL     1      36.258 -26.552 -14.455  0.00  0.00    -0.129 NA
ATOM     29  N   UNL     1      37.110 -26.887 -13.422  0.00  0.00    -0.128 NA
ATOM     30  C   UNL     1      35.721 -25.390 -14.161  0.00  0.00    +0.188 C 
ATOM     31  C   UNL     1      37.059 -25.919 -12.537  0.00  0.00    +0.192 C 
BRANCH  27  32
ATOM     32  C   UNL     1      35.870 -23.734 -12.265  0.00  0.00    +0.080 C 
ATOM     33  C   UNL     1      34.896 -23.987 -11.112  0.00  0.00    +0.022 C 
ATOM     34  C   UNL     1      37.127 -23.016 -11.768  0.00  0.00    +0.022 C 
ENDBRANCH  27  32
ENDBRANCH   6  30
TORSDOF 5
ENDMDL
MODEL 7
REMARK VINA RESULT:     -10.5      7.140     13.939
REMARK  Name = 71245288
REMARK  5 active torsions:
REMARK  status: ('A' for Active; 'I' for Inactive)
REMARK    1  A    between atoms: C_3  and  C_9
REMARK    2  A    between atoms: C_6  and  N_14
REMARK    3  A    between atoms: C_15  and  C_18
REMARK    4  A    between atoms: C_22  and  C_30
REMARK    5  A    between atoms: N_27  and  C_32
REMARK                            x       y       z     vdW  Elec       q    Type
REMARK                         _______ _______ _______ _____ _____    ______ ____
ROOT
ATOM      1  O   UNL     1      35.085 -11.133 -25.744  0.00  0.00    -0.270 OA
ATOM      2  N   UNL     1      33.775 -10.886 -23.813  0.00  0.00    -0.259 N 
ATOM      3  C   UNL     1      34.319 -11.603 -24.889  0.00  0.00    +0.253 C 
ATOM      4  H   UNL     1      33.181 -11.396 -23.216  0.00  0.00    +0.157 HD
ATOM      5  N   UNL     1      33.338  -9.036 -22.383  0.00  0.00    -0.388 NA
ATOM      6  C   UNL     1      33.551  -7.731 -22.100  0.00  0.00    +0.166 C 
ATOM      7  C   UNL     1      33.966  -9.524 -23.475  0.00  0.00    +0.167 C 
ATOM      8  C   UNL     1      34.361  -6.897 -22.854  0.00  0.00    +0.031 C 
ATOM      9  C   UNL     1      34.796  -8.774 -24.293  0.00  0.00    +0.101 C 
ATOM     10  C   UNL     1      34.991  -7.435 -23.970  0.00  0.00    -0.015 C 
ENDROOT
BRANCH   3  15
ATOM     11  F   UNL     1      32.687 -12.627 -26.932  0.00  0.00    -0.204 F 
ATOM     12  C   UNL     1      34.079 -15.249 -24.060  0.00  0.00    +0.046 C 
ATOM     13  C   UNL     1      33.265 -15.710 -25.095  0.00  0.00    -0.006 C 
ATOM     14  C   UNL     1      34.424 -13.899 -23.993  0.00  0.00    +0.021 C 
ATOM     15  C   UNL     1      33.956 -13.010 -24.961  0.00  0.00    +0.082 C 
ATOM     16  C   UNL     1      32.796 -14.821 -26.062  0.00  0.00    +0.027 C 
ATOM     17  C   UNL     1      32.874 -17.150 -25.196  0.00  0.00    +0.032 C 
ATOM     18  C   UNL     1      33.143 -13.471 -25.995  0.00  0.00    +0.144 C 
BRANCH  12  20
ATOM     19  N   UNL     1      35.126 -16.880 -21.084  0.00  0.00    -0.255 NA
ATOM     20  N   UNL     1      34.554 -16.114 -23.089  0.00  0.00    -0.282 N 
ATOM     21  C   UNL     1      35.377 -17.830 -22.042  0.00  0.00    +0.053 C 
ATOM     22  C   UNL     1      35.030 -17.378 -23.293  0.00  0.00    +0.134 C 
ATOM     23  C   UNL     1      34.631 -15.859 -21.747  0.00  0.00    +0.219 C 
BRANCH  21  24
ATOM     24  C   UNL     1      35.964 -19.207 -21.747  0.00  0.00    +0.037 C 
ATOM     25  C   UNL     1      35.414 -19.993 -20.592  0.00  0.00    +0.006 C 
ATOM     26  C   UNL     1      36.785 -19.388 -20.504  0.00  0.00    +0.006 C 
ENDBRANCH  21  24
ENDBRANCH  12  20
ENDBRANCH   3  15
BRANCH   6  30
ATOM     27  N   UNL     1      31.809  -6.390 -20.967  0.00  0.00    -0.252 N 
ATOM     28  N   UNL     1      33.139  -7.561 -19.685  0.00  0.00    -0.129 NA
ATOM     29  N   UNL     1      32.243  -6.885 -18.881  0.00  0.00    -0.128 NA
ATOM     30  C   UNL     1      32.863  -7.250 -20.931  0.00  0.00    +0.188 C 
ATOM     31  C   UNL     1      31.454  -6.190 -19.667  0.00  0.00    +0.192 C 
BRANCH  27  32
ATOM     32  C   UNL     1      31.179  -5.800 -22.124  0.00  0.00    +0.080 C 
ATOM     33  C   UNL     1      30.459  -6.853 -22.971  0.00  0.00    +0.022 C 
ATOM     34  C   UNL     1      30.224  -4.671 -21.731  0.00  0.00    +0.022 C 
ENDBRANCH  27  32
ENDBRANCH   6  30
TORSDOF 5
ENDMDL
MODEL 8
REMARK VINA RESULT:     -10.4      3.297     11.197
REMARK  Name = 71245288
REMARK  5 active torsions:
REMARK  status: ('A' for Active; 'I' for Inactive)
REMARK    1  A    between atoms: C_3  and  C_9
REMARK    2  A    between atoms: C_6  and  N_14
REMARK    3  A    between atoms: C_15  and  C_18
REMARK    4  A    between atoms: C_22  and  C_30
REMARK    5  A    between atoms: N_27  and  C_32
REMARK                            x       y       z     vdW  Elec       q    Type
REMARK                         _______ _______ _______ _____ _____    ______ ____
ROOT
ATOM      1  O   UNL     1      34.963 -18.687 -23.925  0.00  0.00    -0.270 OA
ATOM      2  N   UNL     1      34.560 -16.921 -22.433  0.00  0.00    -0.259 N 
ATOM      3  C   UNL     1      34.966 -18.219 -22.776  0.00  0.00    +0.253 C 
ATOM      4  H   UNL     1      34.618 -16.694 -21.477  0.00  0.00    +0.157 HD
ATOM      5  N   UNL     1      33.738 -14.709 -22.732  0.00  0.00    -0.388 NA
ATOM      6  C   UNL     1      33.281 -13.762 -23.581  0.00  0.00    +0.166 C 
ATOM      7  C   UNL     1      34.075 -15.896 -23.281  0.00  0.00    +0.167 C 
ATOM      8  C   UNL     1      33.147 -13.946 -24.948  0.00  0.00    +0.031 C 
ATOM      9  C   UNL     1      33.978 -16.180 -24.634  0.00  0.00    +0.101 C 
ATOM     10  C   UNL     1      33.504 -15.181 -25.477  0.00  0.00    -0.015 C 
ENDROOT
BRANCH   3  15
ATOM     11  F   UNL     1      37.689 -18.398 -22.115  0.00  0.00    -0.204 F 
ATOM     12  C   UNL     1      34.997 -20.574 -19.862  0.00  0.00    +0.046 C 
ATOM     13  C   UNL     1      36.360 -20.630 -19.572  0.00  0.00    -0.006 C 
ATOM     14  C   UNL     1      34.539 -19.782 -20.916  0.00  0.00    +0.021 C 
ATOM     15  C   UNL     1      35.446 -19.045 -21.679  0.00  0.00    +0.082 C 
ATOM     16  C   UNL     1      37.266 -19.894 -20.335  0.00  0.00    +0.027 C 
ATOM     17  C   UNL     1      36.884 -21.470 -18.452  0.00  0.00    +0.032 C 
ATOM     18  C   UNL     1      36.808 -19.101 -21.388  0.00  0.00    +0.144 C 
BRANCH  12  20
ATOM     19  N   UNL     1      32.121 -22.032 -18.372  0.00  0.00    -0.255 NA
ATOM     20  N   UNL     1      34.080 -21.297 -19.118  0.00  0.00    -0.282 N 
ATOM     21  C   UNL     1      33.145 -22.661 -17.709  0.00  0.00    +0.053 C 
ATOM     22  C   UNL     1      34.369 -22.222 -18.154  0.00  0.00    +0.134 C 
ATOM     23  C   UNL     1      32.718 -21.218 -19.213  0.00  0.00    +0.219 C 
BRANCH  21  24
ATOM     24  C   UNL     1      32.940 -23.711 -16.621  0.00  0.00    +0.037 C 
ATOM     25  C   UNL     1      32.030 -23.389 -15.472  0.00  0.00    +0.006 C 
ATOM     26  C   UNL     1      33.515 -23.457 -15.258  0.00  0.00    +0.006 C 
ENDBRANCH  21  24
ENDBRANCH  12  20
ENDBRANCH   3  15
BRANCH   6  30
ATOM     27  N   UNL     1      33.520 -11.321 -23.257  0.00  0.00    -0.252 N 
ATOM     28  N   UNL     1      32.021 -12.336 -22.028  0.00  0.00    -0.129 NA
ATOM     29  N   UNL     1      32.009 -10.993 -21.710  0.00  0.00    -0.128 NA
ATOM     30  C   UNL     1      32.933 -12.513 -22.956  0.00  0.00    +0.188 C 
ATOM     31  C   UNL     1      32.913 -10.401 -22.456  0.00  0.00    +0.192 C 
BRANCH  27  32
ATOM     32  C   UNL     1      34.565 -11.060 -24.217  0.00  0.00    +0.080 C 
ATOM     33  C   UNL     1      34.094 -11.327 -25.649  0.00  0.00    +0.022 C 
ATOM     34  C   UNL     1      35.113  -9.638 -24.080  0.00  0.00    +0.022 C 
ENDBRANCH  27  32
ENDBRANCH   6  30
TORSDOF 5
ENDMDL
MODEL 9
REMARK VINA RESULT:     -10.2      5.960     12.775
REMARK  Name = 71245288
REMARK  5 active torsions:
REMARK  status: ('A' for Active; 'I' for Inactive)
REMARK    1  A    between atoms: C_3  and  C_9
REMARK    2  A    between atoms: C_6  and  N_14
REMARK    3  A    between atoms: C_15  and  C_18
REMARK    4  A    between atoms: C_22  and  C_30
REMARK    5  A    between atoms: N_27  and  C_32
REMARK                            x       y       z     vdW  Elec       q    Type
REMARK                         _______ _______ _______ _____ _____    ______ ____
ROOT
ATOM      1  O   UNL     1      32.991 -14.107 -19.851  0.00  0.00    -0.270 OA
ATOM      2  N   UNL     1      33.030 -12.704 -21.732  0.00  0.00    -0.259 N 
ATOM      3  C   UNL     1      33.240 -13.912 -21.050  0.00  0.00    +0.253 C 
ATOM      4  H   UNL     1      33.277 -12.703 -22.685  0.00  0.00    +0.157 HD
ATOM      5  N   UNL     1      32.394 -10.438 -22.071  0.00  0.00    -0.388 NA
ATOM      6  C   UNL     1      31.894  -9.297 -21.545  0.00  0.00    +0.166 C 
ATOM      7  C   UNL     1      32.511 -11.487 -21.228  0.00  0.00    +0.167 C 
ATOM      8  C   UNL     1      31.506  -9.159 -20.222  0.00  0.00    +0.031 C 
ATOM      9  C   UNL     1      32.152 -11.451 -19.890  0.00  0.00    +0.101 C 
ATOM     10  C   UNL     1      31.641 -10.260 -19.385  0.00  0.00    -0.015 C 
ENDROOT
BRANCH   3  15
ATOM     11  F   UNL     1      33.037 -13.959 -23.851  0.00  0.00    -0.204 F 
ATOM     12  C   UNL     1      34.905 -17.135 -21.986  0.00  0.00    +0.046 C 
ATOM     13  C   UNL     1      34.780 -17.113 -23.375  0.00  0.00    -0.006 C 
ATOM     14  C   UNL     1      34.398 -16.083 -21.223  0.00  0.00    +0.021 C 
ATOM     15  C   UNL     1      33.767 -15.008 -21.849  0.00  0.00    +0.082 C 
ATOM     16  C   UNL     1      34.148 -16.039 -24.001  0.00  0.00    +0.027 C 
ATOM     17  C   UNL     1      35.311 -18.225 -24.222  0.00  0.00    +0.032 C 
ATOM     18  C   UNL     1      33.642 -14.987 -23.238  0.00  0.00    +0.144 C 
BRANCH  12  20
ATOM     19  N   UNL     1      37.132 -19.381 -20.369  0.00  0.00    -0.255 NA
ATOM     20  N   UNL     1      35.529 -18.192 -21.344  0.00  0.00    -0.282 N 
ATOM     21  C   UNL     1      35.958 -20.092 -20.383  0.00  0.00    +0.053 C 
ATOM     22  C   UNL     1      34.950 -19.376 -20.983  0.00  0.00    +0.134 C 
ATOM     23  C   UNL     1      36.839 -18.242 -20.955  0.00  0.00    +0.219 C 
BRANCH  21  24
ATOM     24  C   UNL     1      35.802 -21.496 -19.805  0.00  0.00    +0.037 C 
ATOM     25  C   UNL     1      34.644 -21.774 -18.893  0.00  0.00    +0.006 C 
ATOM     26  C   UNL     1      36.036 -21.701 -18.338  0.00  0.00    +0.006 C 
ENDBRANCH  21  24
ENDBRANCH  12  20
ENDBRANCH   3  15
BRANCH   6  30
ATOM     27  N   UNL     1      32.850  -7.610 -23.080  0.00  0.00    -0.252 N 
ATOM     28  N   UNL     1      30.672  -7.630 -22.873  0.00  0.00    -0.129 NA
ATOM     29  N   UNL     1      31.017  -6.631 -23.761  0.00  0.00    -0.128 NA
ATOM     30  C   UNL     1      31.785  -8.204 -22.475  0.00  0.00    +0.188 C 
ATOM     31  C   UNL     1      32.325  -6.635 -23.873  0.00  0.00    +0.192 C 
BRANCH  27  32
ATOM     32  C   UNL     1      34.250  -7.927 -22.932  0.00  0.00    +0.080 C 
ATOM     33  C   UNL     1      34.643  -9.147 -23.769  0.00  0.00    +0.022 C 
ATOM     34  C   UNL     1      35.138  -6.727 -23.268  0.00  0.00    +0.022 C 
ENDBRANCH  27  32
ENDBRANCH   6  30
TORSDOF 5
ENDMDL
