MODEL 1
REMARK VINA RESULT:     -13.2      0.000      0.000
REMARK  Name = 25171648
REMARK  8 active torsions:
REMARK  status: ('A' for Active; 'I' for Inactive)
REMARK    1  A    between atoms: C_1  and  C_12
REMARK    2  A    between atoms: C_2  and  C_23
REMARK    3  A    between atoms: C_9  and  O_13
REMARK    4  A    between atoms: O_13  and  C_14
REMARK    5  A    between atoms: C_14  and  C_16
REMARK    6  A    between atoms: C_23  and  N_25
REMARK    7  A    between atoms: C_27  and  C_31
REMARK    8  A    between atoms: C_34  and  C_38
REMARK                            x       y       z     vdW  Elec       q    Type
REMARK                         _______ _______ _______ _____ _____    ______ ____
ROOT
ATOM      1  C   UNL     1      35.299 -20.535 -19.929  0.00  0.00    +0.062 C 
ATOM      2  C   UNL     1      34.265 -22.280 -18.617  0.00  0.00    +0.000 C 
ATOM      3  C   UNL     1      34.194 -21.335 -19.641  0.00  0.00    +0.007 C 
ATOM      4  C   UNL     1      36.475 -20.680 -19.194  0.00  0.00    +0.010 C 
ATOM      5  C   UNL     1      35.441 -22.425 -17.882  0.00  0.00    -0.003 C 
ATOM      6  C   UNL     1      36.547 -21.625 -18.171  0.00  0.00    +0.000 C 
ENDROOT
BRANCH   1  12
ATOM      7  N   UNL     1      35.817 -18.374 -20.752  0.00  0.00    -0.212 NA
ATOM      8  N   UNL     1      34.573 -19.933 -22.104  0.00  0.00    -0.190 NA
ATOM      9  C   UNL     1      35.088 -17.742 -22.958  0.00  0.00    +0.161 C 
ATOM     10  C   UNL     1      35.729 -17.485 -21.763  0.00  0.00    +0.201 C 
ATOM     11  C   UNL     1      34.523 -18.996 -23.073  0.00  0.00    +0.144 C 
ATOM     12  C   UNL     1      35.226 -19.560 -20.986  0.00  0.00    +0.031 C 
BRANCH   9  13
ATOM     13  O   UNL     1      35.019 -16.813 -23.966  0.00  0.00    -0.476 OA
BRANCH  13  14
ATOM     14  C   UNL     1      33.744 -16.568 -24.529  0.00  0.00    +0.205 C 
BRANCH  14  16
ATOM     15  N   UNL     1      34.169 -12.283 -24.190  0.00  0.00    +0.386 N 
ATOM     16  C   UNL     1      33.381 -15.105 -24.292  0.00  0.00    +0.040 C 
ATOM     17  C   UNL     1      33.611 -14.269 -25.556  0.00  0.00    -0.019 C 
ATOM     18  C   UNL     1      34.188 -14.517 -23.129  0.00  0.00    -0.019 C 
ATOM     19  C   UNL     1      33.344 -12.785 -25.298  0.00  0.00    -0.077 C 
ATOM     20  C   UNL     1      33.901 -13.025 -22.951  0.00  0.00    -0.077 C 
ATOM     21  C   UNL     1      33.940 -10.851 -23.990  0.00  0.00    -0.101 C 
ATOM     22  H   UNL     1      35.148 -12.426 -24.438  0.00  0.00    -0.080 HD
ENDBRANCH  14  16
ENDBRANCH  13  14
ENDBRANCH   9  13
ENDBRANCH   1  12
BRANCH   2  23
ATOM     23  C   UNL     1      33.083 -23.136 -18.307  0.00  0.00    +0.146 C 
BRANCH  23  25
ATOM     24  O   UNL     1      30.695 -22.288 -16.969  0.00  0.00    -0.268 OA
ATOM     25  N   UNL     1      32.821 -23.221 -16.880  0.00  0.00    -0.173 N 
ATOM     26  N   UNL     1      33.840 -23.752 -16.142  0.00  0.00    -0.175 NA
ATOM     27  C   UNL     1      33.681 -23.852 -14.862  0.00  0.00    +0.099 C 
ATOM     28  C   UNL     1      31.625 -22.781 -16.332  0.00  0.00    +0.268 C 
ATOM     29  C   UNL     1      32.460 -23.453 -14.138  0.00  0.00    +0.025 C 
ATOM     30  C   UNL     1      31.476 -22.935 -14.870  0.00  0.00    +0.061 C 
BRANCH  27  31
ATOM     31  C   UNL     1      34.786 -24.425 -14.047  0.00  0.00    +0.020 C 
ATOM     32  C   UNL     1      34.830 -24.195 -12.671  0.00  0.00    +0.012 C 
ATOM     33  C   UNL     1      35.777 -25.193 -14.658  0.00  0.00    +0.002 C 
ATOM     34  C   UNL     1      35.866 -24.733 -11.908  0.00  0.00    +0.068 C 
ATOM     35  C   UNL     1      36.814 -25.731 -13.895  0.00  0.00    +0.001 C 
ATOM     36  C   UNL     1      36.858 -25.501 -12.519  0.00  0.00    +0.010 C 
BRANCH  34  38
ATOM     37  N   UNL     1      35.951 -24.307  -9.355  0.00  0.00    -0.191 NA
ATOM     38  C   UNL     1      35.913 -24.498 -10.499  0.00  0.00    +0.100 C 
ENDBRANCH  34  38
ENDBRANCH  27  31
ENDBRANCH  23  25
ENDBRANCH   2  23
TORSDOF 8
ENDMDL
MODEL 2
REMARK VINA RESULT:     -13.1      1.118      1.534
REMARK  Name = 25171648
REMARK  8 active torsions:
REMARK  status: ('A' for Active; 'I' for Inactive)
REMARK    1  A    between atoms: C_1  and  C_12
REMARK    2  A    between atoms: C_2  and  C_23
REMARK    3  A    between atoms: C_9  and  O_13
REMARK    4  A    between atoms: O_13  and  C_14
REMARK    5  A    between atoms: C_14  and  C_16
REMARK    6  A    between atoms: C_23  and  N_25
REMARK    7  A    between atoms: C_27  and  C_31
REMARK    8  A    between atoms: C_34  and  C_38
REMARK                            x       y       z     vdW  Elec       q    Type
REMARK                         _______ _______ _______ _____ _____    ______ ____
ROOT
ATOM      1  C   UNL     1      35.358 -20.694 -19.721  0.00  0.00    +0.062 C 
ATOM      2  C   UNL     1      34.291 -22.404 -18.388  0.00  0.00    +0.000 C 
ATOM      3  C   UNL     1      34.250 -21.497 -19.447  0.00  0.00    +0.007 C 
ATOM      4  C   UNL     1      36.506 -20.799 -18.935  0.00  0.00    +0.010 C 
ATOM      5  C   UNL     1      35.440 -22.508 -17.603  0.00  0.00    -0.003 C 
ATOM      6  C   UNL     1      36.547 -21.707 -17.877  0.00  0.00    +0.000 C 
ENDROOT
BRANCH   1  12
ATOM      7  N   UNL     1      36.310 -18.853 -20.869  0.00  0.00    -0.212 NA
ATOM      8  N   UNL     1      34.284 -19.882 -21.671  0.00  0.00    -0.190 NA
ATOM      9  C   UNL     1      35.235 -18.012 -22.852  0.00  0.00    +0.161 C 
ATOM     10  C   UNL     1      36.239 -17.992 -21.905  0.00  0.00    +0.201 C 
ATOM     11  C   UNL     1      34.275 -18.990 -22.683  0.00  0.00    +0.144 C 
ATOM     12  C   UNL     1      35.315 -19.758 -20.814  0.00  0.00    +0.031 C 
BRANCH   9  13
ATOM     13  O   UNL     1      35.195 -17.120 -23.895  0.00  0.00    -0.476 OA
BRANCH  13  14
ATOM     14  C   UNL     1      33.935 -16.887 -24.495  0.00  0.00    +0.205 C 
BRANCH  14  16
ATOM     15  N   UNL     1      34.165 -12.589 -24.126  0.00  0.00    +0.386 N 
ATOM     16  C   UNL     1      33.518 -15.448 -24.205  0.00  0.00    +0.040 C 
ATOM     17  C   UNL     1      33.598 -14.587 -25.471  0.00  0.00    -0.019 C 
ATOM     18  C   UNL     1      34.388 -14.832 -23.105  0.00  0.00    -0.019 C 
ATOM     19  C   UNL     1      33.277 -13.121 -25.169  0.00  0.00    -0.077 C 
ATOM     20  C   UNL     1      34.041 -13.358 -22.880  0.00  0.00    -0.077 C 
ATOM     21  C   UNL     1      33.881 -11.174 -23.885  0.00  0.00    -0.101 C 
ATOM     22  H   UNL     1      35.126 -12.678 -24.456  0.00  0.00    -0.080 HD
ENDBRANCH  14  16
ENDBRANCH  13  14
ENDBRANCH   9  13
ENDBRANCH   1  12
BRANCH   2  23
ATOM     23  C   UNL     1      33.107 -23.263 -18.094  0.00  0.00    +0.146 C 
BRANCH  23  25
ATOM     24  O   UNL     1      30.668 -22.348 -16.900  0.00  0.00    -0.268 OA
ATOM     25  N   UNL     1      32.782 -23.288 -16.678  0.00  0.00    -0.173 N 
ATOM     26  N   UNL     1      33.763 -23.795 -15.874  0.00  0.00    -0.175 NA
ATOM     27  C   UNL     1      33.546 -23.842 -14.599  0.00  0.00    +0.099 C 
ATOM     28  C   UNL     1      31.565 -22.821 -16.202  0.00  0.00    +0.268 C 
ATOM     29  C   UNL     1      32.297 -23.407 -13.948  0.00  0.00    +0.025 C 
ATOM     30  C   UNL     1      31.350 -22.914 -14.743  0.00  0.00    +0.061 C 
BRANCH  27  31
ATOM     31  C   UNL     1      34.609 -24.387 -13.713  0.00  0.00    +0.020 C 
ATOM     32  C   UNL     1      35.708 -25.045 -14.264  0.00  0.00    +0.012 C 
ATOM     33  C   UNL     1      34.507 -24.238 -12.329  0.00  0.00    +0.002 C 
ATOM     34  C   UNL     1      36.705 -25.556 -13.431  0.00  0.00    +0.068 C 
ATOM     35  C   UNL     1      35.504 -24.748 -11.497  0.00  0.00    +0.001 C 
ATOM     36  C   UNL     1      36.603 -25.406 -12.048  0.00  0.00    +0.010 C 
BRANCH  34  38
ATOM     37  N   UNL     1      38.745 -26.780 -14.453  0.00  0.00    -0.191 NA
ATOM     38  C   UNL     1      37.831 -26.231 -13.995  0.00  0.00    +0.100 C 
ENDBRANCH  34  38
ENDBRANCH  27  31
ENDBRANCH  23  25
ENDBRANCH   2  23
TORSDOF 8
ENDMDL
MODEL 3
REMARK VINA RESULT:     -12.9      2.232      3.737
REMARK  Name = 25171648
REMARK  8 active torsions:
REMARK  status: ('A' for Active; 'I' for Inactive)
REMARK    1  A    between atoms: C_1  and  C_12
REMARK    2  A    between atoms: C_2  and  C_23
REMARK    3  A    between atoms: C_9  and  O_13
REMARK    4  A    between atoms: O_13  and  C_14
REMARK    5  A    between atoms: C_14  and  C_16
REMARK    6  A    between atoms: C_23  and  N_25
REMARK    7  A    between atoms: C_27  and  C_31
REMARK    8  A    between atoms: C_34  and  C_38
REMARK                            x       y       z     vdW  Elec       q    Type
REMARK                         _______ _______ _______ _____ _____    ______ ____
ROOT
ATOM      1  C   UNL     1      34.354 -20.209 -20.394  0.00  0.00    +0.062 C 
ATOM      2  C   UNL     1      35.292 -21.700 -18.740  0.00  0.00    +0.000 C 
ATOM      3  C   UNL     1      35.463 -20.725 -19.724  0.00  0.00    +0.007 C 
ATOM      4  C   UNL     1      33.075 -20.668 -20.080  0.00  0.00    +0.010 C 
ATOM      5  C   UNL     1      34.013 -22.158 -18.427  0.00  0.00    -0.003 C 
ATOM      6  C   UNL     1      32.904 -21.641 -19.097  0.00  0.00    +0.000 C 
ENDROOT
BRANCH   1  12
ATOM      7  N   UNL     1      35.187 -18.087 -21.040  0.00  0.00    -0.212 NA
ATOM      8  N   UNL     1      34.023 -19.480 -22.625  0.00  0.00    -0.190 NA
ATOM      9  C   UNL     1      34.861 -17.328 -23.302  0.00  0.00    +0.161 C 
ATOM     10  C   UNL     1      35.334 -17.166 -22.016  0.00  0.00    +0.201 C 
ATOM     11  C   UNL     1      34.207 -18.517 -23.551  0.00  0.00    +0.144 C 
ATOM     12  C   UNL     1      34.531 -19.203 -21.408  0.00  0.00    +0.031 C 
BRANCH   9  13
ATOM     13  O   UNL     1      35.030 -16.369 -24.270  0.00  0.00    -0.476 OA
BRANCH  13  14
ATOM     14  C   UNL     1      33.891 -16.012 -25.029  0.00  0.00    +0.205 C 
BRANCH  14  16
ATOM     15  N   UNL     1      34.181 -11.798 -24.126  0.00  0.00    +0.386 N 
ATOM     16  C   UNL     1      33.473 -14.596 -24.643  0.00  0.00    +0.040 C 
ATOM     17  C   UNL     1      33.786 -13.604 -25.770  0.00  0.00    -0.019 C 
ATOM     18  C   UNL     1      34.167 -14.148 -23.353  0.00  0.00    -0.019 C 
ATOM     19  C   UNL     1      33.463 -12.168 -25.353  0.00  0.00    -0.077 C 
ATOM     20  C   UNL     1      33.831 -12.694 -23.016  0.00  0.00    -0.077 C 
ATOM     21  C   UNL     1      33.902 -10.407 -23.769  0.00  0.00    -0.101 C 
ATOM     22  H   UNL     1      35.181 -11.896 -24.306  0.00  0.00    -0.080 HD
ENDBRANCH  14  16
ENDBRANCH  13  14
ENDBRANCH   9  13
ENDBRANCH   1  12
BRANCH   2  23
ATOM     23  C   UNL     1      36.478 -22.254 -18.023  0.00  0.00    +0.146 C 
BRANCH  23  25
ATOM     24  O   UNL     1      38.342 -22.160 -15.849  0.00  0.00    -0.268 OA
ATOM     25  N   UNL     1      36.190 -22.556 -16.631  0.00  0.00    -0.173 N 
ATOM     26  N   UNL     1      34.899 -22.925 -16.381  0.00  0.00    -0.175 NA
ATOM     27  C   UNL     1      34.570 -23.217 -15.164  0.00  0.00    +0.099 C 
ATOM     28  C   UNL     1      37.169 -22.478 -15.652  0.00  0.00    +0.268 C 
ATOM     29  C   UNL     1      35.491 -23.156 -14.013  0.00  0.00    +0.025 C 
ATOM     30  C   UNL     1      36.746 -22.797 -14.272  0.00  0.00    +0.061 C 
BRANCH  27  31
ATOM     31  C   UNL     1      33.169 -23.626 -14.880  0.00  0.00    +0.020 C 
ATOM     32  C   UNL     1      32.116 -23.051 -15.591  0.00  0.00    +0.012 C 
ATOM     33  C   UNL     1      32.908 -24.586 -13.902  0.00  0.00    +0.002 C 
ATOM     34  C   UNL     1      30.802 -23.435 -15.324  0.00  0.00    +0.068 C 
ATOM     35  C   UNL     1      31.593 -24.970 -13.634  0.00  0.00    +0.001 C 
ATOM     36  C   UNL     1      30.541 -24.395 -14.346  0.00  0.00    +0.010 C 
BRANCH  34  38
ATOM     37  N   UNL     1      28.846 -22.366 -16.642  0.00  0.00    -0.191 NA
ATOM     38  C   UNL     1      29.722 -22.845 -16.052  0.00  0.00    +0.100 C 
ENDBRANCH  34  38
ENDBRANCH  27  31
ENDBRANCH  23  25
ENDBRANCH   2  23
TORSDOF 8
ENDMDL
MODEL 4
REMARK VINA RESULT:     -12.4      4.388     14.375
REMARK  Name = 25171648
REMARK  8 active torsions:
REMARK  status: ('A' for Active; 'I' for Inactive)
REMARK    1  A    between atoms: C_1  and  C_12
REMARK    2  A    between atoms: C_2  and  C_23
REMARK    3  A    between atoms: C_9  and  O_13
REMARK    4  A    between atoms: O_13  and  C_14
REMARK    5  A    between atoms: C_14  and  C_16
REMARK    6  A    between atoms: C_23  and  N_25
REMARK    7  A    between atoms: C_27  and  C_31
REMARK    8  A    between atoms: C_34  and  C_38
REMARK                            x       y       z     vdW  Elec       q    Type
REMARK                         _______ _______ _______ _____ _____    ______ ____
ROOT
ATOM      1  C   UNL     1      33.725 -13.354 -23.105  0.00  0.00    +0.062 C 
ATOM      2  C   UNL     1      32.355 -11.508 -22.361  0.00  0.00    +0.000 C 
ATOM      3  C   UNL     1      32.759 -12.838 -22.241  0.00  0.00    +0.007 C 
ATOM      4  C   UNL     1      34.286 -12.540 -24.089  0.00  0.00    +0.010 C 
ATOM      5  C   UNL     1      32.917 -10.694 -23.345  0.00  0.00    -0.003 C 
ATOM      6  C   UNL     1      33.883 -11.210 -24.208  0.00  0.00    +0.000 C 
ENDROOT
BRANCH   1  12
ATOM      7  N   UNL     1      34.537 -15.126 -21.759  0.00  0.00    -0.212 NA
ATOM      8  N   UNL     1      34.094 -15.473 -24.102  0.00  0.00    -0.190 NA
ATOM      9  C   UNL     1      34.919 -17.286 -22.751  0.00  0.00    +0.161 C 
ATOM     10  C   UNL     1      34.921 -16.417 -21.679  0.00  0.00    +0.201 C 
ATOM     11  C   UNL     1      34.490 -16.753 -23.950  0.00  0.00    +0.144 C 
ATOM     12  C   UNL     1      34.142 -14.726 -22.981  0.00  0.00    +0.031 C 
BRANCH   9  13
ATOM     13  O   UNL     1      35.315 -18.595 -22.633  0.00  0.00    -0.476 OA
BRANCH  13  14
ATOM     14  C   UNL     1      35.952 -18.968 -21.426  0.00  0.00    +0.205 C 
BRANCH  14  16
ATOM     15  N   UNL     1      33.985 -21.659 -18.679  0.00  0.00    +0.386 N 
ATOM     16  C   UNL     1      35.276 -20.225 -20.887  0.00  0.00    +0.040 C 
ATOM     17  C   UNL     1      33.839 -19.929 -20.442  0.00  0.00    -0.019 C 
ATOM     18  C   UNL     1      36.068 -20.819 -19.717  0.00  0.00    -0.019 C 
ATOM     19  C   UNL     1      33.188 -21.160 -19.808  0.00  0.00    -0.077 C 
ATOM     20  C   UNL     1      35.343 -22.021 -19.107  0.00  0.00    -0.077 C 
ATOM     21  C   UNL     1      33.324 -22.804 -18.052  0.00  0.00    -0.101 C 
ATOM     22  H   UNL     1      34.061 -20.909 -17.992  0.00  0.00    -0.080 HD
ENDBRANCH  14  16
ENDBRANCH  13  14
ENDBRANCH   9  13
ENDBRANCH   1  12
BRANCH   2  23
ATOM     23  C   UNL     1      31.322 -10.955 -21.438  0.00  0.00    +0.146 C 
BRANCH  23  25
ATOM     24  O   UNL     1      31.800 -10.300 -18.689  0.00  0.00    -0.268 OA
ATOM     25  N   UNL     1      31.688  -9.649 -20.917  0.00  0.00    -0.173 N 
ATOM     26  N   UNL     1      31.795  -8.667 -21.860  0.00  0.00    -0.175 NA
ATOM     27  C   UNL     1      32.111  -7.474 -21.469  0.00  0.00    +0.099 C 
ATOM     28  C   UNL     1      31.900  -9.439 -19.563  0.00  0.00    +0.268 C 
ATOM     29  C   UNL     1      32.391  -7.101 -20.070  0.00  0.00    +0.025 C 
ATOM     30  C   UNL     1      32.281  -8.068 -19.162  0.00  0.00    +0.061 C 
BRANCH  27  31
ATOM     31  C   UNL     1      32.225  -6.395 -22.486  0.00  0.00    +0.020 C 
ATOM     32  C   UNL     1      31.470  -5.229 -22.354  0.00  0.00    +0.012 C 
ATOM     33  C   UNL     1      33.088  -6.548 -23.571  0.00  0.00    +0.002 C 
ATOM     34  C   UNL     1      31.578  -4.217 -23.308  0.00  0.00    +0.068 C 
ATOM     35  C   UNL     1      33.197  -5.536 -24.525  0.00  0.00    +0.001 C 
ATOM     36  C   UNL     1      32.442  -4.370 -24.393  0.00  0.00    +0.010 C 
BRANCH  34  38
ATOM     37  N   UNL     1      30.176  -2.053 -23.067  0.00  0.00    -0.191 NA
ATOM     38  C   UNL     1      30.804  -3.023 -23.175  0.00  0.00    +0.100 C 
ENDBRANCH  34  38
ENDBRANCH  27  31
ENDBRANCH  23  25
ENDBRANCH   2  23
TORSDOF 8
ENDMDL
MODEL 5
REMARK VINA RESULT:     -12.4      4.601      9.549
REMARK  Name = 25171648
REMARK  8 active torsions:
REMARK  status: ('A' for Active; 'I' for Inactive)
REMARK    1  A    between atoms: C_1  and  C_12
REMARK    2  A    between atoms: C_2  and  C_23
REMARK    3  A    between atoms: C_9  and  O_13
REMARK    4  A    between atoms: O_13  and  C_14
REMARK    5  A    between atoms: C_14  and  C_16
REMARK    6  A    between atoms: C_23  and  N_25
REMARK    7  A    between atoms: C_27  and  C_31
REMARK    8  A    between atoms: C_34  and  C_38
REMARK                            x       y       z     vdW  Elec       q    Type
REMARK                         _______ _______ _______ _____ _____    ______ ____
ROOT
ATOM      1  C   UNL     1      32.877 -12.337 -21.858  0.00  0.00    +0.062 C 
ATOM      2  C   UNL     1      34.156 -14.290 -22.482  0.00  0.00    +0.000 C 
ATOM      3  C   UNL     1      33.697 -13.004 -22.769  0.00  0.00    +0.007 C 
ATOM      4  C   UNL     1      32.515 -12.957 -20.662  0.00  0.00    +0.010 C 
ATOM      5  C   UNL     1      33.794 -14.909 -21.286  0.00  0.00    -0.003 C 
ATOM      6  C   UNL     1      32.975 -14.242 -20.376  0.00  0.00    +0.000 C 
ENDROOT
BRANCH   1  12
ATOM      7  N   UNL     1      33.127 -10.297 -23.038  0.00  0.00    -0.212 NA
ATOM      8  N   UNL     1      31.285 -10.615 -21.517  0.00  0.00    -0.190 NA
ATOM      9  C   UNL     1      31.520  -8.535 -22.706  0.00  0.00    +0.161 C 
ATOM     10  C   UNL     1      32.655  -9.059 -23.292  0.00  0.00    +0.201 C 
ATOM     11  C   UNL     1      30.869  -9.367 -21.818  0.00  0.00    +0.144 C 
ATOM     12  C   UNL     1      32.404 -11.010 -22.154  0.00  0.00    +0.031 C 
BRANCH   9  13
ATOM     13  O   UNL     1      31.069  -7.270 -22.989  0.00  0.00    -0.476 OA
BRANCH  13  14
ATOM     14  C   UNL     1      31.416  -6.243 -22.080  0.00  0.00    +0.205 C 
BRANCH  14  16
ATOM     15  N   UNL     1      31.887  -3.289 -25.195  0.00  0.00    +0.386 N 
ATOM     16  C   UNL     1      31.989  -5.069 -22.867  0.00  0.00    +0.040 C 
ATOM     17  C   UNL     1      30.961  -3.939 -22.995  0.00  0.00    -0.019 C 
ATOM     18  C   UNL     1      32.448  -5.510 -24.260  0.00  0.00    -0.019 C 
ATOM     19  C   UNL     1      31.491  -2.799 -23.867  0.00  0.00    -0.077 C 
ATOM     20  C   UNL     1      32.930  -4.318 -25.091  0.00  0.00    -0.077 C 
ATOM     21  C   UNL     1      32.343  -2.180 -26.034  0.00  0.00    -0.101 C 
ATOM     22  H   UNL     1      31.068  -3.713 -25.630  0.00  0.00    -0.080 HD
ENDBRANCH  14  16
ENDBRANCH  13  14
ENDBRANCH   9  13
ENDBRANCH   1  12
BRANCH   2  23
ATOM     23  C   UNL     1      35.033 -15.004 -23.455  0.00  0.00    +0.146 C 
BRANCH  23  25
ATOM     24  O   UNL     1      33.676 -16.161 -25.698  0.00  0.00    -0.268 OA
ATOM     25  N   UNL     1      34.665 -16.401 -23.608  0.00  0.00    -0.173 N 
ATOM     26  N   UNL     1      35.007 -17.202 -22.557  0.00  0.00    -0.175 NA
ATOM     27  C   UNL     1      34.704 -18.459 -22.620  0.00  0.00    +0.099 C 
ATOM     28  C   UNL     1      34.008 -16.860 -24.741  0.00  0.00    +0.268 C 
ATOM     29  C   UNL     1      34.030 -19.099 -23.766  0.00  0.00    +0.025 C 
ATOM     30  C   UNL     1      33.700 -18.305 -24.782  0.00  0.00    +0.061 C 
BRANCH  27  31
ATOM     31  C   UNL     1      35.067 -19.341 -21.479  0.00  0.00    +0.020 C 
ATOM     32  C   UNL     1      34.078 -20.063 -20.812  0.00  0.00    +0.012 C 
ATOM     33  C   UNL     1      36.399 -19.446 -21.077  0.00  0.00    +0.002 C 
ATOM     34  C   UNL     1      34.420 -20.890 -19.742  0.00  0.00    +0.068 C 
ATOM     35  C   UNL     1      36.742 -20.274 -20.007  0.00  0.00    +0.001 C 
ATOM     36  C   UNL     1      35.752 -20.996 -19.340  0.00  0.00    +0.010 C 
BRANCH  34  38
ATOM     37  N   UNL     1      32.584 -22.230 -18.501  0.00  0.00    -0.191 NA
ATOM     38  C   UNL     1      33.407 -21.630 -19.057  0.00  0.00    +0.100 C 
ENDBRANCH  34  38
ENDBRANCH  27  31
ENDBRANCH  23  25
ENDBRANCH   2  23
TORSDOF 8
ENDMDL
MODEL 6
REMARK VINA RESULT:     -12.0      2.140      4.089
REMARK  Name = 25171648
REMARK  8 active torsions:
REMARK  status: ('A' for Active; 'I' for Inactive)
REMARK    1  A    between atoms: C_1  and  C_12
REMARK    2  A    between atoms: C_2  and  C_23
REMARK    3  A    between atoms: C_9  and  O_13
REMARK    4  A    between atoms: O_13  and  C_14
REMARK    5  A    between atoms: C_14  and  C_16
REMARK    6  A    between atoms: C_23  and  N_25
REMARK    7  A    between atoms: C_27  and  C_31
REMARK    8  A    between atoms: C_34  and  C_38
REMARK                            x       y       z     vdW  Elec       q    Type
REMARK                         _______ _______ _______ _____ _____    ______ ____
ROOT
ATOM      1  C   UNL     1      34.786 -21.510 -19.090  0.00  0.00    +0.062 C 
ATOM      2  C   UNL     1      35.476 -22.593 -17.043  0.00  0.00    +0.000 C 
ATOM      3  C   UNL     1      35.684 -21.627 -18.029  0.00  0.00    +0.007 C 
ATOM      4  C   UNL     1      33.682 -22.358 -19.166  0.00  0.00    +0.010 C 
ATOM      5  C   UNL     1      34.372 -23.441 -17.120  0.00  0.00    -0.003 C 
ATOM      6  C   UNL     1      33.474 -23.323 -18.180  0.00  0.00    +0.000 C 
ENDROOT
BRANCH   1  12
ATOM      7  N   UNL     1      36.225 -19.957 -20.155  0.00  0.00    -0.212 NA
ATOM      8  N   UNL     1      33.953 -20.237 -20.908  0.00  0.00    -0.190 NA
ATOM      9  C   UNL     1      35.398 -18.655 -22.003  0.00  0.00    +0.161 C 
ATOM     10  C   UNL     1      36.390 -19.028 -21.119  0.00  0.00    +0.201 C 
ATOM     11  C   UNL     1      34.188 -19.300 -21.850  0.00  0.00    +0.144 C 
ATOM     12  C   UNL     1      35.000 -20.513 -20.107  0.00  0.00    +0.031 C 
BRANCH   9  13
ATOM     13  O   UNL     1      35.603 -17.705 -22.974  0.00  0.00    -0.476 OA
BRANCH  13  14
ATOM     14  C   UNL     1      35.438 -16.352 -22.595  0.00  0.00    +0.205 C 
BRANCH  14  16
ATOM     15  N   UNL     1      33.462 -13.985 -25.619  0.00  0.00    +0.386 N 
ATOM     16  C   UNL     1      34.320 -15.743 -23.435  0.00  0.00    +0.040 C 
ATOM     17  C   UNL     1      34.468 -16.132 -24.911  0.00  0.00    -0.019 C 
ATOM     18  C   UNL     1      34.297 -14.217 -23.302  0.00  0.00    -0.019 C 
ATOM     19  C   UNL     1      33.409 -15.445 -25.776  0.00  0.00    -0.077 C 
ATOM     20  C   UNL     1      33.243 -13.594 -24.220  0.00  0.00    -0.077 C 
ATOM     21  C   UNL     1      32.479 -13.341 -26.491  0.00  0.00    -0.101 C 
ATOM     22  H   UNL     1      34.394 -13.674 -25.891  0.00  0.00    -0.080 HD
ENDBRANCH  14  16
ENDBRANCH  13  14
ENDBRANCH   9  13
ENDBRANCH   1  12
BRANCH   2  23
ATOM     23  C   UNL     1      36.436 -22.719 -15.909  0.00  0.00    +0.146 C 
BRANCH  23  25
ATOM     24  O   UNL     1      37.720 -23.198 -13.391  0.00  0.00    -0.268 OA
ATOM     25  N   UNL     1      35.793 -23.183 -14.691  0.00  0.00    -0.173 N 
ATOM     26  N   UNL     1      34.451 -23.409 -14.803  0.00  0.00    -0.175 NA
ATOM     27  C   UNL     1      33.812 -23.831 -13.760  0.00  0.00    +0.099 C 
ATOM     28  C   UNL     1      36.509 -23.381 -13.520  0.00  0.00    +0.268 C 
ATOM     29  C   UNL     1      34.428 -24.064 -12.440  0.00  0.00    +0.025 C 
ATOM     30  C   UNL     1      35.737 -23.842 -12.346  0.00  0.00    +0.061 C 
BRANCH  27  31
ATOM     31  C   UNL     1      32.351 -24.087 -13.871  0.00  0.00    +0.020 C 
ATOM     32  C   UNL     1      31.583 -23.365 -14.785  0.00  0.00    +0.012 C 
ATOM     33  C   UNL     1      31.748 -25.050 -13.061  0.00  0.00    +0.002 C 
ATOM     34  C   UNL     1      30.213 -23.606 -14.888  0.00  0.00    +0.068 C 
ATOM     35  C   UNL     1      30.378 -25.290 -13.164  0.00  0.00    +0.001 C 
ATOM     36  C   UNL     1      29.610 -24.569 -14.078  0.00  0.00    +0.010 C 
BRANCH  34  38
ATOM     37  N   UNL     1      28.786 -22.265 -16.583  0.00  0.00    -0.191 NA
ATOM     38  C   UNL     1      29.426 -22.866 -15.824  0.00  0.00    +0.100 C 
ENDBRANCH  34  38
ENDBRANCH  27  31
ENDBRANCH  23  25
ENDBRANCH   2  23
TORSDOF 8
ENDMDL
MODEL 7
REMARK VINA RESULT:     -11.7      3.652     14.247
REMARK  Name = 25171648
REMARK  8 active torsions:
REMARK  status: ('A' for Active; 'I' for Inactive)
REMARK    1  A    between atoms: C_1  and  C_12
REMARK    2  A    between atoms: C_2  and  C_23
REMARK    3  A    between atoms: C_9  and  O_13
REMARK    4  A    between atoms: O_13  and  C_14
REMARK    5  A    between atoms: C_14  and  C_16
REMARK    6  A    between atoms: C_23  and  N_25
REMARK    7  A    between atoms: C_27  and  C_31
REMARK    8  A    between atoms: C_34  and  C_38
REMARK                            x       y       z     vdW  Elec       q    Type
REMARK                         _______ _______ _______ _____ _____    ______ ____
ROOT
ATOM      1  C   UNL     1      33.866 -14.700 -24.537  0.00  0.00    +0.062 C 
ATOM      2  C   UNL     1      33.971 -12.291 -24.382  0.00  0.00    +0.000 C 
ATOM      3  C   UNL     1      34.234 -13.550 -23.840  0.00  0.00    +0.007 C 
ATOM      4  C   UNL     1      33.234 -14.592 -25.776  0.00  0.00    +0.010 C 
ATOM      5  C   UNL     1      33.339 -12.184 -25.620  0.00  0.00    -0.003 C 
ATOM      6  C   UNL     1      32.972 -13.334 -26.318  0.00  0.00    +0.000 C 
ENDROOT
BRANCH   1  12
ATOM      7  N   UNL     1      34.727 -16.020 -22.768  0.00  0.00    -0.212 NA
ATOM      8  N   UNL     1      33.775 -17.062 -24.721  0.00  0.00    -0.190 NA
ATOM      9  C   UNL     1      34.645 -18.421 -22.935  0.00  0.00    +0.161 C 
ATOM     10  C   UNL     1      34.967 -17.253 -22.274  0.00  0.00    +0.201 C 
ATOM     11  C   UNL     1      34.044 -18.262 -24.167  0.00  0.00    +0.144 C 
ATOM     12  C   UNL     1      34.138 -15.999 -23.978  0.00  0.00    +0.031 C 
BRANCH   9  13
ATOM     13  O   UNL     1      34.903 -19.659 -22.401  0.00  0.00    -0.476 OA
BRANCH  13  14
ATOM     14  C   UNL     1      35.877 -19.727 -21.376  0.00  0.00    +0.205 C 
BRANCH  14  16
ATOM     15  N   UNL     1      33.891 -22.467 -18.692  0.00  0.00    +0.386 N 
ATOM     16  C   UNL     1      35.217 -20.272 -20.113  0.00  0.00    +0.040 C 
ATOM     17  C   UNL     1      35.984 -21.483 -19.570  0.00  0.00    -0.019 C 
ATOM     18  C   UNL     1      33.758 -20.659 -20.376  0.00  0.00    -0.019 C 
ATOM     19  C   UNL     1      35.274 -22.096 -18.361  0.00  0.00    -0.077 C 
ATOM     20  C   UNL     1      33.121 -21.299 -19.140  0.00  0.00    -0.077 C 
ATOM     21  C   UNL     1      33.242 -23.098 -17.543  0.00  0.00    -0.101 C 
ATOM     22  H   UNL     1      33.921 -23.138 -19.460  0.00  0.00    -0.080 HD
ENDBRANCH  14  16
ENDBRANCH  13  14
ENDBRANCH   9  13
ENDBRANCH   1  12
BRANCH   2  23
ATOM     23  C   UNL     1      34.364 -11.060 -23.636  0.00  0.00    +0.146 C 
BRANCH  23  25
ATOM     24  O   UNL     1      32.478 -12.349 -21.905  0.00  0.00    -0.268 OA
ATOM     25  N   UNL     1      33.233 -10.429 -22.977  0.00  0.00    -0.173 N 
ATOM     26  N   UNL     1      33.086  -9.098 -23.243  0.00  0.00    -0.175 NA
ATOM     27  C   UNL     1      32.095  -8.470 -22.695  0.00  0.00    +0.099 C 
ATOM     28  C   UNL     1      32.378 -11.147 -22.153  0.00  0.00    +0.268 C 
ATOM     29  C   UNL     1      31.118  -9.088 -21.779  0.00  0.00    +0.025 C 
ATOM     30  C   UNL     1      31.273 -10.387 -21.531  0.00  0.00    +0.061 C 
BRANCH  27  31
ATOM     31  C   UNL     1      31.921  -7.021 -22.981  0.00  0.00    +0.020 C 
ATOM     32  C   UNL     1      32.637  -6.422 -24.017  0.00  0.00    +0.012 C 
ATOM     33  C   UNL     1      31.039  -6.260 -22.212  0.00  0.00    +0.002 C 
ATOM     34  C   UNL     1      32.473  -5.063 -24.284  0.00  0.00    +0.068 C 
ATOM     35  C   UNL     1      30.875  -4.901 -22.478  0.00  0.00    +0.001 C 
ATOM     36  C   UNL     1      31.591  -4.302 -23.515  0.00  0.00    +0.010 C 
BRANCH  34  38
ATOM     37  N   UNL     1      33.803  -3.950 -26.207  0.00  0.00    -0.191 NA
ATOM     38  C   UNL     1      33.207  -4.449 -25.345  0.00  0.00    +0.100 C 
ENDBRANCH  34  38
ENDBRANCH  27  31
ENDBRANCH  23  25
ENDBRANCH   2  23
TORSDOF 8
ENDMDL
MODEL 8
REMARK VINA RESULT:     -11.4      6.003     16.517
REMARK  Name = 25171648
REMARK  8 active torsions:
REMARK  status: ('A' for Active; 'I' for Inactive)
REMARK    1  A    between atoms: C_1  and  C_12
REMARK    2  A    between atoms: C_2  and  C_23
REMARK    3  A    between atoms: C_9  and  O_13
REMARK    4  A    between atoms: O_13  and  C_14
REMARK    5  A    between atoms: C_14  and  C_16
REMARK    6  A    between atoms: C_23  and  N_25
REMARK    7  A    between atoms: C_27  and  C_31
REMARK    8  A    between atoms: C_34  and  C_38
REMARK                            x       y       z     vdW  Elec       q    Type
REMARK                         _______ _______ _______ _____ _____    ______ ____
ROOT
ATOM      1  C   UNL     1      33.891 -10.246 -23.692  0.00  0.00    +0.062 C 
ATOM      2  C   UNL     1      33.069  -8.199 -22.705  0.00  0.00    +0.000 C 
ATOM      3  C   UNL     1      32.872  -9.535 -23.057  0.00  0.00    +0.007 C 
ATOM      4  C   UNL     1      35.106  -9.620 -23.975  0.00  0.00    +0.010 C 
ATOM      5  C   UNL     1      34.283  -7.574 -22.988  0.00  0.00    -0.003 C 
ATOM      6  C   UNL     1      35.302  -8.285 -23.622  0.00  0.00    +0.000 C 
ENDROOT
BRANCH   1  12
ATOM      7  N   UNL     1      33.447 -12.482 -23.046  0.00  0.00    -0.212 NA
ATOM      8  N   UNL     1      33.760 -11.917 -25.368  0.00  0.00    -0.190 NA
ATOM      9  C   UNL     1      33.310 -14.195 -24.733  0.00  0.00    +0.161 C 
ATOM     10  C   UNL     1      33.262 -13.765 -23.422  0.00  0.00    +0.201 C 
ATOM     11  C   UNL     1      33.565 -13.216 -25.672  0.00  0.00    +0.144 C 
ATOM     12  C   UNL     1      33.689 -11.624 -24.055  0.00  0.00    +0.031 C 
BRANCH   9  13
ATOM     13  O   UNL     1      33.116 -15.509 -25.079  0.00  0.00    -0.476 OA
BRANCH  13  14
ATOM     14  C   UNL     1      34.244 -16.362 -25.027  0.00  0.00    +0.205 C 
BRANCH  14  16
ATOM     15  N   UNL     1      35.449 -19.023 -21.846  0.00  0.00    +0.386 N 
ATOM     16  C   UNL     1      34.190 -17.162 -23.729  0.00  0.00    +0.040 C 
ATOM     17  C   UNL     1      35.307 -16.733 -22.771  0.00  0.00    -0.019 C 
ATOM     18  C   UNL     1      34.293 -18.666 -24.004  0.00  0.00    -0.019 C 
ATOM     19  C   UNL     1      35.321 -17.598 -21.509  0.00  0.00    -0.077 C 
ATOM     20  C   UNL     1      34.340 -19.468 -22.701  0.00  0.00    -0.077 C 
ATOM     21  C   UNL     1      35.513 -19.832 -20.628  0.00  0.00    -0.101 C 
ATOM     22  H   UNL     1      36.317 -19.146 -22.366  0.00  0.00    -0.080 HD
ENDBRANCH  14  16
ENDBRANCH  13  14
ENDBRANCH   9  13
ENDBRANCH   1  12
BRANCH   2  23
ATOM     23  C   UNL     1      31.980  -7.438 -22.027  0.00  0.00    +0.146 C 
BRANCH  23  25
ATOM     24  O   UNL     1      30.258  -5.385 -21.009  0.00  0.00    -0.268 OA
ATOM     25  N   UNL     1      31.802  -6.109 -22.588  0.00  0.00    -0.173 N 
ATOM     26  N   UNL     1      32.536  -5.861 -23.712  0.00  0.00    -0.175 NA
ATOM     27  C   UNL     1      32.424  -4.699 -24.273  0.00  0.00    +0.099 C 
ATOM     28  C   UNL     1      30.941  -5.186 -22.014  0.00  0.00    +0.268 C 
ATOM     29  C   UNL     1      31.571  -3.607 -23.767  0.00  0.00    +0.025 C 
ATOM     30  C   UNL     1      30.859  -3.865 -22.672  0.00  0.00    +0.061 C 
BRANCH  27  31
ATOM     31  C   UNL     1      33.215  -4.418 -25.500  0.00  0.00    +0.020 C 
ATOM     32  C   UNL     1      32.692  -3.588 -26.493  0.00  0.00    +0.012 C 
ATOM     33  C   UNL     1      34.480  -4.983 -25.659  0.00  0.00    +0.002 C 
ATOM     34  C   UNL     1      33.435  -3.324 -27.643  0.00  0.00    +0.068 C 
ATOM     35  C   UNL     1      35.224  -4.719 -26.810  0.00  0.00    +0.001 C 
ATOM     36  C   UNL     1      34.701  -3.890 -27.802  0.00  0.00    +0.010 C 
BRANCH  34  38
ATOM     37  N   UNL     1      32.466  -1.786 -29.487  0.00  0.00    -0.191 NA
ATOM     38  C   UNL     1      32.900  -2.475 -28.661  0.00  0.00    +0.100 C 
ENDBRANCH  34  38
ENDBRANCH  27  31
ENDBRANCH  23  25
ENDBRANCH   2  23
TORSDOF 8
ENDMDL
MODEL 9
REMARK VINA RESULT:     -11.2      4.331     14.831
REMARK  Name = 25171648
REMARK  8 active torsions:
REMARK  status: ('A' for Active; 'I' for Inactive)
REMARK    1  A    between atoms: C_1  and  C_12
REMARK    2  A    between atoms: C_2  and  C_23
REMARK    3  A    between atoms: C_9  and  O_13
REMARK    4  A    between atoms: O_13  and  C_14
REMARK    5  A    between atoms: C_14  and  C_16
REMARK    6  A    between atoms: C_23  and  N_25
REMARK    7  A    between atoms: C_27  and  C_31
REMARK    8  A    between atoms: C_34  and  C_38
REMARK                            x       y       z     vdW  Elec       q    Type
REMARK                         _______ _______ _______ _____ _____    ______ ____
ROOT
ATOM      1  C   UNL     1      33.320 -13.497 -21.779  0.00  0.00    +0.062 C 
ATOM      2  C   UNL     1      32.800 -11.405 -22.872  0.00  0.00    +0.000 C 
ATOM      3  C   UNL     1      33.457 -12.637 -22.869  0.00  0.00    +0.007 C 
ATOM      4  C   UNL     1      32.528 -13.125 -20.693  0.00  0.00    +0.010 C 
ATOM      5  C   UNL     1      32.008 -11.035 -21.786  0.00  0.00    -0.003 C 
ATOM      6  C   UNL     1      31.871 -11.895 -20.697  0.00  0.00    +0.000 C 
ENDROOT
BRANCH   1  12
ATOM      7  N   UNL     1      34.241 -15.316 -20.572  0.00  0.00    -0.212 NA
ATOM      8  N   UNL     1      34.320 -15.279 -22.980  0.00  0.00    -0.190 NA
ATOM      9  C   UNL     1      35.261 -17.137 -21.772  0.00  0.00    +0.161 C 
ATOM     10  C   UNL     1      34.877 -16.506 -20.606  0.00  0.00    +0.201 C 
ATOM     11  C   UNL     1      34.953 -16.470 -22.940  0.00  0.00    +0.144 C 
ATOM     12  C   UNL     1      33.998 -14.767 -21.776  0.00  0.00    +0.031 C 
BRANCH   9  13
ATOM     13  O   UNL     1      35.906 -18.348 -21.769  0.00  0.00    -0.476 OA
BRANCH  13  14
ATOM     14  C   UNL     1      35.105 -19.505 -21.917  0.00  0.00    +0.205 C 
BRANCH  14  16
ATOM     15  N   UNL     1      33.983 -22.278 -18.802  0.00  0.00    +0.386 N 
ATOM     16  C   UNL     1      34.765 -20.043 -20.530  0.00  0.00    +0.040 C 
ATOM     17  C   UNL     1      35.748 -21.142 -20.111  0.00  0.00    -0.019 C 
ATOM     18  C   UNL     1      33.333 -20.585 -20.484  0.00  0.00    -0.019 C 
ATOM     19  C   UNL     1      35.356 -21.756 -18.765  0.00  0.00    -0.077 C 
ATOM     20  C   UNL     1      33.020 -21.217 -19.126  0.00  0.00    -0.077 C 
ATOM     21  C   UNL     1      33.641 -22.907 -17.525  0.00  0.00    -0.101 C 
ATOM     22  H   UNL     1      33.934 -22.983 -19.537  0.00  0.00    -0.080 HD
ENDBRANCH  14  16
ENDBRANCH  13  14
ENDBRANCH   9  13
ENDBRANCH   1  12
BRANCH   2  23
ATOM     23  C   UNL     1      32.946 -10.485 -24.037  0.00  0.00    +0.146 C 
BRANCH  23  25
ATOM     24  O   UNL     1      35.725  -9.795 -23.911  0.00  0.00    -0.268 OA
ATOM     25  N   UNL     1      33.494  -9.194 -23.655  0.00  0.00    -0.173 N 
ATOM     26  N   UNL     1      32.563  -8.252 -23.323  0.00  0.00    -0.175 NA
ATOM     27  C   UNL     1      32.978  -7.080 -22.966  0.00  0.00    +0.099 C 
ATOM     28  C   UNL     1      34.862  -8.964 -23.630  0.00  0.00    +0.268 C 
ATOM     29  C   UNL     1      34.396  -6.676 -22.913  0.00  0.00    +0.025 C 
ATOM     30  C   UNL     1      35.293  -7.605 -23.237  0.00  0.00    +0.061 C 
BRANCH  27  31
ATOM     31  C   UNL     1      31.974  -6.047 -22.597  0.00  0.00    +0.020 C 
ATOM     32  C   UNL     1      31.823  -4.907 -23.386  0.00  0.00    +0.012 C 
ATOM     33  C   UNL     1      31.181  -6.220 -21.462  0.00  0.00    +0.002 C 
ATOM     34  C   UNL     1      30.880  -3.939 -23.039  0.00  0.00    +0.068 C 
ATOM     35  C   UNL     1      30.238  -5.252 -21.115  0.00  0.00    +0.001 C 
ATOM     36  C   UNL     1      30.087  -4.111 -21.904  0.00  0.00    +0.010 C 
BRANCH  34  38
ATOM     37  N   UNL     1      30.600  -1.820 -24.502  0.00  0.00    -0.191 NA
ATOM     38  C   UNL     1      30.725  -2.770 -23.846  0.00  0.00    +0.100 C 
ENDBRANCH  34  38
ENDBRANCH  27  31
ENDBRANCH  23  25
ENDBRANCH   2  23
TORSDOF 8
ENDMDL
