MODEL 1
REMARK VINA RESULT:     -11.9      0.000      0.000
REMARK  Name = 56842109
REMARK  7 active torsions:
REMARK  status: ('A' for Active; 'I' for Inactive)
REMARK    1  A    between atoms: C_1  and  C_24
REMARK    2  A    between atoms: C_3  and  C_9
REMARK    3  A    between atoms: C_5  and  O_22
REMARK    4  A    between atoms: N_8  and  C_11
REMARK    5  A    between atoms: C_11  and  C_12
REMARK    6  A    between atoms: C_15  and  C_21
REMARK    7  A    between atoms: C_24  and  C_29
REMARK                            x       y       z     vdW  Elec       q    Type
REMARK                         _______ _______ _______ _____ _____    ______ ____
ROOT
ATOM      1  C   UNL     1      35.447 -23.723 -13.627  0.00  0.00    -0.018 C 
ATOM      2  C   UNL     1      34.856 -23.370 -14.840  0.00  0.00    +0.003 C 
ATOM      3  C   UNL     1      33.486 -23.559 -15.029  0.00  0.00    +0.087 C 
ATOM      4  C   UNL     1      34.669 -24.264 -12.604  0.00  0.00    -0.001 C 
ATOM      5  C   UNL     1      32.709 -24.100 -14.006  0.00  0.00    +0.143 C 
ATOM      6  C   UNL     1      33.300 -24.453 -12.793  0.00  0.00    +0.037 C 
ENDROOT
BRANCH   3   9
ATOM      7  O   UNL     1      31.716 -22.776 -16.351  0.00  0.00    -0.270 OA
ATOM      8  N   UNL     1      33.701 -23.279 -17.438  0.00  0.00    -0.297 N 
ATOM      9  C   UNL     1      32.889 -23.182 -16.303  0.00  0.00    +0.249 C 
ATOM     10  H   UNL     1      34.622 -23.610 -17.326  0.00  0.00    +0.150 HD
BRANCH   8  11
ATOM     11  C   UNL     1      33.261 -22.921 -18.767  0.00  0.00    +0.117 C 
BRANCH  11  12
ATOM     12  C   UNL     1      34.094 -21.822 -19.358  0.00  0.00    -0.003 C 
ATOM     13  C   UNL     1      35.474 -21.807 -19.153  0.00  0.00    -0.003 C 
ATOM     14  C   UNL     1      33.491 -20.816 -20.113  0.00  0.00    -0.003 C 
ATOM     15  C   UNL     1      35.647 -19.781 -20.456  0.00  0.00    +0.071 C 
ATOM     16  C   UNL     1      36.251 -20.786 -19.702  0.00  0.00    +0.004 C 
ATOM     17  C   UNL     1      34.267 -19.795 -20.661  0.00  0.00    +0.004 C 
BRANCH  15  21
ATOM     18  F   UNL     1      37.656 -18.512 -20.383  0.00  0.00    -0.166 F 
ATOM     19  F   UNL     1      36.819 -18.909 -22.351  0.00  0.00    -0.166 F 
ATOM     20  F   UNL     1      35.863 -17.471 -21.039  0.00  0.00    -0.166 F 
ATOM     21  C   UNL     1      36.476 -18.691 -21.046  0.00  0.00    +0.419 C 
ENDBRANCH  15  21
ENDBRANCH  11  12
ENDBRANCH   8  11
ENDBRANCH   3   9
BRANCH   5  22
ATOM     22  O   UNL     1      31.369 -24.289 -14.171  0.00  0.00    -0.471 OA
ATOM     23  C   UNL     1      30.638 -24.762 -13.041  0.00  0.00    +0.252 C 
ENDBRANCH   5  22
BRANCH   1  24
ATOM     24  C   UNL     1      36.928 -23.519 -13.422  0.00  0.00    +0.080 C 
BRANCH  24  29
ATOM     25  O   UNL     1      37.272 -25.315 -15.000  0.00  0.00    -0.428 OA
ATOM     26  O   UNL     1      37.693 -25.829 -11.572  0.00  0.00    -0.271 OA
ATOM     27  O   UNL     1      36.373 -27.300 -15.690  0.00  0.00    -0.226 OA
ATOM     28  N   UNL     1      36.945 -26.908 -13.487  0.00  0.00    -0.218 N 
ATOM     29  C   UNL     1      37.725 -24.763 -13.752  0.00  0.00    +0.250 C 
ATOM     30  C   UNL     1      37.471 -25.873 -12.772  0.00  0.00    +0.271 C 
ATOM     31  C   UNL     1      36.817 -26.589 -14.800  0.00  0.00    +0.408 C 
ATOM     32  H   UNL     1      36.689 -27.776 -13.100  0.00  0.00    +0.161 HD
ENDBRANCH  24  29
ENDBRANCH   1  24
TORSDOF 7
ENDMDL
MODEL 2
REMARK VINA RESULT:     -11.9      1.095      1.529
REMARK  Name = 56842109
REMARK  7 active torsions:
REMARK  status: ('A' for Active; 'I' for Inactive)
REMARK    1  A    between atoms: C_1  and  C_24
REMARK    2  A    between atoms: C_3  and  C_9
REMARK    3  A    between atoms: C_5  and  O_22
REMARK    4  A    between atoms: N_8  and  C_11
REMARK    5  A    between atoms: C_11  and  C_12
REMARK    6  A    between atoms: C_15  and  C_21
REMARK    7  A    between atoms: C_24  and  C_29
REMARK                            x       y       z     vdW  Elec       q    Type
REMARK                         _______ _______ _______ _____ _____    ______ ____
ROOT
ATOM      1  C   UNL     1      35.459 -23.687 -13.839  0.00  0.00    -0.018 C 
ATOM      2  C   UNL     1      34.819 -23.325 -15.024  0.00  0.00    +0.003 C 
ATOM      3  C   UNL     1      33.434 -23.457 -15.138  0.00  0.00    +0.087 C 
ATOM      4  C   UNL     1      34.715 -24.181 -12.768  0.00  0.00    -0.001 C 
ATOM      5  C   UNL     1      32.690 -23.951 -14.067  0.00  0.00    +0.143 C 
ATOM      6  C   UNL     1      33.331 -24.314 -12.882  0.00  0.00    +0.037 C 
ENDROOT
BRANCH   3   9
ATOM      7  O   UNL     1      31.563 -22.852 -16.414  0.00  0.00    -0.270 OA
ATOM      8  N   UNL     1      33.604 -22.943 -17.511  0.00  0.00    -0.297 N 
ATOM      9  C   UNL     1      32.786 -23.072 -16.384  0.00  0.00    +0.249 C 
ATOM     10  H   UNL     1      34.565 -23.133 -17.414  0.00  0.00    +0.150 HD
BRANCH   8  11
ATOM     11  C   UNL     1      33.114 -22.546 -18.811  0.00  0.00    +0.117 C 
BRANCH  11  12
ATOM     12  C   UNL     1      34.008 -21.533 -19.464  0.00  0.00    -0.003 C 
ATOM     13  C   UNL     1      35.389 -21.599 -19.277  0.00  0.00    -0.003 C 
ATOM     14  C   UNL     1      33.460 -20.525 -20.258  0.00  0.00    -0.003 C 
ATOM     15  C   UNL     1      35.673 -19.652 -20.677  0.00  0.00    +0.071 C 
ATOM     16  C   UNL     1      36.222 -20.659 -19.884  0.00  0.00    +0.004 C 
ATOM     17  C   UNL     1      34.292 -19.585 -20.864  0.00  0.00    +0.004 C 
BRANCH  15  21
ATOM     18  F   UNL     1      37.640 -18.321 -20.556  0.00  0.00    -0.166 F 
ATOM     19  F   UNL     1      37.082 -19.067 -22.521  0.00  0.00    -0.166 F 
ATOM     20  F   UNL     1      35.941 -17.464 -21.608  0.00  0.00    -0.166 F 
ATOM     21  C   UNL     1      36.563 -18.647 -21.328  0.00  0.00    +0.419 C 
ENDBRANCH  15  21
ENDBRANCH  11  12
ENDBRANCH   8  11
ENDBRANCH   3   9
BRANCH   5  22
ATOM     22  O   UNL     1      31.337 -24.085 -14.158  0.00  0.00    -0.471 OA
ATOM     23  C   UNL     1      30.727 -25.068 -13.324  0.00  0.00    +0.252 C 
ENDBRANCH   5  22
BRANCH   1  24
ATOM     24  C   UNL     1      36.955 -23.542 -13.716  0.00  0.00    +0.080 C 
BRANCH  24  29
ATOM     25  O   UNL     1      39.032 -24.642 -13.160  0.00  0.00    -0.428 OA
ATOM     26  O   UNL     1      36.596 -26.262 -15.065  0.00  0.00    -0.271 OA
ATOM     27  O   UNL     1      40.976 -25.397 -14.098  0.00  0.00    -0.226 OA
ATOM     28  N   UNL     1      38.900 -26.076 -14.851  0.00  0.00    -0.218 N 
ATOM     29  C   UNL     1      37.628 -24.856 -13.377  0.00  0.00    +0.250 C 
ATOM     30  C   UNL     1      37.600 -25.819 -14.531  0.00  0.00    +0.271 C 
ATOM     31  C   UNL     1      39.754 -25.384 -14.053  0.00  0.00    +0.408 C 
ATOM     32  H   UNL     1      39.184 -26.686 -15.569  0.00  0.00    +0.161 HD
ENDBRANCH  24  29
ENDBRANCH   1  24
TORSDOF 7
ENDMDL
MODEL 3
REMARK VINA RESULT:     -11.5      1.733      2.353
REMARK  Name = 56842109
REMARK  7 active torsions:
REMARK  status: ('A' for Active; 'I' for Inactive)
REMARK    1  A    between atoms: C_1  and  C_24
REMARK    2  A    between atoms: C_3  and  C_9
REMARK    3  A    between atoms: C_5  and  O_22
REMARK    4  A    between atoms: N_8  and  C_11
REMARK    5  A    between atoms: C_11  and  C_12
REMARK    6  A    between atoms: C_15  and  C_21
REMARK    7  A    between atoms: C_24  and  C_29
REMARK                            x       y       z     vdW  Elec       q    Type
REMARK                         _______ _______ _______ _____ _____    ______ ____
ROOT
ATOM      1  C   UNL     1      34.477 -24.285 -14.374  0.00  0.00    -0.018 C 
ATOM      2  C   UNL     1      34.408 -24.059 -15.749  0.00  0.00    +0.003 C 
ATOM      3  C   UNL     1      33.233 -23.567 -16.317  0.00  0.00    +0.087 C 
ATOM      4  C   UNL     1      33.371 -24.018 -13.568  0.00  0.00    -0.001 C 
ATOM      5  C   UNL     1      32.127 -23.300 -15.511  0.00  0.00    +0.143 C 
ATOM      6  C   UNL     1      32.195 -23.526 -14.136  0.00  0.00    +0.037 C 
ENDROOT
BRANCH   3   9
ATOM      7  O   UNL     1      33.543 -24.223 -18.546  0.00  0.00    -0.270 OA
ATOM      8  N   UNL     1      32.696 -22.096 -18.181  0.00  0.00    -0.297 N 
ATOM      9  C   UNL     1      33.183 -23.336 -17.754  0.00  0.00    +0.249 C 
ATOM     10  H   UNL     1      32.429 -21.440 -17.497  0.00  0.00    +0.150 HD
BRANCH   8  11
ATOM     11  C   UNL     1      32.565 -21.727 -19.572  0.00  0.00    +0.117 C 
BRANCH  11  12
ATOM     12  C   UNL     1      33.721 -20.894 -20.044  0.00  0.00    -0.003 C 
ATOM     13  C   UNL     1      35.005 -21.148 -19.562  0.00  0.00    -0.003 C 
ATOM     14  C   UNL     1      33.512 -19.867 -20.964  0.00  0.00    -0.003 C 
ATOM     15  C   UNL     1      35.871 -19.348 -20.920  0.00  0.00    +0.071 C 
ATOM     16  C   UNL     1      36.081 -20.375 -20.000  0.00  0.00    +0.004 C 
ATOM     17  C   UNL     1      34.587 -19.094 -21.402  0.00  0.00    +0.004 C 
BRANCH  15  21
ATOM     18  F   UNL     1      37.973 -18.351 -20.428  0.00  0.00    -0.166 F 
ATOM     19  F   UNL     1      37.678 -19.061 -22.462  0.00  0.00    -0.166 F 
ATOM     20  F   UNL     1      36.667 -17.265 -21.786  0.00  0.00    -0.166 F 
ATOM     21  C   UNL     1      37.021 -18.524 -21.391  0.00  0.00    +0.419 C 
ENDBRANCH  15  21
ENDBRANCH  11  12
ENDBRANCH   8  11
ENDBRANCH   3   9
BRANCH   5  22
ATOM     22  O   UNL     1      30.971 -22.816 -16.047  0.00  0.00    -0.471 OA
ATOM     23  C   UNL     1      29.794 -22.920 -15.248  0.00  0.00    +0.252 C 
ENDBRANCH   5  22
BRANCH   1  24
ATOM     24  C   UNL     1      35.748 -24.816 -13.760  0.00  0.00    +0.080 C 
BRANCH  24  29
ATOM     25  O   UNL     1      36.486 -23.074 -12.259  0.00  0.00    -0.428 OA
ATOM     26  O   UNL     1      36.816 -26.443 -11.402  0.00  0.00    -0.271 OA
ATOM     27  O   UNL     1      38.377 -22.150 -11.367  0.00  0.00    -0.226 OA
ATOM     28  N   UNL     1      37.897 -24.401 -11.172  0.00  0.00    -0.218 N 
ATOM     29  C   UNL     1      35.905 -24.388 -12.316  0.00  0.00    +0.250 C 
ATOM     30  C   UNL     1      36.901 -25.238 -11.579  0.00  0.00    +0.271 C 
ATOM     31  C   UNL     1      37.666 -23.124 -11.571  0.00  0.00    +0.408 C 
ATOM     32  H   UNL     1      38.683 -24.686 -10.653  0.00  0.00    +0.161 HD
ENDBRANCH  24  29
ENDBRANCH   1  24
TORSDOF 7
ENDMDL
MODEL 4
REMARK VINA RESULT:     -11.5      5.315      9.627
REMARK  Name = 56842109
REMARK  7 active torsions:
REMARK  status: ('A' for Active; 'I' for Inactive)
REMARK    1  A    between atoms: C_1  and  C_24
REMARK    2  A    between atoms: C_3  and  C_9
REMARK    3  A    between atoms: C_5  and  O_22
REMARK    4  A    between atoms: N_8  and  C_11
REMARK    5  A    between atoms: C_11  and  C_12
REMARK    6  A    between atoms: C_15  and  C_21
REMARK    7  A    between atoms: C_24  and  C_29
REMARK                            x       y       z     vdW  Elec       q    Type
REMARK                         _______ _______ _______ _____ _____    ______ ____
ROOT
ATOM      1  C   UNL     1      34.875 -19.810 -21.050  0.00  0.00    -0.018 C 
ATOM      2  C   UNL     1      34.176 -20.821 -20.389  0.00  0.00    +0.003 C 
ATOM      3  C   UNL     1      34.801 -21.556 -19.382  0.00  0.00    +0.087 C 
ATOM      4  C   UNL     1      36.197 -19.536 -20.703  0.00  0.00    -0.001 C 
ATOM      5  C   UNL     1      36.123 -21.282 -19.035  0.00  0.00    +0.143 C 
ATOM      6  C   UNL     1      36.822 -20.271 -19.696  0.00  0.00    +0.037 C 
ENDROOT
BRANCH   3   9
ATOM      7  O   UNL     1      33.781 -23.666 -19.292  0.00  0.00    -0.270 OA
ATOM      8  N   UNL     1      33.687 -22.366 -17.373  0.00  0.00    -0.297 N 
ATOM      9  C   UNL     1      34.053 -22.606 -18.703  0.00  0.00    +0.249 C 
ATOM     10  H   UNL     1      33.936 -21.502 -16.971  0.00  0.00    +0.150 HD
BRANCH   8  11
ATOM     11  C   UNL     1      32.964 -23.317 -16.561  0.00  0.00    +0.117 C 
BRANCH  11  12
ATOM     12  C   UNL     1      33.715 -23.675 -15.312  0.00  0.00    -0.003 C 
ATOM     13  C   UNL     1      33.021 -23.907 -14.124  0.00  0.00    -0.003 C 
ATOM     14  C   UNL     1      35.106 -23.775 -15.338  0.00  0.00    -0.003 C 
ATOM     15  C   UNL     1      35.108 -24.340 -12.989  0.00  0.00    +0.071 C 
ATOM     16  C   UNL     1      33.718 -24.240 -12.962  0.00  0.00    +0.004 C 
ATOM     17  C   UNL     1      35.803 -24.108 -14.176  0.00  0.00    +0.004 C 
BRANCH  15  21
ATOM     18  F   UNL     1      36.654 -25.792 -11.913  0.00  0.00    -0.166 F 
ATOM     19  F   UNL     1      36.678 -23.706 -11.298  0.00  0.00    -0.166 F 
ATOM     20  F   UNL     1      35.043 -24.995 -10.689  0.00  0.00    -0.166 F 
ATOM     21  C   UNL     1      35.853 -24.699 -11.748  0.00  0.00    +0.419 C 
ENDBRANCH  15  21
ENDBRANCH  11  12
ENDBRANCH   8  11
ENDBRANCH   3   9
BRANCH   5  22
ATOM     22  O   UNL     1      36.750 -21.988 -18.052  0.00  0.00    -0.471 OA
ATOM     23  C   UNL     1      37.206 -21.252 -16.918  0.00  0.00    +0.252 C 
ENDBRANCH   5  22
BRANCH   1  24
ATOM     24  C   UNL     1      34.198 -19.014 -22.138  0.00  0.00    +0.080 C 
BRANCH  24  29
ATOM     25  O   UNL     1      35.108 -16.805 -21.784  0.00  0.00    -0.428 OA
ATOM     26  O   UNL     1      34.354 -17.943 -24.998  0.00  0.00    -0.271 OA
ATOM     27  O   UNL     1      34.553 -14.591 -21.901  0.00  0.00    -0.226 OA
ATOM     28  N   UNL     1      34.331 -16.013 -23.708  0.00  0.00    -0.218 N 
ATOM     29  C   UNL     1      35.094 -17.924 -22.686  0.00  0.00    +0.250 C 
ATOM     30  C   UNL     1      34.554 -17.334 -23.958  0.00  0.00    +0.271 C 
ATOM     31  C   UNL     1      34.649 -15.690 -22.427  0.00  0.00    +0.408 C 
ATOM     32  H   UNL     1      33.985 -15.373 -24.371  0.00  0.00    +0.161 HD
ENDBRANCH  24  29
ENDBRANCH   1  24
TORSDOF 7
ENDMDL
MODEL 5
REMARK VINA RESULT:     -11.3      2.370      5.363
REMARK  Name = 56842109
REMARK  7 active torsions:
REMARK  status: ('A' for Active; 'I' for Inactive)
REMARK    1  A    between atoms: C_1  and  C_24
REMARK    2  A    between atoms: C_3  and  C_9
REMARK    3  A    between atoms: C_5  and  O_22
REMARK    4  A    between atoms: N_8  and  C_11
REMARK    5  A    between atoms: C_11  and  C_12
REMARK    6  A    between atoms: C_15  and  C_21
REMARK    7  A    between atoms: C_24  and  C_29
REMARK                            x       y       z     vdW  Elec       q    Type
REMARK                         _______ _______ _______ _____ _____    ______ ____
ROOT
ATOM      1  C   UNL     1      32.159 -23.347 -14.374  0.00  0.00    -0.018 C 
ATOM      2  C   UNL     1      33.278 -22.777 -14.982  0.00  0.00    +0.003 C 
ATOM      3  C   UNL     1      34.539 -23.344 -14.793  0.00  0.00    +0.087 C 
ATOM      4  C   UNL     1      32.301 -24.483 -13.579  0.00  0.00    -0.001 C 
ATOM      5  C   UNL     1      34.681 -24.480 -13.997  0.00  0.00    +0.143 C 
ATOM      6  C   UNL     1      33.562 -25.050 -13.389  0.00  0.00    +0.037 C 
ENDROOT
BRANCH   3   9
ATOM      7  O   UNL     1      36.684 -22.397 -14.767  0.00  0.00    -0.270 OA
ATOM      8  N   UNL     1      35.634 -22.575 -16.827  0.00  0.00    -0.297 N 
ATOM      9  C   UNL     1      35.694 -22.734 -15.438  0.00  0.00    +0.249 C 
ATOM     10  H   UNL     1      34.817 -22.865 -17.294  0.00  0.00    +0.150 HD
BRANCH   8  11
ATOM     11  C   UNL     1      36.707 -22.009 -17.611  0.00  0.00    +0.117 C 
BRANCH  11  12
ATOM     12  C   UNL     1      36.194 -21.239 -18.793  0.00  0.00    -0.003 C 
ATOM     13  C   UNL     1      34.859 -21.365 -19.180  0.00  0.00    -0.003 C 
ATOM     14  C   UNL     1      37.050 -20.398 -19.504  0.00  0.00    -0.003 C 
ATOM     15  C   UNL     1      35.237 -19.809 -20.988  0.00  0.00    +0.071 C 
ATOM     16  C   UNL     1      34.381 -20.650 -20.278  0.00  0.00    +0.004 C 
ATOM     17  C   UNL     1      36.572 -19.684 -20.602  0.00  0.00    +0.004 C 
BRANCH  15  21
ATOM     18  F   UNL     1      33.471 -19.429 -22.534  0.00  0.00    -0.166 F 
ATOM     19  F   UNL     1      34.642 -17.695 -21.940  0.00  0.00    -0.166 F 
ATOM     20  F   UNL     1      35.497 -19.172 -23.279  0.00  0.00    -0.166 F 
ATOM     21  C   UNL     1      34.725 -19.042 -22.160  0.00  0.00    +0.419 C 
ENDBRANCH  15  21
ENDBRANCH  11  12
ENDBRANCH   8  11
ENDBRANCH   3   9
BRANCH   5  22
ATOM     22  O   UNL     1      35.904 -25.050 -13.803  0.00  0.00    -0.471 OA
ATOM     23  C   UNL     1      36.269 -26.112 -14.682  0.00  0.00    +0.252 C 
ENDBRANCH   5  22
BRANCH   1  24
ATOM     24  C   UNL     1      30.796 -22.734 -14.580  0.00  0.00    +0.080 C 
BRANCH  24  29
ATOM     25  O   UNL     1      29.386 -22.318 -16.495  0.00  0.00    -0.428 OA
ATOM     26  O   UNL     1      29.085 -25.267 -14.649  0.00  0.00    -0.271 OA
ATOM     27  O   UNL     1      27.219 -21.873 -17.071  0.00  0.00    -0.226 OA
ATOM     28  N   UNL     1      27.805 -23.728 -15.827  0.00  0.00    -0.218 N 
ATOM     29  C   UNL     1      30.069 -23.346 -15.759  0.00  0.00    +0.250 C 
ATOM     30  C   UNL     1      28.957 -24.258 -15.326  0.00  0.00    +0.271 C 
ATOM     31  C   UNL     1      28.044 -22.582 -16.514  0.00  0.00    +0.408 C 
ATOM     32  H   UNL     1      26.913 -24.126 -15.707  0.00  0.00    +0.161 HD
ENDBRANCH  24  29
ENDBRANCH   1  24
TORSDOF 7
ENDMDL
MODEL 6
REMARK VINA RESULT:     -11.3      2.917      4.560
REMARK  Name = 56842109
REMARK  7 active torsions:
REMARK  status: ('A' for Active; 'I' for Inactive)
REMARK    1  A    between atoms: C_1  and  C_24
REMARK    2  A    between atoms: C_3  and  C_9
REMARK    3  A    between atoms: C_5  and  O_22
REMARK    4  A    between atoms: N_8  and  C_11
REMARK    5  A    between atoms: C_11  and  C_12
REMARK    6  A    between atoms: C_15  and  C_21
REMARK    7  A    between atoms: C_24  and  C_29
REMARK                            x       y       z     vdW  Elec       q    Type
REMARK                         _______ _______ _______ _____ _____    ______ ____
ROOT
ATOM      1  C   UNL     1      34.654 -22.976 -16.295  0.00  0.00    -0.018 C 
ATOM      2  C   UNL     1      35.573 -22.390 -17.166  0.00  0.00    +0.003 C 
ATOM      3  C   UNL     1      35.154 -21.923 -18.412  0.00  0.00    +0.087 C 
ATOM      4  C   UNL     1      33.316 -23.093 -16.669  0.00  0.00    -0.001 C 
ATOM      5  C   UNL     1      33.816 -22.041 -18.786  0.00  0.00    +0.143 C 
ATOM      6  C   UNL     1      32.896 -22.626 -17.915  0.00  0.00    +0.037 C 
ENDROOT
BRANCH   3   9
ATOM      7  O   UNL     1      37.216 -21.875 -19.525  0.00  0.00    -0.270 OA
ATOM      8  N   UNL     1      35.771 -20.102 -19.904  0.00  0.00    -0.297 N 
ATOM      9  C   UNL     1      36.130 -21.314 -19.305  0.00  0.00    +0.249 C 
ATOM     10  H   UNL     1      34.893 -19.714 -19.683  0.00  0.00    +0.150 HD
BRANCH   8  11
ATOM     11  C   UNL     1      36.620 -19.388 -20.830  0.00  0.00    +0.117 C 
BRANCH  11  12
ATOM     12  C   UNL     1      35.825 -18.617 -21.842  0.00  0.00    -0.003 C 
ATOM     13  C   UNL     1      35.796 -17.223 -21.791  0.00  0.00    -0.003 C 
ATOM     14  C   UNL     1      35.114 -19.292 -22.834  0.00  0.00    -0.003 C 
ATOM     15  C   UNL     1      34.348 -17.181 -23.724  0.00  0.00    +0.071 C 
ATOM     16  C   UNL     1      35.058 -16.504 -22.732  0.00  0.00    +0.004 C 
ATOM     17  C   UNL     1      34.376 -18.575 -23.774  0.00  0.00    +0.004 C 
BRANCH  15  21
ATOM     18  F   UNL     1      32.968 -15.304 -24.200  0.00  0.00    -0.166 F 
ATOM     19  F   UNL     1      34.309 -15.961 -25.782  0.00  0.00    -0.166 F 
ATOM     20  F   UNL     1      32.549 -17.134 -25.299  0.00  0.00    -0.166 F 
ATOM     21  C   UNL     1      33.561 -16.414 -24.731  0.00  0.00    +0.419 C 
ENDBRANCH  15  21
ENDBRANCH  11  12
ENDBRANCH   8  11
ENDBRANCH   3   9
BRANCH   5  22
ATOM     22  O   UNL     1      33.386 -21.587 -19.998  0.00  0.00    -0.471 OA
ATOM     23  C   UNL     1      32.503 -20.467 -19.994  0.00  0.00    +0.252 C 
ENDBRANCH   5  22
BRANCH   1  24
ATOM     24  C   UNL     1      35.108 -23.480 -14.947  0.00  0.00    +0.080 C 
BRANCH  24  29
ATOM     25  O   UNL     1      36.499 -25.447 -15.110  0.00  0.00    -0.428 OA
ATOM     26  O   UNL     1      37.481 -22.706 -13.182  0.00  0.00    -0.271 OA
ATOM     27  O   UNL     1      37.265 -27.216 -13.881  0.00  0.00    -0.226 OA
ATOM     28  N   UNL     1      37.576 -25.026 -13.214  0.00  0.00    -0.218 N 
ATOM     29  C   UNL     1      36.524 -24.015 -14.988  0.00  0.00    +0.250 C 
ATOM     30  C   UNL     1      37.250 -23.792 -13.691  0.00  0.00    +0.271 C 
ATOM     31  C   UNL     1      37.134 -26.010 -14.038  0.00  0.00    +0.408 C 
ATOM     32  H   UNL     1      38.070 -25.184 -12.377  0.00  0.00    +0.161 HD
ENDBRANCH  24  29
ENDBRANCH   1  24
TORSDOF 7
ENDMDL
MODEL 7
REMARK VINA RESULT:     -11.1     11.397     15.139
REMARK  Name = 56842109
REMARK  7 active torsions:
REMARK  status: ('A' for Active; 'I' for Inactive)
REMARK    1  A    between atoms: C_1  and  C_24
REMARK    2  A    between atoms: C_3  and  C_9
REMARK    3  A    between atoms: C_5  and  O_22
REMARK    4  A    between atoms: N_8  and  C_11
REMARK    5  A    between atoms: C_11  and  C_12
REMARK    6  A    between atoms: C_15  and  C_21
REMARK    7  A    between atoms: C_24  and  C_29
REMARK                            x       y       z     vdW  Elec       q    Type
REMARK                         _______ _______ _______ _____ _____    ______ ____
ROOT
ATOM      1  C   UNL     1      33.135 -12.668 -22.709  0.00  0.00    -0.018 C 
ATOM      2  C   UNL     1      32.915 -11.300 -22.874  0.00  0.00    +0.003 C 
ATOM      3  C   UNL     1      32.166 -10.596 -21.930  0.00  0.00    +0.087 C 
ATOM      4  C   UNL     1      32.607 -13.330 -21.601  0.00  0.00    -0.001 C 
ATOM      5  C   UNL     1      31.639 -11.257 -20.822  0.00  0.00    +0.143 C 
ATOM      6  C   UNL     1      31.859 -12.625 -20.658  0.00  0.00    +0.037 C 
ENDROOT
BRANCH   3   9
ATOM      7  O   UNL     1      31.043  -8.763 -22.868  0.00  0.00    -0.270 OA
ATOM      8  N   UNL     1      32.789  -8.299 -21.413  0.00  0.00    -0.297 N 
ATOM      9  C   UNL     1      31.950  -9.168 -22.121  0.00  0.00    +0.249 C 
ATOM     10  H   UNL     1      33.487  -8.690 -20.840  0.00  0.00    +0.150 HD
BRANCH   8  11
ATOM     11  C   UNL     1      32.684  -6.860 -21.479  0.00  0.00    +0.117 C 
BRANCH  11  12
ATOM     12  C   UNL     1      33.225  -6.316 -22.769  0.00  0.00    -0.003 C 
ATOM     13  C   UNL     1      32.469  -5.411 -23.516  0.00  0.00    -0.003 C 
ATOM     14  C   UNL     1      34.483  -6.714 -23.223  0.00  0.00    -0.003 C 
ATOM     15  C   UNL     1      34.228  -5.303 -25.167  0.00  0.00    +0.071 C 
ATOM     16  C   UNL     1      32.970  -4.904 -24.715  0.00  0.00    +0.004 C 
ATOM     17  C   UNL     1      34.984  -6.208 -24.421  0.00  0.00    +0.004 C 
BRANCH  15  21
ATOM     18  F   UNL     1      33.916  -4.951 -27.498  0.00  0.00    -0.166 F 
ATOM     19  F   UNL     1      35.007  -3.415 -26.413  0.00  0.00    -0.166 F 
ATOM     20  F   UNL     1      35.951  -5.323 -26.827  0.00  0.00    -0.166 F 
ATOM     21  C   UNL     1      34.766  -4.759 -26.447  0.00  0.00    +0.419 C 
ENDBRANCH  15  21
ENDBRANCH  11  12
ENDBRANCH   8  11
ENDBRANCH   3   9
BRANCH   5  22
ATOM     22  O   UNL     1      30.908 -10.586 -19.889  0.00  0.00    -0.471 OA
ATOM     23  C   UNL     1      31.553 -10.291 -18.651  0.00  0.00    +0.252 C 
ENDBRANCH   5  22
BRANCH   1  24
ATOM     24  C   UNL     1      33.945 -13.430 -23.728  0.00  0.00    +0.080 C 
BRANCH  24  29
ATOM     25  O   UNL     1      34.225 -15.646 -22.811  0.00  0.00    -0.428 OA
ATOM     26  O   UNL     1      33.634 -15.174 -26.220  0.00  0.00    -0.271 OA
ATOM     27  O   UNL     1      35.668 -17.419 -22.801  0.00  0.00    -0.226 OA
ATOM     28  N   UNL     1      34.811 -16.541 -24.758  0.00  0.00    -0.218 N 
ATOM     29  C   UNL     1      33.531 -14.884 -23.813  0.00  0.00    +0.250 C 
ATOM     30  C   UNL     1      33.971 -15.523 -25.099  0.00  0.00    +0.271 C 
ATOM     31  C   UNL     1      34.973 -16.620 -23.412  0.00  0.00    +0.408 C 
ATOM     32  H   UNL     1      35.245 -17.143 -25.405  0.00  0.00    +0.161 HD
ENDBRANCH  24  29
ENDBRANCH   1  24
TORSDOF 7
ENDMDL
MODEL 8
REMARK VINA RESULT:     -11.0      2.159      5.104
REMARK  Name = 56842109
REMARK  7 active torsions:
REMARK  status: ('A' for Active; 'I' for Inactive)
REMARK    1  A    between atoms: C_1  and  C_24
REMARK    2  A    between atoms: C_3  and  C_9
REMARK    3  A    between atoms: C_5  and  O_22
REMARK    4  A    between atoms: N_8  and  C_11
REMARK    5  A    between atoms: C_11  and  C_12
REMARK    6  A    between atoms: C_15  and  C_21
REMARK    7  A    between atoms: C_24  and  C_29
REMARK                            x       y       z     vdW  Elec       q    Type
REMARK                         _______ _______ _______ _____ _____    ______ ____
ROOT
ATOM      1  C   UNL     1      33.157 -24.101 -13.988  0.00  0.00    -0.018 C 
ATOM      2  C   UNL     1      34.195 -23.671 -14.815  0.00  0.00    +0.003 C 
ATOM      3  C   UNL     1      35.475 -23.491 -14.292  0.00  0.00    +0.087 C 
ATOM      4  C   UNL     1      33.401 -24.351 -12.638  0.00  0.00    -0.001 C 
ATOM      5  C   UNL     1      35.719 -23.741 -12.942  0.00  0.00    +0.143 C 
ATOM      6  C   UNL     1      34.682 -24.171 -12.115  0.00  0.00    +0.037 C 
ENDROOT
BRANCH   3   9
ATOM      7  O   UNL     1      37.734 -23.197 -14.850  0.00  0.00    -0.270 OA
ATOM      8  N   UNL     1      36.163 -22.464 -16.390  0.00  0.00    -0.297 N 
ATOM      9  C   UNL     1      36.545 -23.043 -15.175  0.00  0.00    +0.249 C 
ATOM     10  H   UNL     1      35.202 -22.373 -16.581  0.00  0.00    +0.150 HD
BRANCH   8  11
ATOM     11  C   UNL     1      37.105 -21.993 -17.379  0.00  0.00    +0.117 C 
BRANCH  11  12
ATOM     12  C   UNL     1      36.419 -21.344 -18.545  0.00  0.00    -0.003 C 
ATOM     13  C   UNL     1      37.116 -20.443 -19.351  0.00  0.00    -0.003 C 
ATOM     14  C   UNL     1      35.084 -21.640 -18.823  0.00  0.00    -0.003 C 
ATOM     15  C   UNL     1      35.145 -20.136 -20.713  0.00  0.00    +0.071 C 
ATOM     16  C   UNL     1      36.479 -19.839 -20.435  0.00  0.00    +0.004 C 
ATOM     17  C   UNL     1      34.448 -21.036 -19.907  0.00  0.00    +0.004 C 
BRANCH  15  21
ATOM     18  F   UNL     1      34.962 -19.913 -23.073  0.00  0.00    -0.166 F 
ATOM     19  F   UNL     1      33.122 -19.741 -21.928  0.00  0.00    -0.166 F 
ATOM     20  F   UNL     1      34.575 -18.132 -21.888  0.00  0.00    -0.166 F 
ATOM     21  C   UNL     1      34.464 -19.493 -21.874  0.00  0.00    +0.419 C 
ENDBRANCH  15  21
ENDBRANCH  11  12
ENDBRANCH   8  11
ENDBRANCH   3   9
BRANCH   5  22
ATOM     22  O   UNL     1      36.964 -23.574 -12.414  0.00  0.00    -0.471 OA
ATOM     23  C   UNL     1      37.046 -22.930 -11.143  0.00  0.00    +0.252 C 
ENDBRANCH   5  22
BRANCH   1  24
ATOM     24  C   UNL     1      31.773 -24.297 -14.554  0.00  0.00    +0.080 C 
BRANCH  24  29
ATOM     25  O   UNL     1      29.770 -22.957 -14.391  0.00  0.00    -0.428 OA
ATOM     26  O   UNL     1      31.801 -22.813 -17.227  0.00  0.00    -0.271 OA
ATOM     27  O   UNL     1      27.672 -22.742 -15.274  0.00  0.00    -0.226 OA
ATOM     28  N   UNL     1      29.571 -22.717 -16.590  0.00  0.00    -0.218 N 
ATOM     29  C   UNL     1      31.112 -22.981 -14.906  0.00  0.00    +0.250 C 
ATOM     30  C   UNL     1      30.914 -22.826 -16.388  0.00  0.00    +0.271 C 
ATOM     31  C   UNL     1      28.885 -22.798 -15.420  0.00  0.00    +0.408 C 
ATOM     32  H   UNL     1      29.150 -22.594 -17.471  0.00  0.00    +0.161 HD
ENDBRANCH  24  29
ENDBRANCH   1  24
TORSDOF 7
ENDMDL
MODEL 9
REMARK VINA RESULT:     -10.9      6.520     11.161
REMARK  Name = 56842109
REMARK  7 active torsions:
REMARK  status: ('A' for Active; 'I' for Inactive)
REMARK    1  A    between atoms: C_1  and  C_24
REMARK    2  A    between atoms: C_3  and  C_9
REMARK    3  A    between atoms: C_5  and  O_22
REMARK    4  A    between atoms: N_8  and  C_11
REMARK    5  A    between atoms: C_11  and  C_12
REMARK    6  A    between atoms: C_15  and  C_21
REMARK    7  A    between atoms: C_24  and  C_29
REMARK                            x       y       z     vdW  Elec       q    Type
REMARK                         _______ _______ _______ _____ _____    ______ ____
ROOT
ATOM      1  C   UNL     1      34.727 -16.131 -22.287  0.00  0.00    -0.018 C 
ATOM      2  C   UNL     1      35.303 -17.024 -21.383  0.00  0.00    +0.003 C 
ATOM      3  C   UNL     1      35.468 -18.364 -21.736  0.00  0.00    +0.087 C 
ATOM      4  C   UNL     1      34.316 -16.578 -23.542  0.00  0.00    -0.001 C 
ATOM      5  C   UNL     1      35.057 -18.810 -22.991  0.00  0.00    +0.143 C 
ATOM      6  C   UNL     1      34.480 -17.917 -23.894  0.00  0.00    +0.037 C 
ENDROOT
BRANCH   3   9
ATOM      7  O   UNL     1      37.145 -18.986 -20.220  0.00  0.00    -0.270 OA
ATOM      8  N   UNL     1      35.385 -20.467 -20.512  0.00  0.00    -0.297 N 
ATOM      9  C   UNL     1      36.074 -19.279 -20.778  0.00  0.00    +0.249 C 
ATOM     10  H   UNL     1      34.541 -20.633 -20.992  0.00  0.00    +0.150 HD
BRANCH   8  11
ATOM     11  C   UNL     1      35.845 -21.462 -19.571  0.00  0.00    +0.117 C 
BRANCH  11  12
ATOM     12  C   UNL     1      34.754 -21.902 -18.639  0.00  0.00    -0.003 C 
ATOM     13  C   UNL     1      33.419 -21.667 -18.968  0.00  0.00    -0.003 C 
ATOM     14  C   UNL     1      35.074 -22.544 -17.443  0.00  0.00    -0.003 C 
ATOM     15  C   UNL     1      32.725 -22.718 -16.908  0.00  0.00    +0.071 C 
ATOM     16  C   UNL     1      32.404 -22.075 -18.103  0.00  0.00    +0.004 C 
ATOM     17  C   UNL     1      34.060 -22.952 -16.577  0.00  0.00    +0.004 C 
BRANCH  15  21
ATOM     18  F   UNL     1      31.737 -22.581 -14.749  0.00  0.00    -0.166 F 
ATOM     19  F   UNL     1      30.385 -22.856 -16.430  0.00  0.00    -0.166 F 
ATOM     20  F   UNL     1      31.624 -24.504 -15.759  0.00  0.00    -0.166 F 
ATOM     21  C   UNL     1      31.640 -23.157 -15.983  0.00  0.00    +0.419 C 
ENDBRANCH  15  21
ENDBRANCH  11  12
ENDBRANCH   8  11
ENDBRANCH   3   9
BRANCH   5  22
ATOM     22  O   UNL     1      35.212 -20.115 -23.354  0.00  0.00    -0.471 OA
ATOM     23  C   UNL     1      34.881 -20.455 -24.699  0.00  0.00    +0.252 C 
ENDBRANCH   5  22
BRANCH   1  24
ATOM     24  C   UNL     1      34.550 -14.682 -21.905  0.00  0.00    +0.080 C 
BRANCH  24  29
ATOM     25  O   UNL     1      34.096 -13.169 -23.732  0.00  0.00    -0.428 OA
ATOM     26  O   UNL     1      31.991 -13.308 -20.949  0.00  0.00    -0.271 OA
ATOM     27  O   UNL     1      34.068 -10.945 -24.261  0.00  0.00    -0.226 OA
ATOM     28  N   UNL     1      32.857 -11.804 -22.492  0.00  0.00    -0.218 N 
ATOM     29  C   UNL     1      33.481 -14.002 -22.735  0.00  0.00    +0.250 C 
ATOM     30  C   UNL     1      32.670 -13.030 -21.926  0.00  0.00    +0.271 C 
ATOM     31  C   UNL     1      33.700 -11.872 -23.554  0.00  0.00    +0.408 C 
ATOM     32  H   UNL     1      32.434 -10.975 -22.172  0.00  0.00    +0.161 HD
ENDBRANCH  24  29
ENDBRANCH   1  24
TORSDOF 7
ENDMDL
