MODEL 1
REMARK VINA RESULT:     -12.5      0.000      0.000
REMARK  Name = 25145656
REMARK  4 active torsions:
REMARK  status: ('A' for Active; 'I' for Inactive)
REMARK    1  A    between atoms: C_5  and  C_22
REMARK    2  A    between atoms: C_8  and  C_11
REMARK    3  A    between atoms: C_14  and  C_19
REMARK    4  A    between atoms: C_22  and  C_24
REMARK                            x       y       z     vdW  Elec       q    Type
REMARK                         _______ _______ _______ _____ _____    ______ ____
ROOT
ATOM      1  N   UNL     1      34.149 -16.459 -23.851  0.00  0.00    -0.134 N 
ATOM      2  N   UNL     1      34.531 -17.134 -22.745  0.00  0.00    -0.168 NA
ATOM      3  N   UNL     1      33.357 -16.056 -25.884  0.00  0.00    -0.178 NA
ATOM      4  N   UNL     1      33.493 -18.350 -25.124  0.00  0.00    -0.200 NA
ATOM      5  C   UNL     1      34.195 -15.100 -24.016  0.00  0.00    +0.086 C 
ATOM      6  C   UNL     1      33.635 -17.007 -25.010  0.00  0.00    +0.114 C 
ATOM      7  C   UNL     1      33.701 -14.878 -25.277  0.00  0.00    +0.124 C 
ATOM      8  C   UNL     1      34.381 -18.422 -22.826  0.00  0.00    +0.103 C 
ATOM      9  C   UNL     1      33.850 -19.045 -24.094  0.00  0.00    +0.184 C 
ENDROOT
BRANCH   8  11
ATOM     10  F   UNL     1      33.112 -21.421 -19.228  0.00  0.00    -0.204 F 
ATOM     11  C   UNL     1      34.740 -19.287 -21.678  0.00  0.00    +0.019 C 
ATOM     12  C   UNL     1      33.742 -19.962 -20.976  0.00  0.00    +0.031 C 
ATOM     13  C   UNL     1      36.075 -19.425 -21.300  0.00  0.00    +0.002 C 
ATOM     14  C   UNL     1      35.414 -20.915 -19.516  0.00  0.00    +0.081 C 
ATOM     15  C   UNL     1      34.080 -20.776 -19.895  0.00  0.00    +0.144 C 
ATOM     16  C   UNL     1      36.412 -20.240 -20.219  0.00  0.00    +0.007 C 
BRANCH  14  19
ATOM     17  O   UNL     1      35.173 -22.837 -18.194  0.00  0.00    -0.270 OA
ATOM     18  N   UNL     1      36.818 -21.326 -17.572  0.00  0.00    -0.299 N 
ATOM     19  C   UNL     1      35.771 -21.764 -18.391  0.00  0.00    +0.248 C 
ATOM     20  C   UNL     1      37.304 -22.069 -16.431  0.00  0.00    +0.111 C 
ATOM     21  H   UNL     1      37.248 -20.466 -17.784  0.00  0.00    +0.150 HD
ENDBRANCH  14  19
ENDBRANCH   8  11
BRANCH   5  22
ATOM     22  C   UNL     1      34.706 -14.148 -22.953  0.00  0.00    +0.068 C 
BRANCH  22  24
ATOM     23  N   UNL     1      31.009 -10.105 -21.536  0.00  0.00    -0.248 NA
ATOM     24  C   UNL     1      33.736 -13.076 -22.586  0.00  0.00    -0.038 C 
ATOM     25  C   UNL     1      33.861 -11.802 -23.133  0.00  0.00    +0.050 C 
ATOM     26  C   UNL     1      32.950 -10.790 -22.790  0.00  0.00    -0.004 C 
ATOM     27  C   UNL     1      32.704 -13.342 -21.695  0.00  0.00    -0.028 C 
ATOM     28  C   UNL     1      31.898 -11.052 -21.886  0.00  0.00    +0.060 C 
ATOM     29  C   UNL     1      31.798 -12.335 -21.354  0.00  0.00    +0.071 C 
ATOM     30  C   UNL     1      33.050  -9.499 -23.327  0.00  0.00    -0.001 C 
ATOM     31  C   UNL     1      32.135  -8.520 -22.967  0.00  0.00    +0.020 C 
ATOM     32  C   UNL     1      31.142  -8.871 -22.077  0.00  0.00    +0.098 C 
ENDBRANCH  22  24
ENDBRANCH   5  22
TORSDOF 4
ENDMDL
MODEL 2
REMARK VINA RESULT:     -12.4      3.630      9.675
REMARK  Name = 25145656
REMARK  4 active torsions:
REMARK  status: ('A' for Active; 'I' for Inactive)
REMARK    1  A    between atoms: C_5  and  C_22
REMARK    2  A    between atoms: C_8  and  C_11
REMARK    3  A    between atoms: C_14  and  C_19
REMARK    4  A    between atoms: C_22  and  C_24
REMARK                            x       y       z     vdW  Elec       q    Type
REMARK                         _______ _______ _______ _____ _____    ______ ____
ROOT
ATOM      1  N   UNL     1      34.288 -15.726 -23.715  0.00  0.00    -0.134 N 
ATOM      2  N   UNL     1      34.049 -14.554 -23.087  0.00  0.00    -0.168 NA
ATOM      3  N   UNL     1      34.335 -17.272 -25.305  0.00  0.00    -0.178 NA
ATOM      4  N   UNL     1      33.264 -15.154 -25.777  0.00  0.00    -0.200 NA
ATOM      5  C   UNL     1      34.935 -16.805 -23.177  0.00  0.00    +0.086 C 
ATOM      6  C   UNL     1      33.936 -16.048 -25.011  0.00  0.00    +0.114 C 
ATOM      7  C   UNL     1      34.952 -17.745 -24.176  0.00  0.00    +0.124 C 
ATOM      8  C   UNL     1      33.427 -13.675 -23.813  0.00  0.00    +0.103 C 
ATOM      9  C   UNL     1      33.005 -14.016 -25.222  0.00  0.00    +0.184 C 
ENDROOT
BRANCH   8  11
ATOM     10  F   UNL     1      31.218 -10.859 -20.534  0.00  0.00    -0.204 F 
ATOM     11  C   UNL     1      33.117 -12.336 -23.259  0.00  0.00    +0.019 C 
ATOM     12  C   UNL     1      32.298 -12.219 -22.136  0.00  0.00    +0.031 C 
ATOM     13  C   UNL     1      33.646 -11.193 -23.859  0.00  0.00    +0.002 C 
ATOM     14  C   UNL     1      32.534  -9.816 -22.214  0.00  0.00    +0.081 C 
ATOM     15  C   UNL     1      32.007 -10.959 -21.614  0.00  0.00    +0.144 C 
ATOM     16  C   UNL     1      33.354  -9.934 -23.336  0.00  0.00    +0.007 C 
BRANCH  14  19
ATOM     17  O   UNL     1      32.783  -8.107 -20.628  0.00  0.00    -0.270 OA
ATOM     18  N   UNL     1      31.330  -7.709 -22.390  0.00  0.00    -0.299 N 
ATOM     19  C   UNL     1      32.234  -8.501 -21.672  0.00  0.00    +0.248 C 
ATOM     20  C   UNL     1      30.949  -6.372 -21.995  0.00  0.00    +0.111 C 
ATOM     21  H   UNL     1      30.932  -8.083 -23.209  0.00  0.00    +0.150 HD
ENDBRANCH  14  19
ENDBRANCH   8  11
BRANCH   5  22
ATOM     22  C   UNL     1      35.475 -16.834 -21.761  0.00  0.00    +0.068 C 
BRANCH  22  24
ATOM     23  N   UNL     1      35.609 -21.996 -19.447  0.00  0.00    -0.248 NA
ATOM     24  C   UNL     1      35.500 -18.194 -21.151  0.00  0.00    -0.038 C 
ATOM     25  C   UNL     1      34.309 -18.841 -20.832  0.00  0.00    +0.050 C 
ATOM     26  C   UNL     1      34.329 -20.123 -20.258  0.00  0.00    -0.004 C 
ATOM     27  C   UNL     1      36.712 -18.825 -20.897  0.00  0.00    -0.028 C 
ATOM     28  C   UNL     1      35.555 -20.769 -19.996  0.00  0.00    +0.060 C 
ATOM     29  C   UNL     1      36.731 -20.099 -20.325  0.00  0.00    +0.071 C 
ATOM     30  C   UNL     1      33.145 -20.797 -19.928  0.00  0.00    -0.001 C 
ATOM     31  C   UNL     1      33.198 -22.063 -19.361  0.00  0.00    +0.020 C 
ATOM     32  C   UNL     1      34.444 -22.613 -19.143  0.00  0.00    +0.098 C 
ENDBRANCH  22  24
ENDBRANCH   5  22
TORSDOF 4
ENDMDL
MODEL 3
REMARK VINA RESULT:     -12.3      3.654      9.593
REMARK  Name = 25145656
REMARK  4 active torsions:
REMARK  status: ('A' for Active; 'I' for Inactive)
REMARK    1  A    between atoms: C_5  and  C_22
REMARK    2  A    between atoms: C_8  and  C_11
REMARK    3  A    between atoms: C_14  and  C_19
REMARK    4  A    between atoms: C_22  and  C_24
REMARK                            x       y       z     vdW  Elec       q    Type
REMARK                         _______ _______ _______ _____ _____    ______ ____
ROOT
ATOM      1  N   UNL     1      34.216 -16.739 -23.866  0.00  0.00    -0.134 N 
ATOM      2  N   UNL     1      34.244 -15.450 -23.462  0.00  0.00    -0.168 NA
ATOM      3  N   UNL     1      33.781 -18.535 -25.094  0.00  0.00    -0.178 NA
ATOM      4  N   UNL     1      32.922 -16.393 -25.824  0.00  0.00    -0.200 NA
ATOM      5  C   UNL     1      34.805 -17.793 -23.222  0.00  0.00    +0.086 C 
ATOM      6  C   UNL     1      33.600 -17.230 -25.001  0.00  0.00    +0.114 C 
ATOM      7  C   UNL     1      34.524 -18.889 -23.999  0.00  0.00    +0.124 C 
ATOM      8  C   UNL     1      33.619 -14.629 -24.251  0.00  0.00    +0.103 C 
ATOM      9  C   UNL     1      32.913 -15.147 -25.480  0.00  0.00    +0.184 C 
ENDROOT
BRANCH   8  11
ATOM     10  F   UNL     1      32.255 -10.936 -21.412  0.00  0.00    -0.204 F 
ATOM     11  C   UNL     1      33.586 -13.180 -23.942  0.00  0.00    +0.019 C 
ATOM     12  C   UNL     1      32.924 -12.726 -22.802  0.00  0.00    +0.031 C 
ATOM     13  C   UNL     1      34.218 -12.272 -24.791  0.00  0.00    +0.002 C 
ATOM     14  C   UNL     1      33.525 -10.453 -23.360  0.00  0.00    +0.081 C 
ATOM     15  C   UNL     1      32.894 -11.362 -22.511  0.00  0.00    +0.144 C 
ATOM     16  C   UNL     1      34.187 -10.908 -24.500  0.00  0.00    +0.007 C 
BRANCH  14  19
ATOM     17  O   UNL     1      32.501  -8.518 -22.518  0.00  0.00    -0.270 OA
ATOM     18  N   UNL     1      34.638  -8.290 -23.386  0.00  0.00    -0.299 N 
ATOM     19  C   UNL     1      33.497  -9.030 -23.060  0.00  0.00    +0.248 C 
ATOM     20  C   UNL     1      34.773  -6.873 -23.129  0.00  0.00    +0.111 C 
ATOM     21  H   UNL     1      35.391  -8.758 -23.814  0.00  0.00    +0.150 HD
ENDBRANCH  14  19
ENDBRANCH   8  11
BRANCH   5  22
ATOM     22  C   UNL     1      35.581 -17.651 -21.927  0.00  0.00    +0.068 C 
BRANCH  22  24
ATOM     23  N   UNL     1      35.479 -22.263 -18.649  0.00  0.00    -0.248 NA
ATOM     24  C   UNL     1      35.544 -18.867 -21.064  0.00  0.00    -0.038 C 
ATOM     25  C   UNL     1      34.325 -19.440 -20.715  0.00  0.00    +0.050 C 
ATOM     26  C   UNL     1      34.285 -20.585 -19.902  0.00  0.00    -0.004 C 
ATOM     27  C   UNL     1      36.726 -19.434 -20.603  0.00  0.00    -0.028 C 
ATOM     28  C   UNL     1      35.481 -21.167 -19.430  0.00  0.00    +0.060 C 
ATOM     29  C   UNL     1      36.686 -20.572 -19.795  0.00  0.00    +0.071 C 
ATOM     30  C   UNL     1      33.072 -21.184 -19.536  0.00  0.00    -0.001 C 
ATOM     31  C   UNL     1      33.066 -22.314 -18.730  0.00  0.00    +0.020 C 
ATOM     32  C   UNL     1      34.286 -22.810 -18.318  0.00  0.00    +0.098 C 
ENDBRANCH  22  24
ENDBRANCH   5  22
TORSDOF 4
ENDMDL
MODEL 4
REMARK VINA RESULT:     -12.1      1.202      1.528
REMARK  Name = 25145656
REMARK  4 active torsions:
REMARK  status: ('A' for Active; 'I' for Inactive)
REMARK    1  A    between atoms: C_5  and  C_22
REMARK    2  A    between atoms: C_8  and  C_11
REMARK    3  A    between atoms: C_14  and  C_19
REMARK    4  A    between atoms: C_22  and  C_24
REMARK                            x       y       z     vdW  Elec       q    Type
REMARK                         _______ _______ _______ _____ _____    ______ ____
ROOT
ATOM      1  N   UNL     1      34.429 -17.000 -23.188  0.00  0.00    -0.134 N 
ATOM      2  N   UNL     1      34.518 -17.739 -22.060  0.00  0.00    -0.168 NA
ATOM      3  N   UNL     1      34.152 -16.476 -25.326  0.00  0.00    -0.178 NA
ATOM      4  N   UNL     1      34.031 -18.805 -24.676  0.00  0.00    -0.200 NA
ATOM      5  C   UNL     1      34.556 -15.640 -23.266  0.00  0.00    +0.086 C 
ATOM      6  C   UNL     1      34.186 -17.475 -24.462  0.00  0.00    +0.114 C 
ATOM      7  C   UNL     1      34.381 -15.341 -24.594  0.00  0.00    +0.124 C 
ATOM      8  C   UNL     1      34.349 -19.014 -22.241  0.00  0.00    +0.103 C 
ATOM      9  C   UNL     1      34.112 -19.559 -23.629  0.00  0.00    +0.184 C 
ENDROOT
BRANCH   8  11
ATOM     10  F   UNL     1      36.866 -21.666 -19.050  0.00  0.00    -0.204 F 
ATOM     11  C   UNL     1      34.399 -19.943 -21.088  0.00  0.00    +0.019 C 
ATOM     12  C   UNL     1      35.630 -20.379 -20.598  0.00  0.00    +0.031 C 
ATOM     13  C   UNL     1      33.216 -20.379 -20.492  0.00  0.00    +0.002 C 
ATOM     14  C   UNL     1      34.495 -21.691 -18.916  0.00  0.00    +0.081 C 
ATOM     15  C   UNL     1      35.677 -21.253 -19.512  0.00  0.00    +0.144 C 
ATOM     16  C   UNL     1      33.264 -21.253 -19.406  0.00  0.00    +0.007 C 
BRANCH  14  19
ATOM     17  O   UNL     1      33.799 -23.599 -17.745  0.00  0.00    -0.270 OA
ATOM     18  N   UNL     1      35.460 -22.309 -16.770  0.00  0.00    -0.299 N 
ATOM     19  C   UNL     1      34.539 -22.601 -17.783  0.00  0.00    +0.248 C 
ATOM     20  C   UNL     1      35.641 -23.129 -15.594  0.00  0.00    +0.111 C 
ATOM     21  H   UNL     1      36.016 -21.502 -16.863  0.00  0.00    +0.150 HD
ENDBRANCH  14  19
ENDBRANCH   8  11
BRANCH   5  22
ATOM     22  C   UNL     1      34.832 -14.757 -22.065  0.00  0.00    +0.068 C 
BRANCH  22  24
ATOM     23  N   UNL     1      31.083 -10.574 -21.376  0.00  0.00    -0.248 NA
ATOM     24  C   UNL     1      33.849 -13.649 -21.890  0.00  0.00    -0.038 C 
ATOM     25  C   UNL     1      33.985 -12.471 -22.619  0.00  0.00    +0.050 C 
ATOM     26  C   UNL     1      33.062 -11.425 -22.458  0.00  0.00    -0.004 C 
ATOM     27  C   UNL     1      32.792 -13.786 -20.999  0.00  0.00    -0.028 C 
ATOM     28  C   UNL     1      31.985 -11.557 -21.555  0.00  0.00    +0.060 C 
ATOM     29  C   UNL     1      31.874 -12.746 -20.839  0.00  0.00    +0.071 C 
ATOM     30  C   UNL     1      33.174 -10.229 -23.179  0.00  0.00    -0.001 C 
ATOM     31  C   UNL     1      32.245  -9.214 -22.997  0.00  0.00    +0.020 C 
ATOM     32  C   UNL     1      31.228  -9.435 -22.092  0.00  0.00    +0.098 C 
ENDBRANCH  22  24
ENDBRANCH   5  22
TORSDOF 4
ENDMDL
MODEL 5
REMARK VINA RESULT:     -11.5      5.332     11.582
REMARK  Name = 25145656
REMARK  4 active torsions:
REMARK  status: ('A' for Active; 'I' for Inactive)
REMARK    1  A    between atoms: C_5  and  C_22
REMARK    2  A    between atoms: C_8  and  C_11
REMARK    3  A    between atoms: C_14  and  C_19
REMARK    4  A    between atoms: C_22  and  C_24
REMARK                            x       y       z     vdW  Elec       q    Type
REMARK                         _______ _______ _______ _____ _____    ______ ____
ROOT
ATOM      1  N   UNL     1      32.515 -11.591 -21.834  0.00  0.00    -0.134 N 
ATOM      2  N   UNL     1      32.754 -10.480 -22.564  0.00  0.00    -0.168 NA
ATOM      3  N   UNL     1      31.749 -12.904 -20.218  0.00  0.00    -0.178 NA
ATOM      4  N   UNL     1      31.269 -10.534 -20.114  0.00  0.00    -0.200 NA
ATOM      5  C   UNL     1      32.937 -12.856 -22.139  0.00  0.00    +0.086 C 
ATOM      6  C   UNL     1      31.796 -11.659 -20.656  0.00  0.00    +0.114 C 
ATOM      7  C   UNL     1      32.452 -13.648 -21.129  0.00  0.00    +0.124 C 
ATOM      8  C   UNL     1      32.237  -9.394 -22.072  0.00  0.00    +0.103 C 
ATOM      9  C   UNL     1      31.473  -9.440 -20.771  0.00  0.00    +0.184 C 
ENDROOT
BRANCH   8  11
ATOM     10  F   UNL     1      35.070  -5.933 -23.955  0.00  0.00    -0.204 F 
ATOM     11  C   UNL     1      32.402  -8.104 -22.781  0.00  0.00    +0.019 C 
ATOM     12  C   UNL     1      33.680  -7.612 -23.042  0.00  0.00    +0.031 C 
ATOM     13  C   UNL     1      31.279  -7.382 -23.187  0.00  0.00    +0.002 C 
ATOM     14  C   UNL     1      32.714  -5.674 -24.115  0.00  0.00    +0.081 C 
ATOM     15  C   UNL     1      33.836  -6.397 -23.709  0.00  0.00    +0.144 C 
ATOM     16  C   UNL     1      31.436  -6.167 -23.853  0.00  0.00    +0.007 C 
BRANCH  14  19
ATOM     17  O   UNL     1      33.637  -4.314 -25.788  0.00  0.00    -0.270 OA
ATOM     18  N   UNL     1      32.114  -3.327 -24.345  0.00  0.00    -0.299 N 
ATOM     19  C   UNL     1      32.873  -4.408 -24.811  0.00  0.00    +0.248 C 
ATOM     20  C   UNL     1      32.143  -2.013 -24.946  0.00  0.00    +0.111 C 
ATOM     21  H   UNL     1      31.529  -3.470 -23.566  0.00  0.00    +0.150 HD
ENDBRANCH  14  19
ENDBRANCH   8  11
BRANCH   5  22
ATOM     22  C   UNL     1      33.762 -13.187 -23.367  0.00  0.00    +0.068 C 
BRANCH  22  24
ATOM     23  N   UNL     1      34.287 -18.731 -24.373  0.00  0.00    -0.248 NA
ATOM     24  C   UNL     1      33.906 -14.649 -23.624  0.00  0.00    -0.038 C 
ATOM     25  C   UNL     1      34.608 -15.451 -22.729  0.00  0.00    +0.050 C 
ATOM     26  C   UNL     1      34.746 -16.828 -22.966  0.00  0.00    -0.004 C 
ATOM     27  C   UNL     1      33.339 -15.219 -24.757  0.00  0.00    -0.028 C 
ATOM     28  C   UNL     1      34.174 -17.415 -24.115  0.00  0.00    +0.060 C 
ATOM     29  C   UNL     1      33.476 -16.589 -24.993  0.00  0.00    +0.071 C 
ATOM     30  C   UNL     1      35.447 -17.659 -22.082  0.00  0.00    -0.001 C 
ATOM     31  C   UNL     1      35.565 -19.017 -22.346  0.00  0.00    +0.020 C 
ATOM     32  C   UNL     1      34.972 -19.498 -23.494  0.00  0.00    +0.098 C 
ENDBRANCH  22  24
ENDBRANCH   5  22
TORSDOF 4
ENDMDL
MODEL 6
REMARK VINA RESULT:     -11.5      6.140     12.079
REMARK  Name = 25145656
REMARK  4 active torsions:
REMARK  status: ('A' for Active; 'I' for Inactive)
REMARK    1  A    between atoms: C_5  and  C_22
REMARK    2  A    between atoms: C_8  and  C_11
REMARK    3  A    between atoms: C_14  and  C_19
REMARK    4  A    between atoms: C_22  and  C_24
REMARK                            x       y       z     vdW  Elec       q    Type
REMARK                         _______ _______ _______ _____ _____    ______ ____
ROOT
ATOM      1  N   UNL     1      32.193  -9.226 -20.899  0.00  0.00    -0.134 N 
ATOM      2  N   UNL     1      32.546  -8.631 -22.059  0.00  0.00    -0.168 NA
ATOM      3  N   UNL     1      31.813  -9.521 -18.733  0.00  0.00    -0.178 NA
ATOM      4  N   UNL     1      32.709  -7.399 -19.476  0.00  0.00    -0.200 NA
ATOM      5  C   UNL     1      31.705 -10.498 -20.768  0.00  0.00    +0.086 C 
ATOM      6  C   UNL     1      32.246  -8.663 -19.639  0.00  0.00    +0.114 C 
ATOM      7  C   UNL     1      31.479 -10.656 -19.424  0.00  0.00    +0.124 C 
ATOM      8  C   UNL     1      32.971  -7.410 -21.927  0.00  0.00    +0.103 C 
ATOM      9  C   UNL     1      33.067  -6.785 -20.556  0.00  0.00    +0.184 C 
ENDROOT
BRANCH   8  11
ATOM     10  F   UNL     1      32.042  -4.028 -25.281  0.00  0.00    -0.204 F 
ATOM     11  C   UNL     1      33.374  -6.629 -23.119  0.00  0.00    +0.019 C 
ATOM     12  C   UNL     1      32.506  -5.677 -23.653  0.00  0.00    +0.031 C 
ATOM     13  C   UNL     1      34.620  -6.844 -23.706  0.00  0.00    +0.002 C 
ATOM     14  C   UNL     1      34.131  -5.156 -25.364  0.00  0.00    +0.081 C 
ATOM     15  C   UNL     1      32.885  -4.941 -24.776  0.00  0.00    +0.144 C 
ATOM     16  C   UNL     1      34.998  -6.108 -24.829  0.00  0.00    +0.007 C 
BRANCH  14  19
ATOM     17  O   UNL     1      35.395  -3.502 -26.442  0.00  0.00    -0.270 OA
ATOM     18  N   UNL     1      33.916  -4.718 -27.748  0.00  0.00    -0.299 N 
ATOM     19  C   UNL     1      34.530  -4.390 -26.534  0.00  0.00    +0.248 C 
ATOM     20  C   UNL     1      34.222  -4.066 -29.001  0.00  0.00    +0.111 C 
ATOM     21  H   UNL     1      33.238  -5.432 -27.749  0.00  0.00    +0.150 HD
ENDBRANCH  14  19
ENDBRANCH   8  11
BRANCH   5  22
ATOM     22  C   UNL     1      31.503 -11.439 -21.939  0.00  0.00    +0.068 C 
BRANCH  22  24
ATOM     23  N   UNL     1      34.895 -15.967 -21.817  0.00  0.00    -0.248 NA
ATOM     24  C   UNL     1      32.396 -12.633 -21.917  0.00  0.00    -0.038 C 
ATOM     25  C   UNL     1      32.745 -13.269 -23.105  0.00  0.00    +0.050 C 
ATOM     26  C   UNL     1      33.586 -14.393 -23.089  0.00  0.00    -0.004 C 
ATOM     27  C   UNL     1      32.886 -13.118 -20.710  0.00  0.00    -0.028 C 
ATOM     28  C   UNL     1      34.087 -14.892 -21.868  0.00  0.00    +0.060 C 
ATOM     29  C   UNL     1      33.723 -14.236 -20.695  0.00  0.00    +0.071 C 
ATOM     30  C   UNL     1      33.954 -15.052 -24.270  0.00  0.00    -0.001 C 
ATOM     31  C   UNL     1      34.787 -16.161 -24.220  0.00  0.00    +0.020 C 
ATOM     32  C   UNL     1      35.226 -16.574 -22.980  0.00  0.00    +0.098 C 
ENDBRANCH  22  24
ENDBRANCH   5  22
TORSDOF 4
ENDMDL
MODEL 7
REMARK VINA RESULT:     -11.0      4.147     10.257
REMARK  Name = 25145656
REMARK  4 active torsions:
REMARK  status: ('A' for Active; 'I' for Inactive)
REMARK    1  A    between atoms: C_5  and  C_22
REMARK    2  A    between atoms: C_8  and  C_11
REMARK    3  A    between atoms: C_14  and  C_19
REMARK    4  A    between atoms: C_22  and  C_24
REMARK                            x       y       z     vdW  Elec       q    Type
REMARK                         _______ _______ _______ _____ _____    ______ ____
ROOT
ATOM      1  N   UNL     1      35.482 -20.545 -19.744  0.00  0.00    -0.134 N 
ATOM      2  N   UNL     1      34.825 -19.876 -20.717  0.00  0.00    -0.168 NA
ATOM      3  N   UNL     1      37.114 -21.182 -18.382  0.00  0.00    -0.178 NA
ATOM      4  N   UNL     1      37.581 -19.479 -20.038  0.00  0.00    -0.200 NA
ATOM      5  C   UNL     1      34.946 -21.509 -18.933  0.00  0.00    +0.086 C 
ATOM      6  C   UNL     1      36.803 -20.374 -19.381  0.00  0.00    +0.114 C 
ATOM      7  C   UNL     1      35.972 -21.885 -18.102  0.00  0.00    +0.124 C 
ATOM      8  C   UNL     1      35.548 -18.998 -21.344  0.00  0.00    +0.103 C 
ATOM      9  C   UNL     1      37.002 -18.816 -20.985  0.00  0.00    +0.184 C 
ENDROOT
BRANCH   8  11
ATOM     10  F   UNL     1      34.548 -14.675 -23.311  0.00  0.00    -0.204 F 
ATOM     11  C   UNL     1      34.951 -18.176 -22.423  0.00  0.00    +0.019 C 
ATOM     12  C   UNL     1      35.029 -16.785 -22.363  0.00  0.00    +0.031 C 
ATOM     13  C   UNL     1      34.312 -18.794 -23.498  0.00  0.00    +0.002 C 
ATOM     14  C   UNL     1      33.828 -16.628 -24.454  0.00  0.00    +0.081 C 
ATOM     15  C   UNL     1      34.467 -16.011 -23.379  0.00  0.00    +0.144 C 
ATOM     16  C   UNL     1      33.751 -18.020 -24.513  0.00  0.00    +0.007 C 
BRANCH  14  19
ATOM     17  O   UNL     1      32.451 -16.334 -26.329  0.00  0.00    -0.270 OA
ATOM     18  N   UNL     1      33.592 -14.471 -25.554  0.00  0.00    -0.299 N 
ATOM     19  C   UNL     1      33.242 -15.825 -25.515  0.00  0.00    +0.248 C 
ATOM     20  C   UNL     1      33.076 -13.540 -26.531  0.00  0.00    +0.111 C 
ATOM     21  H   UNL     1      34.225 -14.133 -24.879  0.00  0.00    +0.150 HD
ENDBRANCH  14  19
ENDBRANCH   8  11
BRANCH   5  22
ATOM     22  C   UNL     1      33.508 -21.976 -19.030  0.00  0.00    +0.068 C 
BRANCH  22  24
ATOM     23  N   UNL     1      31.480 -24.082 -14.185  0.00  0.00    -0.248 NA
ATOM     24  C   UNL     1      32.964 -22.528 -17.756  0.00  0.00    -0.038 C 
ATOM     25  C   UNL     1      31.607 -22.419 -17.469  0.00  0.00    +0.050 C 
ATOM     26  C   UNL     1      31.090 -22.938 -16.270  0.00  0.00    -0.004 C 
ATOM     27  C   UNL     1      33.809 -23.154 -16.848  0.00  0.00    -0.028 C 
ATOM     28  C   UNL     1      31.942 -23.575 -15.343  0.00  0.00    +0.060 C 
ATOM     29  C   UNL     1      33.295 -23.669 -15.656  0.00  0.00    +0.071 C 
ATOM     30  C   UNL     1      29.728 -22.843 -15.956  0.00  0.00    -0.001 C 
ATOM     31  C   UNL     1      29.248 -23.365 -14.762  0.00  0.00    +0.020 C 
ATOM     32  C   UNL     1      30.158 -23.969 -13.920  0.00  0.00    +0.098 C 
ENDBRANCH  22  24
ENDBRANCH   5  22
TORSDOF 4
ENDMDL
MODEL 8
REMARK VINA RESULT:     -11.0      4.461      7.910
REMARK  Name = 25145656
REMARK  4 active torsions:
REMARK  status: ('A' for Active; 'I' for Inactive)
REMARK    1  A    between atoms: C_5  and  C_22
REMARK    2  A    between atoms: C_8  and  C_11
REMARK    3  A    between atoms: C_14  and  C_19
REMARK    4  A    between atoms: C_22  and  C_24
REMARK                            x       y       z     vdW  Elec       q    Type
REMARK                         _______ _______ _______ _____ _____    ______ ____
ROOT
ATOM      1  N   UNL     1      34.042 -22.048 -18.213  0.00  0.00    -0.134 N 
ATOM      2  N   UNL     1      35.089 -22.609 -17.568  0.00  0.00    -0.168 NA
ATOM      3  N   UNL     1      31.958 -21.462 -18.699  0.00  0.00    -0.178 NA
ATOM      4  N   UNL     1      32.349 -22.872 -16.770  0.00  0.00    -0.200 NA
ATOM      5  C   UNL     1      34.117 -21.273 -19.338  0.00  0.00    +0.086 C 
ATOM      6  C   UNL     1      32.712 -22.143 -17.854  0.00  0.00    +0.114 C 
ATOM      7  C   UNL     1      32.820 -20.924 -19.618  0.00  0.00    +0.124 C 
ATOM      8  C   UNL     1      34.763 -23.293 -16.513  0.00  0.00    +0.103 C 
ATOM      9  C   UNL     1      33.313 -23.435 -16.119  0.00  0.00    +0.184 C 
ENDROOT
BRANCH   8  11
ATOM     10  F   UNL     1      36.445 -27.135 -14.071  0.00  0.00    -0.204 F 
ATOM     11  C   UNL     1      35.812 -23.946 -15.696  0.00  0.00    +0.019 C 
ATOM     12  C   UNL     1      35.637 -25.258 -15.257  0.00  0.00    +0.031 C 
ATOM     13  C   UNL     1      36.975 -23.250 -15.368  0.00  0.00    +0.002 C 
ATOM     14  C   UNL     1      37.787 -25.177 -14.159  0.00  0.00    +0.081 C 
ATOM     15  C   UNL     1      36.625 -25.873 -14.488  0.00  0.00    +0.144 C 
ATOM     16  C   UNL     1      37.962 -23.865 -14.599  0.00  0.00    +0.007 C 
BRANCH  14  19
ATOM     17  O   UNL     1      38.662 -25.979 -12.136  0.00  0.00    -0.270 OA
ATOM     18  N   UNL     1      39.969 -26.248 -14.031  0.00  0.00    -0.299 N 
ATOM     19  C   UNL     1      38.820 -25.815 -13.358  0.00  0.00    +0.248 C 
ATOM     20  C   UNL     1      41.071 -26.919 -13.381  0.00  0.00    +0.111 C 
ATOM     21  H   UNL     1      40.030 -26.086 -15.001  0.00  0.00    +0.150 HD
ENDBRANCH  14  19
ENDBRANCH   8  11
BRANCH   5  22
ATOM     22  C   UNL     1      35.420 -20.940 -20.037  0.00  0.00    +0.068 C 
BRANCH  22  24
ATOM     23  N   UNL     1      35.145 -16.386 -23.385  0.00  0.00    -0.248 NA
ATOM     24  C   UNL     1      35.342 -19.745 -20.926  0.00  0.00    -0.038 C 
ATOM     25  C   UNL     1      34.659 -19.817 -22.136  0.00  0.00    +0.050 C 
ATOM     26  C   UNL     1      34.582 -18.694 -22.976  0.00  0.00    -0.004 C 
ATOM     27  C   UNL     1      35.951 -18.554 -20.551  0.00  0.00    -0.028 C 
ATOM     28  C   UNL     1      35.198 -17.480 -22.603  0.00  0.00    +0.060 C 
ATOM     29  C   UNL     1      35.875 -17.437 -21.387  0.00  0.00    +0.071 C 
ATOM     30  C   UNL     1      33.900 -18.737 -24.200  0.00  0.00    -0.001 C 
ATOM     31  C   UNL     1      33.843 -17.610 -25.008  0.00  0.00    +0.020 C 
ATOM     32  C   UNL     1      34.476 -16.470 -24.558  0.00  0.00    +0.098 C 
ENDBRANCH  22  24
ENDBRANCH   5  22
TORSDOF 4
ENDMDL
MODEL 9
REMARK VINA RESULT:     -10.9      3.321      9.435
REMARK  Name = 25145656
REMARK  4 active torsions:
REMARK  status: ('A' for Active; 'I' for Inactive)
REMARK    1  A    between atoms: C_5  and  C_22
REMARK    2  A    between atoms: C_8  and  C_11
REMARK    3  A    between atoms: C_14  and  C_19
REMARK    4  A    between atoms: C_22  and  C_24
REMARK                            x       y       z     vdW  Elec       q    Type
REMARK                         _______ _______ _______ _____ _____    ______ ____
ROOT
ATOM      1  N   UNL     1      34.320 -16.741 -23.688  0.00  0.00    -0.134 N 
ATOM      2  N   UNL     1      34.042 -15.590 -23.037  0.00  0.00    -0.168 NA
ATOM      3  N   UNL     1      34.491 -18.225 -25.328  0.00  0.00    -0.178 NA
ATOM      4  N   UNL     1      33.500 -16.070 -25.810  0.00  0.00    -0.200 NA
ATOM      5  C   UNL     1      34.899 -17.853 -23.137  0.00  0.00    +0.086 C 
ATOM      6  C   UNL     1      34.084 -17.006 -25.023  0.00  0.00    +0.114 C 
ATOM      7  C   UNL     1      34.994 -18.753 -24.168  0.00  0.00    +0.124 C 
ATOM      8  C   UNL     1      33.502 -14.672 -23.780  0.00  0.00    +0.103 C 
ATOM      9  C   UNL     1      33.207 -14.950 -25.234  0.00  0.00    +0.184 C 
ENDROOT
BRANCH   8  11
ATOM     10  F   UNL     1      31.134 -11.958 -20.528  0.00  0.00    -0.204 F 
ATOM     11  C   UNL     1      33.163 -13.351 -23.203  0.00  0.00    +0.019 C 
ATOM     12  C   UNL     1      32.292 -13.269 -22.117  0.00  0.00    +0.031 C 
ATOM     13  C   UNL     1      33.715 -12.190 -23.744  0.00  0.00    +0.002 C 
ATOM     14  C   UNL     1      32.523 -10.864 -22.114  0.00  0.00    +0.081 C 
ATOM     15  C   UNL     1      31.972 -12.025 -21.572  0.00  0.00    +0.144 C 
ATOM     16  C   UNL     1      33.395 -10.947 -23.200  0.00  0.00    +0.007 C 
BRANCH  14  19
ATOM     17  O   UNL     1      32.349  -9.347 -20.334  0.00  0.00    -0.270 OA
ATOM     18  N   UNL     1      31.725  -8.588 -22.434  0.00  0.00    -0.299 N 
ATOM     19  C   UNL     1      32.194  -9.565 -21.549  0.00  0.00    +0.248 C 
ATOM     20  C   UNL     1      31.379  -7.244 -22.030  0.00  0.00    +0.111 C 
ATOM     21  H   UNL     1      31.625  -8.828 -23.384  0.00  0.00    +0.150 HD
ENDBRANCH  14  19
ENDBRANCH   8  11
BRANCH   5  22
ATOM     22  C   UNL     1      35.305 -17.947 -21.680  0.00  0.00    +0.068 C 
BRANCH  22  24
ATOM     23  N   UNL     1      32.909 -22.273 -18.931  0.00  0.00    -0.248 NA
ATOM     24  C   UNL     1      34.683 -19.089 -20.951  0.00  0.00    -0.038 C 
ATOM     25  C   UNL     1      35.450 -19.879 -20.100  0.00  0.00    +0.050 C 
ATOM     26  C   UNL     1      34.868 -20.955 -19.411  0.00  0.00    -0.004 C 
ATOM     27  C   UNL     1      33.333 -19.372 -21.117  0.00  0.00    -0.028 C 
ATOM     28  C   UNL     1      33.498 -21.249 -19.575  0.00  0.00    +0.060 C 
ATOM     29  C   UNL     1      32.754 -20.443 -20.433  0.00  0.00    +0.071 C 
ATOM     30  C   UNL     1      35.617 -21.765 -18.547  0.00  0.00    -0.001 C 
ATOM     31  C   UNL     1      35.012 -22.823 -17.882  0.00  0.00    +0.020 C 
ATOM     32  C   UNL     1      33.667 -23.032 -18.106  0.00  0.00    +0.098 C 
ENDBRANCH  22  24
ENDBRANCH   5  22
TORSDOF 4
ENDMDL
