MODEL 1
REMARK VINA RESULT:     -11.6      0.000      0.000
REMARK  Name = 115368
REMARK  5 active torsions:
REMARK  status: ('A' for Active; 'I' for Inactive)
REMARK    1  A    between atoms: N_2  and  C_17
REMARK    2  A    between atoms: C_17  and  C_18
REMARK    3  A    between atoms: C_18  and  C_19
REMARK    4  A    between atoms: C_19  and  C_20
REMARK    5  A    between atoms: C_20  and  N_23
REMARK                            x       y       z     vdW  Elec       q    Type
REMARK                         _______ _______ _______ _____ _____    ______ ____
ROOT
ATOM      1  S   UNL     1      33.628 -15.774 -25.497  0.00  0.00    +0.014 S 
ATOM      2  N   UNL     1      35.910 -20.039 -20.978  0.00  0.00    +0.389 N 
ATOM      3  N   UNL     1      35.047 -18.044 -22.834  0.00  0.00    -0.297 N 
ATOM      4  N   UNL     1      34.209 -17.208 -24.905  0.00  0.00    -0.194 NA
ATOM      5  C   UNL     1      36.360 -18.649 -20.844  0.00  0.00    -0.055 C 
ATOM      6  C   UNL     1      34.556 -20.081 -21.548  0.00  0.00    -0.055 C 
ATOM      7  C   UNL     1      36.364 -17.933 -22.198  0.00  0.00    +0.069 C 
ATOM      8  C   UNL     1      34.530 -19.415 -22.924  0.00  0.00    +0.069 C 
ATOM      9  C   UNL     1      34.532 -17.039 -23.622  0.00  0.00    +0.140 A 
ATOM     10  C   UNL     1      34.322 -15.730 -23.062  0.00  0.00    +0.040 A 
ATOM     11  C   UNL     1      33.796 -14.880 -24.037  0.00  0.00    +0.050 A 
ATOM     12  C   UNL     1      34.549 -15.211 -21.768  0.00  0.00    +0.003 C 
ATOM     13  C   UNL     1      33.490 -13.537 -23.771  0.00  0.00    +0.008 C 
ATOM     14  C   UNL     1      34.247 -13.875 -21.493  0.00  0.00    +0.000 C 
ATOM     15  C   UNL     1      33.725 -13.050 -22.483  0.00  0.00    +0.001 C 
ATOM     16  H   UNL     1      36.544 -20.528 -21.610  0.00  0.00    -0.080 HD
ENDROOT
BRANCH   2  17
ATOM     17  C   UNL     1      35.943 -20.718 -19.682  0.00  0.00    -0.077 C 
BRANCH  17  18
ATOM     18  C   UNL     1      34.628 -21.454 -19.434  0.00  0.00    -0.021 C 
BRANCH  18  19
ATOM     19  C   UNL     1      34.693 -22.283 -18.147  0.00  0.00    +0.020 C 
BRANCH  19  20
ATOM     20  C   UNL     1      33.502 -23.224 -17.995  0.00  0.00    +0.101 C 
BRANCH  20  23
ATOM     21  O   UNL     1      34.675 -24.188 -15.456  0.00  0.00    -0.274 OA
ATOM     22  O   UNL     1      30.876 -22.200 -17.186  0.00  0.00    -0.274 OA
ATOM     23  N   UNL     1      32.934 -23.185 -16.662  0.00  0.00    -0.230 N 
ATOM     24  C   UNL     1      32.745 -23.201 -14.350  0.00  0.00    +0.086 C 
ATOM     25  C   UNL     1      31.347 -23.042 -14.961  0.00  0.00    +0.086 C 
ATOM     26  C   UNL     1      32.847 -24.108 -13.131  0.00  0.00    +0.010 C 
ATOM     27  C   UNL     1      30.485 -24.309 -14.924  0.00  0.00    +0.010 C 
ATOM     28  C   UNL     1      32.008 -25.374 -13.246  0.00  0.00    +0.001 C 
ATOM     29  C   UNL     1      30.564 -25.038 -13.591  0.00  0.00    +0.001 C 
ATOM     30  C   UNL     1      33.593 -23.626 -15.530  0.00  0.00    +0.231 C 
ATOM     31  C   UNL     1      31.660 -22.716 -16.404  0.00  0.00    +0.231 C 
ENDBRANCH  20  23
ENDBRANCH  19  20
ENDBRANCH  18  19
ENDBRANCH  17  18
ENDBRANCH   2  17
TORSDOF 5
ENDMDL
MODEL 2
REMARK VINA RESULT:     -11.5      1.840      2.506
REMARK  Name = 115368
REMARK  5 active torsions:
REMARK  status: ('A' for Active; 'I' for Inactive)
REMARK    1  A    between atoms: N_2  and  C_17
REMARK    2  A    between atoms: C_17  and  C_18
REMARK    3  A    between atoms: C_18  and  C_19
REMARK    4  A    between atoms: C_19  and  C_20
REMARK    5  A    between atoms: C_20  and  N_23
REMARK                            x       y       z     vdW  Elec       q    Type
REMARK                         _______ _______ _______ _____ _____    ______ ____
ROOT
ATOM      1  S   UNL     1      33.855 -15.003 -25.916  0.00  0.00    +0.014 S 
ATOM      2  N   UNL     1      35.120 -19.718 -21.445  0.00  0.00    +0.389 N 
ATOM      3  N   UNL     1      34.678 -17.542 -23.245  0.00  0.00    -0.297 N 
ATOM      4  N   UNL     1      34.281 -16.502 -25.355  0.00  0.00    -0.194 NA
ATOM      5  C   UNL     1      35.561 -18.361 -21.100  0.00  0.00    -0.055 C 
ATOM      6  C   UNL     1      33.905 -19.662 -22.269  0.00  0.00    -0.055 C 
ATOM      7  C   UNL     1      35.845 -17.533 -22.357  0.00  0.00    +0.069 C 
ATOM      8  C   UNL     1      34.164 -18.880 -23.558  0.00  0.00    +0.069 C 
ATOM      9  C   UNL     1      34.348 -16.455 -24.023  0.00  0.00    +0.140 A 
ATOM     10  C   UNL     1      34.055 -15.192 -23.399  0.00  0.00    +0.040 A 
ATOM     11  C   UNL     1      33.748 -14.244 -24.376  0.00  0.00    +0.050 A 
ATOM     12  C   UNL     1      34.031 -14.794 -22.044  0.00  0.00    +0.003 C 
ATOM     13  C   UNL     1      33.420 -12.918 -24.054  0.00  0.00    +0.008 C 
ATOM     14  C   UNL     1      33.706 -13.476 -21.713  0.00  0.00    +0.000 C 
ATOM     15  C   UNL     1      33.405 -12.551 -22.706  0.00  0.00    +0.001 C 
ATOM     16  H   UNL     1      35.858 -20.174 -21.983  0.00  0.00    -0.080 HD
ENDROOT
BRANCH   2  17
ATOM     17  C   UNL     1      34.885 -20.505 -20.235  0.00  0.00    -0.077 C 
BRANCH  17  18
ATOM     18  C   UNL     1      33.386 -20.680 -19.998  0.00  0.00    -0.021 C 
BRANCH  18  19
ATOM     19  C   UNL     1      33.119 -21.600 -18.803  0.00  0.00    +0.020 C 
BRANCH  19  20
ATOM     20  C   UNL     1      34.213 -22.645 -18.612  0.00  0.00    +0.101 C 
BRANCH  20  23
ATOM     21  O   UNL     1      36.831 -21.967 -17.411  0.00  0.00    -0.274 OA
ATOM     22  O   UNL     1      32.662 -23.655 -16.336  0.00  0.00    -0.274 OA
ATOM     23  N   UNL     1      34.633 -22.759 -17.229  0.00  0.00    -0.230 N 
ATOM     24  C   UNL     1      35.811 -22.449 -15.255  0.00  0.00    +0.086 C 
ATOM     25  C   UNL     1      34.679 -23.453 -15.004  0.00  0.00    +0.086 C 
ATOM     26  C   UNL     1      37.140 -22.751 -14.575  0.00  0.00    +0.010 C 
ATOM     27  C   UNL     1      35.130 -24.914 -14.907  0.00  0.00    +0.010 C 
ATOM     28  C   UNL     1      37.519 -24.225 -14.614  0.00  0.00    +0.001 C 
ATOM     29  C   UNL     1      36.389 -25.090 -14.072  0.00  0.00    +0.001 C 
ATOM     30  C   UNL     1      35.875 -22.367 -16.765  0.00  0.00    +0.231 C 
ATOM     31  C   UNL     1      33.827 -23.294 -16.243  0.00  0.00    +0.231 C 
ENDBRANCH  20  23
ENDBRANCH  19  20
ENDBRANCH  18  19
ENDBRANCH  17  18
ENDBRANCH   2  17
TORSDOF 5
ENDMDL
MODEL 3
REMARK VINA RESULT:     -11.0      4.339     10.483
REMARK  Name = 115368
REMARK  5 active torsions:
REMARK  status: ('A' for Active; 'I' for Inactive)
REMARK    1  A    between atoms: N_2  and  C_17
REMARK    2  A    between atoms: C_17  and  C_18
REMARK    3  A    between atoms: C_18  and  C_19
REMARK    4  A    between atoms: C_19  and  C_20
REMARK    5  A    between atoms: C_20  and  N_23
REMARK                            x       y       z     vdW  Elec       q    Type
REMARK                         _______ _______ _______ _____ _____    ______ ____
ROOT
ATOM      1  S   UNL     1      36.934 -20.941 -19.155  0.00  0.00    +0.014 S 
ATOM      2  N   UNL     1      34.512 -17.197 -24.048  0.00  0.00    +0.389 N 
ATOM      3  N   UNL     1      35.408 -18.964 -21.987  0.00  0.00    -0.297 N 
ATOM      4  N   UNL     1      36.969 -19.911 -20.451  0.00  0.00    -0.194 NA
ATOM      5  C   UNL     1      33.826 -18.472 -23.804  0.00  0.00    -0.055 C 
ATOM      6  C   UNL     1      35.058 -16.667 -22.790  0.00  0.00    -0.055 C 
ATOM      7  C   UNL     1      34.775 -19.507 -23.193  0.00  0.00    +0.069 C 
ATOM      8  C   UNL     1      36.048 -17.656 -22.173  0.00  0.00    +0.069 C 
ATOM      9  C   UNL     1      35.725 -19.761 -20.910  0.00  0.00    +0.140 A 
ATOM     10  C   UNL     1      34.686 -20.483 -20.226  0.00  0.00    +0.040 A 
ATOM     11  C   UNL     1      35.236 -21.218 -19.174  0.00  0.00    +0.050 A 
ATOM     12  C   UNL     1      33.291 -20.554 -20.439  0.00  0.00    +0.003 C 
ATOM     13  C   UNL     1      34.452 -22.020 -18.332  0.00  0.00    +0.008 C 
ATOM     14  C   UNL     1      32.501 -21.350 -19.604  0.00  0.00    +0.000 C 
ATOM     15  C   UNL     1      33.076 -22.073 -18.565  0.00  0.00    +0.001 C 
ATOM     16  H   UNL     1      35.285 -17.361 -24.694  0.00  0.00    -0.080 HD
ENDROOT
BRANCH   2  17
ATOM     17  C   UNL     1      33.601 -16.231 -24.661  0.00  0.00    -0.077 C 
BRANCH  17  18
ATOM     18  C   UNL     1      34.132 -14.810 -24.478  0.00  0.00    -0.021 C 
BRANCH  18  19
ATOM     19  C   UNL     1      33.092 -13.915 -23.796  0.00  0.00    +0.020 C 
BRANCH  19  20
ATOM     20  C   UNL     1      33.643 -13.213 -22.560  0.00  0.00    +0.101 C 
BRANCH  20  23
ATOM     21  O   UNL     1      33.300 -10.388 -23.373  0.00  0.00    -0.274 OA
ATOM     22  O   UNL     1      31.704 -13.534 -20.383  0.00  0.00    -0.274 OA
ATOM     23  N   UNL     1      32.725 -12.223 -22.032  0.00  0.00    -0.230 N 
ATOM     24  C   UNL     1      31.405 -10.324 -21.846  0.00  0.00    +0.086 C 
ATOM     25  C   UNL     1      31.257 -11.157 -20.568  0.00  0.00    +0.086 C 
ATOM     26  C   UNL     1      31.472  -8.813 -21.660  0.00  0.00    +0.010 C 
ATOM     27  C   UNL     1      32.015 -10.608 -19.354  0.00  0.00    +0.010 C 
ATOM     28  C   UNL     1      32.320  -8.387 -20.469  0.00  0.00    +0.001 C 
ATOM     29  C   UNL     1      31.872  -9.101 -19.201  0.00  0.00    +0.001 C 
ATOM     30  C   UNL     1      32.616 -10.934 -22.521  0.00  0.00    +0.231 C 
ATOM     31  C   UNL     1      31.881 -12.476 -20.967  0.00  0.00    +0.231 C 
ENDBRANCH  20  23
ENDBRANCH  19  20
ENDBRANCH  18  19
ENDBRANCH  17  18
ENDBRANCH   2  17
TORSDOF 5
ENDMDL
MODEL 4
REMARK VINA RESULT:     -10.7      2.272      2.925
REMARK  Name = 115368
REMARK  5 active torsions:
REMARK  status: ('A' for Active; 'I' for Inactive)
REMARK    1  A    between atoms: N_2  and  C_17
REMARK    2  A    between atoms: C_17  and  C_18
REMARK    3  A    between atoms: C_18  and  C_19
REMARK    4  A    between atoms: C_19  and  C_20
REMARK    5  A    between atoms: C_20  and  N_23
REMARK                            x       y       z     vdW  Elec       q    Type
REMARK                         _______ _______ _______ _____ _____    ______ ____
ROOT
ATOM      1  S   UNL     1      33.604 -15.827 -25.446  0.00  0.00    +0.014 S 
ATOM      2  N   UNL     1      35.960 -19.990 -20.871  0.00  0.00    +0.389 N 
ATOM      3  N   UNL     1      35.066 -18.037 -22.756  0.00  0.00    -0.297 N 
ATOM      4  N   UNL     1      34.197 -17.246 -24.833  0.00  0.00    -0.194 NA
ATOM      5  C   UNL     1      36.409 -18.596 -20.773  0.00  0.00    -0.055 C 
ATOM      6  C   UNL     1      34.598 -20.047 -21.421  0.00  0.00    -0.055 C 
ATOM      7  C   UNL     1      36.391 -17.909 -22.142  0.00  0.00    +0.069 C 
ATOM      8  C   UNL     1      34.551 -19.410 -22.810  0.00  0.00    +0.069 C 
ATOM      9  C   UNL     1      34.538 -17.049 -23.558  0.00  0.00    +0.140 A 
ATOM     10  C   UNL     1      34.332 -15.730 -23.023  0.00  0.00    +0.040 A 
ATOM     11  C   UNL     1      33.790 -14.902 -24.008  0.00  0.00    +0.050 A 
ATOM     12  C   UNL     1      34.575 -15.183 -21.743  0.00  0.00    +0.003 C 
ATOM     13  C   UNL     1      33.484 -13.554 -23.766  0.00  0.00    +0.008 C 
ATOM     14  C   UNL     1      34.274 -13.842 -21.492  0.00  0.00    +0.000 C 
ATOM     15  C   UNL     1      33.736 -13.039 -22.492  0.00  0.00    +0.001 C 
ATOM     16  H   UNL     1      36.586 -20.491 -21.501  0.00  0.00    -0.080 HD
ENDROOT
BRANCH   2  17
ATOM     17  C   UNL     1      36.014 -20.641 -19.562  0.00  0.00    -0.077 C 
BRANCH  17  18
ATOM     18  C   UNL     1      34.795 -21.542 -19.367  0.00  0.00    -0.021 C 
BRANCH  18  19
ATOM     19  C   UNL     1      34.887 -22.317 -18.048  0.00  0.00    +0.020 C 
BRANCH  19  20
ATOM     20  C   UNL     1      36.126 -21.950 -17.237  0.00  0.00    +0.101 C 
BRANCH  20  23
ATOM     21  O   UNL     1      38.595 -22.806 -15.849  0.00  0.00    -0.274 OA
ATOM     22  O   UNL     1      33.989 -23.157 -15.632  0.00  0.00    -0.274 OA
ATOM     23  N   UNL     1      36.259 -22.754 -16.039  0.00  0.00    -0.230 N 
ATOM     24  C   UNL     1      37.141 -23.713 -14.120  0.00  0.00    +0.086 C 
ATOM     25  C   UNL     1      35.722 -24.251 -14.334  0.00  0.00    +0.086 C 
ATOM     26  C   UNL     1      38.175 -24.720 -13.632  0.00  0.00    +0.010 C 
ATOM     27  C   UNL     1      35.655 -25.681 -14.879  0.00  0.00    +0.010 C 
ATOM     28  C   UNL     1      38.059 -26.081 -14.304  0.00  0.00    +0.001 C 
ATOM     29  C   UNL     1      36.639 -26.620 -14.197  0.00  0.00    +0.001 C 
ATOM     30  C   UNL     1      37.470 -23.059 -15.445  0.00  0.00    +0.231 C 
ATOM     31  C   UNL     1      35.176 -23.311 -15.386  0.00  0.00    +0.231 C 
ENDBRANCH  20  23
ENDBRANCH  19  20
ENDBRANCH  18  19
ENDBRANCH  17  18
ENDBRANCH   2  17
TORSDOF 5
ENDMDL
MODEL 5
REMARK VINA RESULT:     -10.7      1.920      2.947
REMARK  Name = 115368
REMARK  5 active torsions:
REMARK  status: ('A' for Active; 'I' for Inactive)
REMARK    1  A    between atoms: N_2  and  C_17
REMARK    2  A    between atoms: C_17  and  C_18
REMARK    3  A    between atoms: C_18  and  C_19
REMARK    4  A    between atoms: C_19  and  C_20
REMARK    5  A    between atoms: C_20  and  N_23
REMARK                            x       y       z     vdW  Elec       q    Type
REMARK                         _______ _______ _______ _____ _____    ______ ____
ROOT
ATOM      1  S   UNL     1      33.819 -15.199 -25.852  0.00  0.00    +0.014 S 
ATOM      2  N   UNL     1      35.275 -19.785 -21.307  0.00  0.00    +0.389 N 
ATOM      3  N   UNL     1      34.755 -17.661 -23.147  0.00  0.00    -0.297 N 
ATOM      4  N   UNL     1      34.269 -16.681 -25.268  0.00  0.00    -0.194 NA
ATOM      5  C   UNL     1      35.729 -18.420 -21.020  0.00  0.00    -0.055 C 
ATOM      6  C   UNL     1      34.026 -19.752 -22.080  0.00  0.00    -0.055 C 
ATOM      7  C   UNL     1      35.959 -17.628 -22.311  0.00  0.00    +0.069 C 
ATOM      8  C   UNL     1      34.229 -19.007 -23.401  0.00  0.00    +0.069 C 
ATOM      9  C   UNL     1      34.392 -16.596 -23.941  0.00  0.00    +0.140 A 
ATOM     10  C   UNL     1      34.126 -15.316 -23.342  0.00  0.00    +0.040 A 
ATOM     11  C   UNL     1      33.777 -14.395 -24.331  0.00  0.00    +0.050 A 
ATOM     12  C   UNL     1      34.160 -14.880 -21.998  0.00  0.00    +0.003 C 
ATOM     13  C   UNL     1      33.463 -13.061 -24.034  0.00  0.00    +0.008 C 
ATOM     14  C   UNL     1      33.848 -13.553 -21.691  0.00  0.00    +0.000 C 
ATOM     15  C   UNL     1      33.505 -12.656 -22.697  0.00  0.00    +0.001 C 
ATOM     16  H   UNL     1      35.989 -20.257 -21.863  0.00  0.00    -0.080 HD
ENDROOT
BRANCH   2  17
ATOM     17  C   UNL     1      35.091 -20.538 -20.066  0.00  0.00    -0.077 C 
BRANCH  17  18
ATOM     18  C   UNL     1      36.444 -20.847 -19.428  0.00  0.00    -0.021 C 
BRANCH  18  19
ATOM     19  C   UNL     1      36.339 -22.026 -18.454  0.00  0.00    +0.020 C 
BRANCH  19  20
ATOM     20  C   UNL     1      36.605 -21.618 -17.009  0.00  0.00    +0.101 C 
BRANCH  20  23
ATOM     21  O   UNL     1      34.007 -22.779 -16.196  0.00  0.00    -0.274 OA
ATOM     22  O   UNL     1      38.554 -23.140 -15.432  0.00  0.00    -0.274 OA
ATOM     23  N   UNL     1      36.346 -22.695 -16.074  0.00  0.00    -0.230 N 
ATOM     24  C   UNL     1      35.293 -24.434 -14.958  0.00  0.00    +0.086 C 
ATOM     25  C   UNL     1      36.675 -24.211 -14.334  0.00  0.00    +0.086 C 
ATOM     26  C   UNL     1      34.159 -24.744 -13.988  0.00  0.00    +0.010 C 
ATOM     27  C   UNL     1      36.658 -23.488 -12.983  0.00  0.00    +0.010 C 
ATOM     28  C   UNL     1      34.203 -23.905 -12.718  0.00  0.00    +0.001 C 
ATOM     29  C   UNL     1      35.569 -24.001 -12.052  0.00  0.00    +0.001 C 
ATOM     30  C   UNL     1      35.086 -23.193 -15.800  0.00  0.00    +0.231 C 
ATOM     31  C   UNL     1      37.347 -23.314 -15.350  0.00  0.00    +0.231 C 
ENDBRANCH  20  23
ENDBRANCH  19  20
ENDBRANCH  18  19
ENDBRANCH  17  18
ENDBRANCH   2  17
TORSDOF 5
ENDMDL
MODEL 6
REMARK VINA RESULT:     -10.5      4.584     10.990
REMARK  Name = 115368
REMARK  5 active torsions:
REMARK  status: ('A' for Active; 'I' for Inactive)
REMARK    1  A    between atoms: N_2  and  C_17
REMARK    2  A    between atoms: C_17  and  C_18
REMARK    3  A    between atoms: C_18  and  C_19
REMARK    4  A    between atoms: C_19  and  C_20
REMARK    5  A    between atoms: C_20  and  N_23
REMARK                            x       y       z     vdW  Elec       q    Type
REMARK                         _______ _______ _______ _____ _____    ______ ____
ROOT
ATOM      1  S   UNL     1      35.783 -24.679 -11.832  0.00  0.00    +0.014 S 
ATOM      2  N   UNL     1      34.799 -22.024 -17.816  0.00  0.00    +0.389 N 
ATOM      3  N   UNL     1      35.433 -23.110 -15.249  0.00  0.00    -0.297 N 
ATOM      4  N   UNL     1      35.000 -23.822 -13.014  0.00  0.00    -0.194 NA
ATOM      5  C   UNL     1      36.178 -21.998 -17.313  0.00  0.00    -0.055 C 
ATOM      6  C   UNL     1      34.097 -23.212 -17.310  0.00  0.00    -0.055 C 
ATOM      7  C   UNL     1      36.211 -21.987 -15.781  0.00  0.00    +0.069 C 
ATOM      8  C   UNL     1      34.069 -23.211 -15.781  0.00  0.00    +0.069 C 
ATOM      9  C   UNL     1      35.791 -23.756 -14.087  0.00  0.00    +0.140 A 
ATOM     10  C   UNL     1      37.074 -24.400 -13.993  0.00  0.00    +0.040 A 
ATOM     11  C   UNL     1      37.216 -24.986 -12.734  0.00  0.00    +0.050 A 
ATOM     12  C   UNL     1      38.136 -24.523 -14.917  0.00  0.00    +0.003 C 
ATOM     13  C   UNL     1      38.374 -25.685 -12.361  0.00  0.00    +0.008 C 
ATOM     14  C   UNL     1      39.293 -25.218 -14.555  0.00  0.00    +0.000 C 
ATOM     15  C   UNL     1      39.409 -25.791 -13.293  0.00  0.00    +0.001 C 
ATOM     16  H   UNL     1      34.314 -21.192 -17.480  0.00  0.00    -0.080 HD
ENDROOT
BRANCH   2  17
ATOM     17  C   UNL     1      34.785 -22.001 -19.278  0.00  0.00    -0.077 C 
BRANCH  17  18
ATOM     18  C   UNL     1      36.092 -21.421 -19.814  0.00  0.00    -0.021 C 
BRANCH  18  19
ATOM     19  C   UNL     1      35.929 -19.944 -20.188  0.00  0.00    +0.020 C 
BRANCH  19  20
ATOM     20  C   UNL     1      34.661 -19.680 -20.992  0.00  0.00    +0.101 C 
BRANCH  20  23
ATOM     21  O   UNL     1      34.879 -16.737 -20.774  0.00  0.00    -0.274 OA
ATOM     22  O   UNL     1      34.917 -20.170 -23.872  0.00  0.00    -0.274 OA
ATOM     23  N   UNL     1      34.867 -18.705 -22.045  0.00  0.00    -0.230 N 
ATOM     24  C   UNL     1      35.419 -16.740 -23.148  0.00  0.00    +0.086 C 
ATOM     25  C   UNL     1      34.924 -17.763 -24.177  0.00  0.00    +0.086 C 
ATOM     26  C   UNL     1      34.967 -15.300 -23.360  0.00  0.00    +0.010 C 
ATOM     27  C   UNL     1      33.502 -17.516 -24.691  0.00  0.00    +0.010 C 
ATOM     28  C   UNL     1      33.513 -15.179 -23.792  0.00  0.00    +0.001 C 
ATOM     29  C   UNL     1      33.233 -16.052 -25.008  0.00  0.00    +0.001 C 
ATOM     30  C   UNL     1      35.000 -17.347 -21.825  0.00  0.00    +0.231 C 
ATOM     31  C   UNL     1      34.930 -19.050 -23.382  0.00  0.00    +0.231 C 
ENDBRANCH  20  23
ENDBRANCH  19  20
ENDBRANCH  18  19
ENDBRANCH  17  18
ENDBRANCH   2  17
TORSDOF 5
ENDMDL
MODEL 7
REMARK VINA RESULT:     -10.5      2.542      4.594
REMARK  Name = 115368
REMARK  5 active torsions:
REMARK  status: ('A' for Active; 'I' for Inactive)
REMARK    1  A    between atoms: N_2  and  C_17
REMARK    2  A    between atoms: C_17  and  C_18
REMARK    3  A    between atoms: C_18  and  C_19
REMARK    4  A    between atoms: C_19  and  C_20
REMARK    5  A    between atoms: C_20  and  N_23
REMARK                            x       y       z     vdW  Elec       q    Type
REMARK                         _______ _______ _______ _____ _____    ______ ____
ROOT
ATOM      1  S   UNL     1      33.161 -10.775 -23.879  0.00  0.00    +0.014 S 
ATOM      2  N   UNL     1      34.444 -17.255 -24.299  0.00  0.00    +0.389 N 
ATOM      3  N   UNL     1      33.940 -14.470 -23.906  0.00  0.00    -0.297 N 
ATOM      4  N   UNL     1      33.750 -12.177 -24.536  0.00  0.00    -0.194 NA
ATOM      5  C   UNL     1      34.552 -16.657 -22.963  0.00  0.00    -0.055 C 
ATOM      6  C   UNL     1      33.412 -16.562 -25.083  0.00  0.00    -0.055 C 
ATOM      7  C   UNL     1      34.902 -15.169 -23.047  0.00  0.00    +0.069 C 
ATOM      8  C   UNL     1      33.752 -15.078 -25.228  0.00  0.00    +0.069 C 
ATOM      9  C   UNL     1      33.561 -13.168 -23.663  0.00  0.00    +0.140 A 
ATOM     10  C   UNL     1      32.928 -12.829 -22.417  0.00  0.00    +0.040 A 
ATOM     11  C   UNL     1      32.633 -11.465 -22.394  0.00  0.00    +0.050 A 
ATOM     12  C   UNL     1      32.582 -13.612 -21.293  0.00  0.00    +0.003 C 
ATOM     13  C   UNL     1      32.010 -10.853 -21.296  0.00  0.00    +0.008 C 
ATOM     14  C   UNL     1      31.960 -13.012 -20.195  0.00  0.00    +0.000 C 
ATOM     15  C   UNL     1      31.679 -11.650 -20.197  0.00  0.00    +0.001 C 
ATOM     16  H   UNL     1      35.339 -17.152 -24.777  0.00  0.00    -0.080 HD
ENDROOT
BRANCH   2  17
ATOM     17  C   UNL     1      34.142 -18.683 -24.201  0.00  0.00    -0.077 C 
BRANCH  17  18
ATOM     18  C   UNL     1      34.918 -19.312 -23.045  0.00  0.00    -0.021 C 
BRANCH  18  19
ATOM     19  C   UNL     1      33.975 -19.762 -21.925  0.00  0.00    +0.020 C 
BRANCH  19  20
ATOM     20  C   UNL     1      34.578 -19.569 -20.537  0.00  0.00    +0.101 C 
BRANCH  20  23
ATOM     21  O   UNL     1      32.355 -21.021 -19.232  0.00  0.00    -0.274 OA
ATOM     22  O   UNL     1      36.928 -21.200 -19.893  0.00  0.00    -0.274 OA
ATOM     23  N   UNL     1      34.623 -20.803 -19.778  0.00  0.00    -0.230 N 
ATOM     24  C   UNL     1      33.973 -22.772 -18.739  0.00  0.00    +0.086 C 
ATOM     25  C   UNL     1      35.474 -22.564 -18.511  0.00  0.00    +0.086 C 
ATOM     26  C   UNL     1      33.181 -23.315 -17.555  0.00  0.00    +0.010 C 
ATOM     27  C   UNL     1      35.848 -22.082 -17.105  0.00  0.00    +0.010 C 
ATOM     28  C   UNL     1      33.588 -22.701 -16.223  0.00  0.00    +0.001 C 
ATOM     29  C   UNL     1      35.091 -22.816 -16.008  0.00  0.00    +0.001 C 
ATOM     30  C   UNL     1      33.508 -21.423 -19.246  0.00  0.00    +0.231 C 
ATOM     31  C   UNL     1      35.802 -21.467 -19.498  0.00  0.00    +0.231 C 
ENDBRANCH  20  23
ENDBRANCH  19  20
ENDBRANCH  18  19
ENDBRANCH  17  18
ENDBRANCH   2  17
TORSDOF 5
ENDMDL
MODEL 8
REMARK VINA RESULT:     -10.4      3.664      6.399
REMARK  Name = 115368
REMARK  5 active torsions:
REMARK  status: ('A' for Active; 'I' for Inactive)
REMARK    1  A    between atoms: N_2  and  C_17
REMARK    2  A    between atoms: C_17  and  C_18
REMARK    3  A    between atoms: C_18  and  C_19
REMARK    4  A    between atoms: C_19  and  C_20
REMARK    5  A    between atoms: C_20  and  N_23
REMARK                            x       y       z     vdW  Elec       q    Type
REMARK                         _______ _______ _______ _____ _____    ______ ____
ROOT
ATOM      1  S   UNL     1      31.437  -8.801 -21.874  0.00  0.00    +0.014 S 
ATOM      2  N   UNL     1      33.894 -14.923 -22.424  0.00  0.00    +0.389 N 
ATOM      3  N   UNL     1      32.911 -12.239 -22.386  0.00  0.00    -0.297 N 
ATOM      4  N   UNL     1      31.477 -10.450 -21.728  0.00  0.00    -0.194 NA
ATOM      5  C   UNL     1      34.159 -14.013 -23.545  0.00  0.00    -0.055 C 
ATOM      6  C   UNL     1      33.823 -14.168 -21.165  0.00  0.00    -0.055 C 
ATOM      7  C   UNL     1      33.070 -12.943 -23.662  0.00  0.00    +0.069 C 
ATOM      8  C   UNL     1      32.713 -13.118 -21.227  0.00  0.00    +0.069 C 
ATOM      9  C   UNL     1      32.579 -10.904 -22.328  0.00  0.00    +0.140 A 
ATOM     10  C   UNL     1      33.441  -9.926 -22.936  0.00  0.00    +0.040 A 
ATOM     11  C   UNL     1      32.908  -8.649 -22.753  0.00  0.00    +0.050 A 
ATOM     12  C   UNL     1      34.660 -10.052 -23.639  0.00  0.00    +0.003 C 
ATOM     13  C   UNL     1      33.541  -7.497 -23.244  0.00  0.00    +0.008 C 
ATOM     14  C   UNL     1      35.299  -8.911 -24.131  0.00  0.00    +0.000 C 
ATOM     15  C   UNL     1      34.745  -7.651 -23.936  0.00  0.00    +0.001 C 
ATOM     16  H   UNL     1      32.995 -15.380 -22.580  0.00  0.00    -0.080 HD
ENDROOT
BRANCH   2  17
ATOM     17  C   UNL     1      34.925 -15.957 -22.345  0.00  0.00    -0.077 C 
BRANCH  17  18
ATOM     18  C   UNL     1      34.658 -17.052 -23.376  0.00  0.00    -0.021 C 
BRANCH  18  19
ATOM     19  C   UNL     1      34.641 -18.437 -22.720  0.00  0.00    +0.020 C 
BRANCH  19  20
ATOM     20  C   UNL     1      34.843 -18.372 -21.210  0.00  0.00    +0.101 C 
BRANCH  20  23
ATOM     21  O   UNL     1      33.030 -20.485 -20.208  0.00  0.00    -0.274 OA
ATOM     22  O   UNL     1      37.514 -19.489 -20.740  0.00  0.00    -0.274 OA
ATOM     23  N   UNL     1      35.181 -19.663 -20.642  0.00  0.00    -0.230 N 
ATOM     24  C   UNL     1      35.016 -21.864 -19.929  0.00  0.00    +0.086 C 
ATOM     25  C   UNL     1      36.428 -21.349 -19.625  0.00  0.00    +0.086 C 
ATOM     26  C   UNL     1      34.380 -22.751 -18.866  0.00  0.00    +0.010 C 
ATOM     27  C   UNL     1      36.682 -21.013 -18.152  0.00  0.00    +0.010 C 
ATOM     28  C   UNL     1      34.635 -22.270 -17.444  0.00  0.00    +0.001 C 
ATOM     29  C   UNL     1      36.124 -22.062 -17.201  0.00  0.00    +0.001 C 
ATOM     30  C   UNL     1      34.245 -20.600 -20.245  0.00  0.00    +0.231 C 
ATOM     31  C   UNL     1      36.484 -20.068 -20.426  0.00  0.00    +0.231 C 
ENDBRANCH  20  23
ENDBRANCH  19  20
ENDBRANCH  18  19
ENDBRANCH  17  18
ENDBRANCH   2  17
TORSDOF 5
ENDMDL
MODEL 9
REMARK VINA RESULT:     -10.1      7.447     11.941
REMARK  Name = 115368
REMARK  5 active torsions:
REMARK  status: ('A' for Active; 'I' for Inactive)
REMARK    1  A    between atoms: N_2  and  C_17
REMARK    2  A    between atoms: C_17  and  C_18
REMARK    3  A    between atoms: C_18  and  C_19
REMARK    4  A    between atoms: C_19  and  C_20
REMARK    5  A    between atoms: C_20  and  N_23
REMARK                            x       y       z     vdW  Elec       q    Type
REMARK                         _______ _______ _______ _____ _____    ______ ____
ROOT
ATOM      1  S   UNL     1      31.043  -2.420 -23.620  0.00  0.00    +0.014 S 
ATOM      2  N   UNL     1      31.418  -8.547 -21.145  0.00  0.00    +0.389 N 
ATOM      3  N   UNL     1      31.274  -5.990 -22.412  0.00  0.00    -0.297 N 
ATOM      4  N   UNL     1      30.674  -3.690 -22.625  0.00  0.00    -0.194 NA
ATOM      5  C   UNL     1      31.547  -8.427 -22.602  0.00  0.00    -0.055 C 
ATOM      6  C   UNL     1      31.964  -7.352 -20.486  0.00  0.00    -0.055 C 
ATOM      7  C   UNL     1      30.815  -7.187 -23.124  0.00  0.00    +0.069 C 
ATOM      8  C   UNL     1      31.225  -6.096 -20.949  0.00  0.00    +0.069 C 
ATOM      9  C   UNL     1      31.356  -4.763 -23.032  0.00  0.00    +0.140 A 
ATOM     10  C   UNL     1      32.211  -4.597 -24.177  0.00  0.00    +0.040 A 
ATOM     11  C   UNL     1      32.136  -3.279 -24.634  0.00  0.00    +0.050 A 
ATOM     12  C   UNL     1      33.056  -5.499 -24.860  0.00  0.00    +0.003 C 
ATOM     13  C   UNL     1      32.868  -2.830 -25.743  0.00  0.00    +0.008 C 
ATOM     14  C   UNL     1      33.789  -5.061 -25.966  0.00  0.00    +0.000 C 
ATOM     15  C   UNL     1      33.695  -3.744 -26.401  0.00  0.00    +0.001 C 
ATOM     16  H   UNL     1      30.428  -8.624 -20.910  0.00  0.00    -0.080 HD
ENDROOT
BRANCH   2  17
ATOM     17  C   UNL     1      32.094  -9.753 -20.666  0.00  0.00    -0.077 C 
BRANCH  17  18
ATOM     18  C   UNL     1      31.490 -10.995 -21.318  0.00  0.00    -0.021 C 
BRANCH  18  19
ATOM     19  C   UNL     1      32.580 -11.886 -21.924  0.00  0.00    +0.020 C 
BRANCH  19  20
ATOM     20  C   UNL     1      32.279 -13.373 -21.761  0.00  0.00    +0.101 C 
BRANCH  20  23
ATOM     21  O   UNL     1      32.643 -14.252 -24.563  0.00  0.00    -0.274 OA
ATOM     22  O   UNL     1      34.515 -14.644 -20.353  0.00  0.00    -0.274 OA
ATOM     23  N   UNL     1      33.321 -14.211 -22.320  0.00  0.00    -0.230 N 
ATOM     24  C   UNL     1      34.754 -15.222 -23.838  0.00  0.00    +0.086 C 
ATOM     25  C   UNL     1      35.056 -15.763 -22.436  0.00  0.00    +0.086 C 
ATOM     26  C   UNL     1      34.800 -16.235 -24.975  0.00  0.00    +0.010 C 
ATOM     27  C   UNL     1      34.530 -17.177 -22.169  0.00  0.00    +0.010 C 
ATOM     28  C   UNL     1      34.174 -17.576 -24.616  0.00  0.00    +0.001 C 
ATOM     29  C   UNL     1      34.776 -18.129 -23.331  0.00  0.00    +0.001 C 
ATOM     30  C   UNL     1      33.421 -14.525 -23.662  0.00  0.00    +0.231 C 
ATOM     31  C   UNL     1      34.306 -14.796 -21.548  0.00  0.00    +0.231 C 
ENDBRANCH  20  23
ENDBRANCH  19  20
ENDBRANCH  18  19
ENDBRANCH  17  18
ENDBRANCH   2  17
TORSDOF 5
ENDMDL
