MODEL 1
REMARK VINA RESULT:     -11.9      0.000      0.000
REMARK  Name = 6914614
REMARK  7 active torsions:
REMARK  status: ('A' for Active; 'I' for Inactive)
REMARK    1  A    between atoms: O_1  and  C_4
REMARK    2  A    between atoms: O_1  and  C_18
REMARK    3  A    between atoms: C_9  and  C_13
REMARK    4  A    between atoms: C_18  and  C_19
REMARK    5  A    between atoms: C_19  and  N_20
REMARK    6  A    between atoms: C_19  and  C_24
REMARK    7  A    between atoms: C_24  and  C_26
REMARK                            x       y       z     vdW  Elec       q    Type
REMARK                         _______ _______ _______ _____ _____    ______ ____
ROOT
ATOM      1  O   UNL     1      35.817 -20.661 -19.867  0.00  0.00    -0.476 OA
ENDROOT
BRANCH   1   4
ATOM      2  N   UNL     1      35.183 -23.298 -15.871  0.00  0.00    -0.404 NA
ATOM      3  N   UNL     1      32.922 -22.447 -18.609  0.00  0.00    -0.258 NA
ATOM      4  C   UNL     1      35.063 -21.430 -19.036  0.00  0.00    +0.159 C 
ATOM      5  C   UNL     1      35.569 -21.969 -17.847  0.00  0.00    +0.063 C 
ATOM      6  C   UNL     1      34.745 -22.757 -17.026  0.00  0.00    +0.136 C 
ATOM      7  C   UNL     1      36.890 -21.748 -17.435  0.00  0.00    +0.008 C 
ATOM      8  C   UNL     1      33.747 -21.697 -19.367  0.00  0.00    +0.130 C 
ATOM      9  C   UNL     1      36.465 -23.062 -15.509  0.00  0.00    +0.131 C 
ATOM     10  C   UNL     1      37.350 -22.303 -16.248  0.00  0.00    +0.032 C 
ATOM     11  C   UNL     1      33.446 -22.950 -17.466  0.00  0.00    +0.184 C 
BRANCH   9  13
ATOM     12  N   UNL     1      37.641 -24.855 -11.850  0.00  0.00    -0.242 NA
ATOM     13  C   UNL     1      36.865 -23.672 -14.263  0.00  0.00    +0.033 C 
ATOM     14  C   UNL     1      37.966 -24.523 -14.223  0.00  0.00    +0.023 C 
ATOM     15  C   UNL     1      36.153 -23.414 -13.096  0.00  0.00    +0.023 C 
ATOM     16  C   UNL     1      38.310 -25.083 -13.002  0.00  0.00    +0.099 C 
ATOM     17  C   UNL     1      36.578 -24.024 -11.926  0.00  0.00    +0.099 C 
ENDBRANCH   9  13
ENDBRANCH   1   4
BRANCH   1  18
ATOM     18  C   UNL     1      35.123 -19.881 -20.840  0.00  0.00    +0.184 C 
BRANCH  18  19
ATOM     19  C   UNL     1      35.870 -18.581 -21.166  0.00  0.00    -0.017 C 
BRANCH  19  20
ATOM     20  N   UNL     1      37.313 -18.842 -21.105  0.00  0.00    +0.384 N 
ATOM     21  H   UNL     1      37.820 -18.045 -21.491  0.00  0.00    -0.089 HD
ATOM     22  H   UNL     1      37.531 -19.678 -21.646  0.00  0.00    -0.089 HD
ATOM     23  H   UNL     1      37.592 -18.983 -20.134  0.00  0.00    -0.089 HD
ENDBRANCH  19  20
BRANCH  19  24
ATOM     24  C   UNL     1      35.537 -17.997 -22.553  0.00  0.00    +0.009 C 
BRANCH  24  26
ATOM     25  N   UNL     1      34.225 -14.690 -21.732  0.00  0.00    -0.312 N 
ATOM     26  C   UNL     1      34.933 -16.622 -22.497  0.00  0.00    -0.008 C 
ATOM     27  C   UNL     1      34.391 -15.917 -23.587  0.00  0.00    +0.011 C 
ATOM     28  C   UNL     1      33.947 -14.693 -23.080  0.00  0.00    +0.048 C 
ATOM     29  C   UNL     1      34.827 -15.865 -21.370  0.00  0.00    +0.058 C 
ATOM     30  C   UNL     1      34.226 -16.181 -24.962  0.00  0.00    +0.001 C 
ATOM     31  C   UNL     1      33.345 -13.717 -23.882  0.00  0.00    +0.015 C 
ATOM     32  C   UNL     1      33.625 -15.214 -25.776  0.00  0.00    +0.000 C 
ATOM     33  C   UNL     1      33.191 -14.002 -25.242  0.00  0.00    +0.001 C 
ATOM     34  H   UNL     1      34.020 -13.949 -21.117  0.00  0.00    +0.152 HD
ENDBRANCH  24  26
ENDBRANCH  19  24
ENDBRANCH  18  19
ENDBRANCH   1  18
TORSDOF 7
ENDMDL
MODEL 2
REMARK VINA RESULT:     -11.8      2.245     10.088
REMARK  Name = 6914614
REMARK  7 active torsions:
REMARK  status: ('A' for Active; 'I' for Inactive)
REMARK    1  A    between atoms: O_1  and  C_4
REMARK    2  A    between atoms: O_1  and  C_18
REMARK    3  A    between atoms: C_9  and  C_13
REMARK    4  A    between atoms: C_18  and  C_19
REMARK    5  A    between atoms: C_19  and  N_20
REMARK    6  A    between atoms: C_19  and  C_24
REMARK    7  A    between atoms: C_24  and  C_26
REMARK                            x       y       z     vdW  Elec       q    Type
REMARK                         _______ _______ _______ _____ _____    ______ ____
ROOT
ATOM      1  O   UNL     1      36.417 -22.318 -18.206  0.00  0.00    -0.476 OA
ENDROOT
BRANCH   1   4
ATOM      2  N   UNL     1      33.843 -19.561 -21.222  0.00  0.00    -0.404 NA
ATOM      3  N   UNL     1      32.845 -22.097 -18.792  0.00  0.00    -0.258 NA
ATOM      4  C   UNL     1      35.245 -21.894 -18.749  0.00  0.00    +0.159 C 
ATOM      5  C   UNL     1      35.190 -20.906 -19.740  0.00  0.00    +0.063 C 
ATOM      6  C   UNL     1      33.950 -20.506 -20.267  0.00  0.00    +0.136 C 
ATOM      7  C   UNL     1      36.346 -20.290 -20.238  0.00  0.00    +0.008 C 
ATOM      8  C   UNL     1      34.055 -22.451 -18.315  0.00  0.00    +0.130 C 
ATOM      9  C   UNL     1      34.983 -18.989 -21.675  0.00  0.00    +0.131 C 
ATOM     10  C   UNL     1      36.246 -19.314 -21.221  0.00  0.00    +0.032 C 
ATOM     11  C   UNL     1      32.832 -21.139 -19.750  0.00  0.00    +0.184 C 
BRANCH   9  13
ATOM     12  N   UNL     1      34.425 -16.042 -24.674  0.00  0.00    -0.242 NA
ATOM     13  C   UNL     1      34.794 -17.986 -22.696  0.00  0.00    +0.033 C 
ATOM     14  C   UNL     1      35.171 -16.668 -22.461  0.00  0.00    +0.023 C 
ATOM     15  C   UNL     1      34.231 -18.331 -23.921  0.00  0.00    +0.023 C 
ATOM     16  C   UNL     1      34.969 -15.742 -23.473  0.00  0.00    +0.099 C 
ATOM     17  C   UNL     1      34.070 -17.331 -24.868  0.00  0.00    +0.099 C 
ENDBRANCH   9  13
ENDBRANCH   1   4
BRANCH   1  18
ATOM     18  C   UNL     1      36.738 -21.846 -16.898  0.00  0.00    +0.184 C 
BRANCH  18  19
ATOM     19  C   UNL     1      36.437 -22.897 -15.823  0.00  0.00    -0.017 C 
BRANCH  19  20
ATOM     20  N   UNL     1      37.707 -23.462 -15.350  0.00  0.00    +0.384 N 
ATOM     21  H   UNL     1      37.924 -24.303 -15.884  0.00  0.00    -0.089 HD
ATOM     22  H   UNL     1      37.627 -23.697 -14.362  0.00  0.00    -0.089 HD
ATOM     23  H   UNL     1      38.452 -22.777 -15.478  0.00  0.00    -0.089 HD
ENDBRANCH  19  20
BRANCH  19  24
ATOM     24  C   UNL     1      35.663 -22.349 -14.608  0.00  0.00    +0.009 C 
BRANCH  24  26
ATOM     25  N   UNL     1      34.040 -24.970 -12.652  0.00  0.00    -0.312 N 
ATOM     26  C   UNL     1      34.762 -23.363 -13.961  0.00  0.00    -0.008 C 
ATOM     27  C   UNL     1      33.411 -23.588 -14.286  0.00  0.00    +0.011 C 
ATOM     28  C   UNL     1      32.972 -24.611 -13.443  0.00  0.00    +0.048 C 
ATOM     29  C   UNL     1      35.136 -24.211 -12.964  0.00  0.00    +0.058 C 
ATOM     30  C   UNL     1      32.502 -23.032 -15.208  0.00  0.00    +0.001 C 
ATOM     31  C   UNL     1      31.664 -25.108 -13.476  0.00  0.00    +0.015 C 
ATOM     32  C   UNL     1      31.191 -23.519 -15.253  0.00  0.00    +0.000 C 
ATOM     33  C   UNL     1      30.780 -24.542 -14.400  0.00  0.00    +0.001 C 
ATOM     34  H   UNL     1      34.019 -25.671 -11.962  0.00  0.00    +0.152 HD
ENDBRANCH  24  26
ENDBRANCH  19  24
ENDBRANCH  18  19
ENDBRANCH   1  18
TORSDOF 7
ENDMDL
MODEL 3
REMARK VINA RESULT:     -11.5      2.777     10.781
REMARK  Name = 6914614
REMARK  7 active torsions:
REMARK  status: ('A' for Active; 'I' for Inactive)
REMARK    1  A    between atoms: O_1  and  C_4
REMARK    2  A    between atoms: O_1  and  C_18
REMARK    3  A    between atoms: C_9  and  C_13
REMARK    4  A    between atoms: C_18  and  C_19
REMARK    5  A    between atoms: C_19  and  N_20
REMARK    6  A    between atoms: C_19  and  C_24
REMARK    7  A    between atoms: C_24  and  C_26
REMARK                            x       y       z     vdW  Elec       q    Type
REMARK                         _______ _______ _______ _____ _____    ______ ____
ROOT
ATOM      1  O   UNL     1      35.548 -17.309 -23.125  0.00  0.00    -0.476 OA
ENDROOT
BRANCH   1   4
ATOM      2  N   UNL     1      32.871 -13.294 -23.311  0.00  0.00    -0.404 NA
ATOM      3  N   UNL     1      33.851 -15.685 -25.889  0.00  0.00    -0.258 NA
ATOM      4  C   UNL     1      34.794 -16.392 -23.788  0.00  0.00    +0.159 C 
ATOM      5  C   UNL     1      34.217 -15.288 -23.146  0.00  0.00    +0.063 C 
ATOM      6  C   UNL     1      33.447 -14.371 -23.881  0.00  0.00    +0.136 C 
ATOM      7  C   UNL     1      34.381 -15.060 -21.773  0.00  0.00    +0.008 C 
ATOM      8  C   UNL     1      34.582 -16.541 -25.146  0.00  0.00    +0.130 C 
ATOM      9  C   UNL     1      33.053 -13.108 -21.983  0.00  0.00    +0.131 C 
ATOM     10  C   UNL     1      33.790 -13.953 -21.177  0.00  0.00    +0.032 C 
ATOM     11  C   UNL     1      33.310 -14.631 -25.234  0.00  0.00    +0.184 C 
BRANCH   9  13
ATOM     12  N   UNL     1      31.160  -9.663 -20.388  0.00  0.00    -0.242 NA
ATOM     13  C   UNL     1      32.408 -11.936 -21.440  0.00  0.00    +0.033 C 
ATOM     14  C   UNL     1      32.293 -10.782 -22.209  0.00  0.00    +0.023 C 
ATOM     15  C   UNL     1      31.899 -11.952 -20.145  0.00  0.00    +0.023 C 
ATOM     16  C   UNL     1      31.665  -9.683 -21.643  0.00  0.00    +0.099 C 
ATOM     17  C   UNL     1      31.290 -10.801 -19.671  0.00  0.00    +0.099 C 
ENDBRANCH   9  13
ENDBRANCH   1   4
BRANCH   1  18
ATOM     18  C   UNL     1      34.948 -18.577 -22.863  0.00  0.00    +0.184 C 
BRANCH  18  19
ATOM     19  C   UNL     1      35.469 -19.195 -21.559  0.00  0.00    -0.017 C 
BRANCH  19  20
ATOM     20  N   UNL     1      35.685 -18.119 -20.584  0.00  0.00    +0.384 N 
ATOM     21  H   UNL     1      36.639 -18.170 -20.226  0.00  0.00    -0.089 HD
ATOM     22  H   UNL     1      35.027 -18.221 -19.813  0.00  0.00    -0.089 HD
ATOM     23  H   UNL     1      35.540 -17.216 -21.037  0.00  0.00    -0.089 HD
ENDBRANCH  19  20
BRANCH  19  24
ATOM     24  C   UNL     1      34.520 -20.237 -20.935  0.00  0.00    +0.009 C 
BRANCH  24  26
ATOM     25  N   UNL     1      36.565 -21.757 -18.320  0.00  0.00    -0.312 N 
ATOM     26  C   UNL     1      35.109 -20.954 -19.753  0.00  0.00    -0.008 C 
ATOM     27  C   UNL     1      34.383 -21.659 -18.774  0.00  0.00    +0.011 C 
ATOM     28  C   UNL     1      35.326 -22.160 -17.874  0.00  0.00    +0.048 C 
ATOM     29  C   UNL     1      36.438 -21.020 -19.466  0.00  0.00    +0.058 C 
ATOM     30  C   UNL     1      33.019 -21.930 -18.548  0.00  0.00    +0.001 C 
ATOM     31  C   UNL     1      34.972 -22.922 -16.755  0.00  0.00    +0.015 C 
ATOM     32  C   UNL     1      32.649 -22.691 -17.433  0.00  0.00    +0.000 C 
ATOM     33  C   UNL     1      33.613 -23.179 -16.551  0.00  0.00    +0.001 C 
ATOM     34  H   UNL     1      37.418 -21.968 -17.877  0.00  0.00    +0.152 HD
ENDBRANCH  24  26
ENDBRANCH  19  24
ENDBRANCH  18  19
ENDBRANCH   1  18
TORSDOF 7
ENDMDL
MODEL 4
REMARK VINA RESULT:     -11.5      3.061      6.381
REMARK  Name = 6914614
REMARK  7 active torsions:
REMARK  status: ('A' for Active; 'I' for Inactive)
REMARK    1  A    between atoms: O_1  and  C_4
REMARK    2  A    between atoms: O_1  and  C_18
REMARK    3  A    between atoms: C_9  and  C_13
REMARK    4  A    between atoms: C_18  and  C_19
REMARK    5  A    between atoms: C_19  and  N_20
REMARK    6  A    between atoms: C_19  and  C_24
REMARK    7  A    between atoms: C_24  and  C_26
REMARK                            x       y       z     vdW  Elec       q    Type
REMARK                         _______ _______ _______ _____ _____    ______ ____
ROOT
ATOM      1  O   UNL     1      36.651 -23.520 -15.743  0.00  0.00    -0.476 OA
ENDROOT
BRANCH   1   4
ATOM      2  N   UNL     1      32.131 -23.871 -14.079  0.00  0.00    -0.404 NA
ATOM      3  N   UNL     1      35.366 -24.345 -12.453  0.00  0.00    -0.258 NA
ATOM      4  C   UNL     1      35.743 -23.757 -14.759  0.00  0.00    +0.159 C 
ATOM      5  C   UNL     1      34.362 -23.677 -14.976  0.00  0.00    +0.063 C 
ATOM      6  C   UNL     1      33.469 -23.934 -13.922  0.00  0.00    +0.136 C 
ATOM      7  C   UNL     1      33.825 -23.346 -16.227  0.00  0.00    +0.008 C 
ATOM      8  C   UNL     1      36.187 -24.091 -13.492  0.00  0.00    +0.130 C 
ATOM      9  C   UNL     1      31.653 -23.547 -15.302  0.00  0.00    +0.131 C 
ATOM     10  C   UNL     1      32.449 -23.278 -16.398  0.00  0.00    +0.032 C 
ATOM     11  C   UNL     1      34.037 -24.259 -12.702  0.00  0.00    +0.184 C 
BRANCH   9  13
ATOM     12  N   UNL     1      27.423 -23.404 -15.580  0.00  0.00    -0.242 NA
ATOM     13  C   UNL     1      30.213 -23.499 -15.397  0.00  0.00    +0.033 C 
ATOM     14  C   UNL     1      29.512 -22.422 -14.862  0.00  0.00    +0.023 C 
ATOM     15  C   UNL     1      29.517 -24.528 -16.023  0.00  0.00    +0.023 C 
ATOM     16  C   UNL     1      28.131 -22.421 -14.980  0.00  0.00    +0.099 C 
ATOM     17  C   UNL     1      28.135 -24.434 -16.088  0.00  0.00    +0.099 C 
ENDBRANCH   9  13
ENDBRANCH   1   4
BRANCH   1  18
ATOM     18  C   UNL     1      37.325 -22.262 -15.717  0.00  0.00    +0.184 C 
BRANCH  18  19
ATOM     19  C   UNL     1      36.800 -21.312 -16.801  0.00  0.00    -0.017 C 
BRANCH  19  20
ATOM     20  N   UNL     1      37.683 -20.140 -16.865  0.00  0.00    +0.384 N 
ATOM     21  H   UNL     1      37.499 -19.623 -17.725  0.00  0.00    -0.089 HD
ATOM     22  H   UNL     1      38.655 -20.446 -16.853  0.00  0.00    -0.089 HD
ATOM     23  H   UNL     1      37.506 -19.537 -16.061  0.00  0.00    -0.089 HD
ENDBRANCH  19  20
BRANCH  19  24
ATOM     24  C   UNL     1      36.722 -21.943 -18.204  0.00  0.00    +0.009 C 
BRANCH  24  26
ATOM     25  N   UNL     1      33.767 -20.822 -20.032  0.00  0.00    -0.312 N 
ATOM     26  C   UNL     1      35.691 -21.307 -19.093  0.00  0.00    -0.008 C 
ATOM     27  C   UNL     1      35.938 -20.312 -20.057  0.00  0.00    +0.011 C 
ATOM     28  C   UNL     1      34.704 -20.018 -20.642  0.00  0.00    +0.048 C 
ATOM     29  C   UNL     1      34.364 -21.611 -19.086  0.00  0.00    +0.058 C 
ATOM     30  C   UNL     1      37.081 -19.619 -20.504  0.00  0.00    +0.001 C 
ATOM     31  C   UNL     1      34.555 -19.064 -21.654  0.00  0.00    +0.015 C 
ATOM     32  C   UNL     1      36.948 -18.662 -21.516  0.00  0.00    +0.000 C 
ATOM     33  C   UNL     1      35.703 -18.390 -22.082  0.00  0.00    +0.001 C 
ATOM     34  H   UNL     1      32.806 -20.829 -20.246  0.00  0.00    +0.152 HD
ENDBRANCH  24  26
ENDBRANCH  19  24
ENDBRANCH  18  19
ENDBRANCH   1  18
TORSDOF 7
ENDMDL
MODEL 5
REMARK VINA RESULT:     -11.5      3.992      7.552
REMARK  Name = 6914614
REMARK  7 active torsions:
REMARK  status: ('A' for Active; 'I' for Inactive)
REMARK    1  A    between atoms: O_1  and  C_4
REMARK    2  A    between atoms: O_1  and  C_18
REMARK    3  A    between atoms: C_9  and  C_13
REMARK    4  A    between atoms: C_18  and  C_19
REMARK    5  A    between atoms: C_19  and  N_20
REMARK    6  A    between atoms: C_19  and  C_24
REMARK    7  A    between atoms: C_24  and  C_26
REMARK                            x       y       z     vdW  Elec       q    Type
REMARK                         _______ _______ _______ _____ _____    ______ ____
ROOT
ATOM      1  O   UNL     1      34.983 -14.565 -23.502  0.00  0.00    -0.476 OA
ENDROOT
BRANCH   1   4
ATOM      2  N   UNL     1      34.386 -19.231 -22.412  0.00  0.00    -0.404 NA
ATOM      3  N   UNL     1      33.686 -17.334 -25.451  0.00  0.00    -0.258 NA
ATOM      4  C   UNL     1      34.603 -15.835 -23.804  0.00  0.00    +0.159 C 
ATOM      5  C   UNL     1      34.712 -16.890 -22.889  0.00  0.00    +0.063 C 
ATOM      6  C   UNL     1      34.303 -18.183 -23.255  0.00  0.00    +0.136 C 
ATOM      7  C   UNL     1      35.221 -16.701 -21.597  0.00  0.00    +0.008 C 
ATOM      8  C   UNL     1      34.089 -16.109 -25.059  0.00  0.00    +0.130 C 
ATOM      9  C   UNL     1      34.884 -19.008 -21.173  0.00  0.00    +0.131 C 
ATOM     10  C   UNL     1      35.311 -17.775 -20.722  0.00  0.00    +0.032 C 
ATOM     11  C   UNL     1      33.805 -18.328 -24.539  0.00  0.00    +0.184 C 
BRANCH   9  13
ATOM     12  N   UNL     1      35.060 -22.436 -18.681  0.00  0.00    -0.242 NA
ATOM     13  C   UNL     1      34.943 -20.174 -20.325  0.00  0.00    +0.033 C 
ATOM     14  C   UNL     1      36.172 -20.654 -19.880  0.00  0.00    +0.023 C 
ATOM     15  C   UNL     1      33.774 -20.827 -19.946  0.00  0.00    +0.023 C 
ATOM     16  C   UNL     1      36.176 -21.777 -19.067  0.00  0.00    +0.099 C 
ATOM     17  C   UNL     1      33.885 -21.942 -19.131  0.00  0.00    +0.099 C 
ENDBRANCH   9  13
ENDBRANCH   1   4
BRANCH   1  18
ATOM     18  C   UNL     1      33.968 -13.674 -23.041  0.00  0.00    +0.184 C 
BRANCH  18  19
ATOM     19  C   UNL     1      33.998 -12.338 -23.793  0.00  0.00    -0.017 C 
BRANCH  19  20
ATOM     20  N   UNL     1      33.610 -12.577 -25.188  0.00  0.00    +0.384 N 
ATOM     21  H   UNL     1      32.756 -13.134 -25.213  0.00  0.00    -0.089 HD
ATOM     22  H   UNL     1      34.357 -13.078 -25.668  0.00  0.00    -0.089 HD
ATOM     23  H   UNL     1      33.447 -11.684 -25.654  0.00  0.00    -0.089 HD
ENDBRANCH  19  20
BRANCH  19  24
ATOM     24  C   UNL     1      33.064 -11.264 -23.203  0.00  0.00    +0.009 C 
BRANCH  24  26
ATOM     25  N   UNL     1      34.962  -8.187 -23.715  0.00  0.00    -0.312 N 
ATOM     26  C   UNL     1      33.606  -9.867 -23.316  0.00  0.00    -0.008 C 
ATOM     27  C   UNL     1      32.915  -8.687 -22.983  0.00  0.00    +0.011 C 
ATOM     28  C   UNL     1      33.793  -7.633 -23.244  0.00  0.00    +0.048 C 
ATOM     29  C   UNL     1      34.853  -9.551 -23.762  0.00  0.00    +0.058 C 
ATOM     30  C   UNL     1      31.630  -8.392 -22.485  0.00  0.00    +0.001 C 
ATOM     31  C   UNL     1      33.449  -6.293 -23.031  0.00  0.00    +0.015 C 
ATOM     32  C   UNL     1      31.272  -7.057 -22.267  0.00  0.00    +0.000 C 
ATOM     33  C   UNL     1      32.170  -6.024 -22.536  0.00  0.00    +0.001 C 
ATOM     34  H   UNL     1      35.760  -7.676 -23.980  0.00  0.00    +0.152 HD
ENDBRANCH  24  26
ENDBRANCH  19  24
ENDBRANCH  18  19
ENDBRANCH   1  18
TORSDOF 7
ENDMDL
MODEL 6
REMARK VINA RESULT:     -11.5      3.290      9.674
REMARK  Name = 6914614
REMARK  7 active torsions:
REMARK  status: ('A' for Active; 'I' for Inactive)
REMARK    1  A    between atoms: O_1  and  C_4
REMARK    2  A    between atoms: O_1  and  C_18
REMARK    3  A    between atoms: C_9  and  C_13
REMARK    4  A    between atoms: C_18  and  C_19
REMARK    5  A    between atoms: C_19  and  N_20
REMARK    6  A    between atoms: C_19  and  C_24
REMARK    7  A    between atoms: C_24  and  C_26
REMARK                            x       y       z     vdW  Elec       q    Type
REMARK                         _______ _______ _______ _____ _____    ______ ____
ROOT
ATOM      1  O   UNL     1      34.539 -24.053 -15.561  0.00  0.00    -0.476 OA
ENDROOT
BRANCH   1   4
ATOM      2  N   UNL     1      36.537 -20.889 -18.612  0.00  0.00    -0.404 NA
ATOM      3  N   UNL     1      37.781 -22.428 -15.544  0.00  0.00    -0.258 NA
ATOM      4  C   UNL     1      35.557 -23.251 -15.970  0.00  0.00    +0.159 C 
ATOM      5  C   UNL     1      35.479 -22.471 -17.130  0.00  0.00    +0.063 C 
ATOM      6  C   UNL     1      36.562 -21.658 -17.506  0.00  0.00    +0.136 C 
ATOM      7  C   UNL     1      34.340 -22.468 -17.947  0.00  0.00    +0.008 C 
ATOM      8  C   UNL     1      36.719 -23.193 -15.221  0.00  0.00    +0.130 C 
ATOM      9  C   UNL     1      35.419 -20.915 -19.375  0.00  0.00    +0.131 C 
ATOM     10  C   UNL     1      34.306 -21.680 -19.089  0.00  0.00    +0.032 C 
ATOM     11  C   UNL     1      37.668 -21.688 -16.673  0.00  0.00    +0.184 C 
BRANCH   9  13
ATOM     12  N   UNL     1      35.545 -18.424 -22.806  0.00  0.00    -0.242 NA
ATOM     13  C   UNL     1      35.462 -20.067 -20.543  0.00  0.00    +0.033 C 
ATOM     14  C   UNL     1      36.618 -19.355 -20.849  0.00  0.00    +0.023 C 
ATOM     15  C   UNL     1      34.348 -19.956 -21.369  0.00  0.00    +0.023 C 
ATOM     16  C   UNL     1      36.609 -18.556 -21.981  0.00  0.00    +0.099 C 
ATOM     17  C   UNL     1      34.440 -19.130 -22.478  0.00  0.00    +0.099 C 
ENDBRANCH   9  13
ENDBRANCH   1   4
BRANCH   1  18
ATOM     18  C   UNL     1      34.761 -24.843 -14.392  0.00  0.00    +0.184 C 
BRANCH  18  19
ATOM     19  C   UNL     1      33.935 -24.342 -13.201  0.00  0.00    -0.017 C 
BRANCH  19  20
ATOM     20  N   UNL     1      34.825 -23.620 -12.284  0.00  0.00    +0.384 N 
ATOM     21  H   UNL     1      34.830 -24.086 -11.377  0.00  0.00    -0.089 HD
ATOM     22  H   UNL     1      34.494 -22.662 -12.172  0.00  0.00    -0.089 HD
ATOM     23  H   UNL     1      35.771 -23.610 -12.666  0.00  0.00    -0.089 HD
ENDBRANCH  19  20
BRANCH  19  24
ATOM     24  C   UNL     1      32.773 -23.408 -13.592  0.00  0.00    +0.009 C 
BRANCH  24  26
ATOM     25  N   UNL     1      29.843 -25.585 -13.640  0.00  0.00    -0.312 N 
ATOM     26  C   UNL     1      31.474 -24.128 -13.821  0.00  0.00    -0.008 C 
ATOM     27  C   UNL     1      30.491 -23.770 -14.762  0.00  0.00    +0.011 C 
ATOM     28  C   UNL     1      29.464 -24.708 -14.631  0.00  0.00    +0.048 C 
ATOM     29  C   UNL     1      31.069 -25.235 -13.142  0.00  0.00    +0.058 C 
ATOM     30  C   UNL     1      30.355 -22.745 -15.720  0.00  0.00    +0.001 C 
ATOM     31  C   UNL     1      28.303 -24.672 -15.412  0.00  0.00    +0.015 C 
ATOM     32  C   UNL     1      29.200 -22.697 -16.509  0.00  0.00    +0.000 C 
ATOM     33  C   UNL     1      28.191 -23.647 -16.356  0.00  0.00    +0.001 C 
ATOM     34  H   UNL     1      29.308 -26.353 -13.334  0.00  0.00    +0.152 HD
ENDBRANCH  24  26
ENDBRANCH  19  24
ENDBRANCH  18  19
ENDBRANCH   1  18
TORSDOF 7
ENDMDL
MODEL 7
REMARK VINA RESULT:     -11.0      4.691      8.657
REMARK  Name = 6914614
REMARK  7 active torsions:
REMARK  status: ('A' for Active; 'I' for Inactive)
REMARK    1  A    between atoms: O_1  and  C_4
REMARK    2  A    between atoms: O_1  and  C_18
REMARK    3  A    between atoms: C_9  and  C_13
REMARK    4  A    between atoms: C_18  and  C_19
REMARK    5  A    between atoms: C_19  and  N_20
REMARK    6  A    between atoms: C_19  and  C_24
REMARK    7  A    between atoms: C_24  and  C_26
REMARK                            x       y       z     vdW  Elec       q    Type
REMARK                         _______ _______ _______ _____ _____    ______ ____
ROOT
ATOM      1  O   UNL     1      33.702 -12.755 -23.680  0.00  0.00    -0.476 OA
ENDROOT
BRANCH   1   4
ATOM      2  N   UNL     1      34.646 -17.466 -23.199  0.00  0.00    -0.404 NA
ATOM      3  N   UNL     1      33.551 -15.485 -26.063  0.00  0.00    -0.258 NA
ATOM      4  C   UNL     1      33.795 -14.022 -24.165  0.00  0.00    +0.159 C 
ATOM      5  C   UNL     1      34.192 -15.103 -23.369  0.00  0.00    +0.063 C 
ATOM      6  C   UNL     1      34.270 -16.392 -23.922  0.00  0.00    +0.136 C 
ATOM      7  C   UNL     1      34.520 -14.947 -22.015  0.00  0.00    +0.008 C 
ATOM      8  C   UNL     1      33.489 -14.265 -25.492  0.00  0.00    +0.130 C 
ATOM      9  C   UNL     1      34.955 -17.273 -21.896  0.00  0.00    +0.131 C 
ATOM     10  C   UNL     1      34.909 -16.047 -21.263  0.00  0.00    +0.032 C 
ATOM     11  C   UNL     1      33.938 -16.505 -25.262  0.00  0.00    +0.184 C 
BRANCH   9  13
ATOM     12  N   UNL     1      36.114 -20.777 -19.803  0.00  0.00    -0.242 NA
ATOM     13  C   UNL     1      35.349 -18.465 -21.183  0.00  0.00    +0.033 C 
ATOM     14  C   UNL     1      36.673 -18.642 -20.793  0.00  0.00    +0.023 C 
ATOM     15  C   UNL     1      34.408 -19.446 -20.883  0.00  0.00    +0.023 C 
ATOM     16  C   UNL     1      37.001 -19.804 -20.111  0.00  0.00    +0.099 C 
ATOM     17  C   UNL     1      34.837 -20.572 -20.198  0.00  0.00    +0.099 C 
ENDBRANCH   9  13
ENDBRANCH   1   4
BRANCH   1  18
ATOM     18  C   UNL     1      33.878 -11.686 -24.610  0.00  0.00    +0.184 C 
BRANCH  18  19
ATOM     19  C   UNL     1      34.416 -10.422 -23.930  0.00  0.00    -0.017 C 
BRANCH  19  20
ATOM     20  N   UNL     1      35.634  -9.995 -24.630  0.00  0.00    +0.384 N 
ATOM     21  H   UNL     1      36.427 -10.545 -24.298  0.00  0.00    -0.089 HD
ATOM     22  H   UNL     1      35.804  -9.007 -24.445  0.00  0.00    -0.089 HD
ATOM     23  H   UNL     1      35.517 -10.139 -25.633  0.00  0.00    -0.089 HD
ENDBRANCH  19  20
BRANCH  19  24
ATOM     24  C   UNL     1      33.422  -9.245 -23.917  0.00  0.00    +0.009 C 
BRANCH  24  26
ATOM     25  N   UNL     1      32.987  -7.452 -20.766  0.00  0.00    -0.312 N 
ATOM     26  C   UNL     1      33.101  -8.744 -22.537  0.00  0.00    -0.008 C 
ATOM     27  C   UNL     1      32.387  -9.451 -21.551  0.00  0.00    +0.011 C 
ATOM     28  C   UNL     1      32.326  -8.613 -20.435  0.00  0.00    +0.048 C 
ATOM     29  C   UNL     1      33.462  -7.526 -22.048  0.00  0.00    +0.058 C 
ATOM     30  C   UNL     1      31.779 -10.721 -21.479  0.00  0.00    +0.001 C 
ATOM     31  C   UNL     1      31.685  -8.982 -19.247  0.00  0.00    +0.015 C 
ATOM     32  C   UNL     1      31.134 -11.104 -20.298  0.00  0.00    +0.000 C 
ATOM     33  C   UNL     1      31.089 -10.246 -19.199  0.00  0.00    +0.001 C 
ATOM     34  H   UNL     1      33.101  -6.679 -20.167  0.00  0.00    +0.152 HD
ENDBRANCH  24  26
ENDBRANCH  19  24
ENDBRANCH  18  19
ENDBRANCH   1  18
TORSDOF 7
ENDMDL
MODEL 8
REMARK VINA RESULT:     -11.0      3.705      7.226
REMARK  Name = 6914614
REMARK  7 active torsions:
REMARK  status: ('A' for Active; 'I' for Inactive)
REMARK    1  A    between atoms: O_1  and  C_4
REMARK    2  A    between atoms: O_1  and  C_18
REMARK    3  A    between atoms: C_9  and  C_13
REMARK    4  A    between atoms: C_18  and  C_19
REMARK    5  A    between atoms: C_19  and  N_20
REMARK    6  A    between atoms: C_19  and  C_24
REMARK    7  A    between atoms: C_24  and  C_26
REMARK                            x       y       z     vdW  Elec       q    Type
REMARK                         _______ _______ _______ _____ _____    ______ ____
ROOT
ATOM      1  O   UNL     1      34.803 -14.691 -23.531  0.00  0.00    -0.476 OA
ENDROOT
BRANCH   1   4
ATOM      2  N   UNL     1      34.447 -19.355 -22.331  0.00  0.00    -0.404 NA
ATOM      3  N   UNL     1      33.678 -17.573 -25.424  0.00  0.00    -0.258 NA
ATOM      4  C   UNL     1      34.495 -15.987 -23.806  0.00  0.00    +0.159 C 
ATOM      5  C   UNL     1      34.651 -17.012 -22.864  0.00  0.00    +0.063 C 
ATOM      6  C   UNL     1      34.316 -18.334 -23.201  0.00  0.00    +0.136 C 
ATOM      7  C   UNL     1      35.134 -16.764 -21.572  0.00  0.00    +0.008 C 
ATOM      8  C   UNL     1      34.011 -16.319 -25.058  0.00  0.00    +0.130 C 
ATOM      9  C   UNL     1      34.918 -19.075 -21.094  0.00  0.00    +0.131 C 
ATOM     10  C   UNL     1      35.273 -17.810 -20.669  0.00  0.00    +0.032 C 
ATOM     11  C   UNL     1      33.841 -18.537 -24.486  0.00  0.00    +0.184 C 
BRANCH   9  13
ATOM     12  N   UNL     1      35.252 -22.427 -18.515  0.00  0.00    -0.242 NA
ATOM     13  C   UNL     1      35.031 -20.216 -20.216  0.00  0.00    +0.033 C 
ATOM     14  C   UNL     1      36.280 -20.625 -19.759  0.00  0.00    +0.023 C 
ATOM     15  C   UNL     1      33.893 -20.913 -19.823  0.00  0.00    +0.023 C 
ATOM     16  C   UNL     1      36.336 -21.725 -18.917  0.00  0.00    +0.099 C 
ATOM     17  C   UNL     1      34.056 -22.001 -18.979  0.00  0.00    +0.099 C 
ENDBRANCH   9  13
ENDBRANCH   1   4
BRANCH   1  18
ATOM     18  C   UNL     1      33.906 -13.692 -24.017  0.00  0.00    +0.184 C 
BRANCH  18  19
ATOM     19  C   UNL     1      33.708 -12.562 -22.999  0.00  0.00    -0.017 C 
BRANCH  19  20
ATOM     20  N   UNL     1      34.291 -11.331 -23.546  0.00  0.00    +0.384 N 
ATOM     21  H   UNL     1      34.172 -10.571 -22.876  0.00  0.00    -0.089 HD
ATOM     22  H   UNL     1      33.822 -11.091 -24.419  0.00  0.00    -0.089 HD
ATOM     23  H   UNL     1      35.286 -11.475 -23.722  0.00  0.00    -0.089 HD
ENDBRANCH  19  20
BRANCH  19  24
ATOM     24  C   UNL     1      32.233 -12.289 -22.644  0.00  0.00    +0.009 C 
BRANCH  24  26
ATOM     25  N   UNL     1      31.792 -10.887 -19.302  0.00  0.00    -0.312 N 
ATOM     26  C   UNL     1      32.057 -11.457 -21.405  0.00  0.00    -0.008 C 
ATOM     27  C   UNL     1      31.995 -10.052 -21.360  0.00  0.00    +0.011 C 
ATOM     28  C   UNL     1      31.826  -9.711 -20.016  0.00  0.00    +0.048 C 
ATOM     29  C   UNL     1      31.933 -11.956 -20.145  0.00  0.00    +0.058 C 
ATOM     30  C   UNL     1      32.063  -9.020 -22.318  0.00  0.00    +0.001 C 
ATOM     31  C   UNL     1      31.723  -8.385 -19.580  0.00  0.00    +0.015 C 
ATOM     32  C   UNL     1      31.961  -7.690 -21.897  0.00  0.00    +0.000 C 
ATOM     33  C   UNL     1      31.793  -7.378 -20.548  0.00  0.00    +0.001 C 
ATOM     34  H   UNL     1      31.683 -10.950 -18.326  0.00  0.00    +0.152 HD
ENDBRANCH  24  26
ENDBRANCH  19  24
ENDBRANCH  18  19
ENDBRANCH   1  18
TORSDOF 7
ENDMDL
MODEL 9
REMARK VINA RESULT:     -10.8      2.390     11.122
REMARK  Name = 6914614
REMARK  7 active torsions:
REMARK  status: ('A' for Active; 'I' for Inactive)
REMARK    1  A    between atoms: O_1  and  C_4
REMARK    2  A    between atoms: O_1  and  C_18
REMARK    3  A    between atoms: C_9  and  C_13
REMARK    4  A    between atoms: C_18  and  C_19
REMARK    5  A    between atoms: C_19  and  N_20
REMARK    6  A    between atoms: C_19  and  C_24
REMARK    7  A    between atoms: C_24  and  C_26
REMARK                            x       y       z     vdW  Elec       q    Type
REMARK                         _______ _______ _______ _____ _____    ______ ____
ROOT
ATOM      1  O   UNL     1      35.443 -17.691 -21.785  0.00  0.00    -0.476 OA
ENDROOT
BRANCH   1   4
ATOM      2  N   UNL     1      33.352 -13.719 -23.567  0.00  0.00    -0.404 NA
ATOM      3  N   UNL     1      34.422 -16.827 -25.157  0.00  0.00    -0.258 NA
ATOM      4  C   UNL     1      34.924 -16.955 -22.804  0.00  0.00    +0.159 C 
ATOM      5  C   UNL     1      34.395 -15.673 -22.610  0.00  0.00    +0.063 C 
ATOM      6  C   UNL     1      33.872 -14.956 -23.700  0.00  0.00    +0.136 C 
ATOM      7  C   UNL     1      34.366 -15.065 -21.348  0.00  0.00    +0.008 C 
ATOM      8  C   UNL     1      34.914 -17.479 -24.084  0.00  0.00    +0.130 C 
ATOM      9  C   UNL     1      33.342 -13.168 -22.331  0.00  0.00    +0.131 C 
ATOM     10  C   UNL     1      33.831 -13.792 -21.201  0.00  0.00    +0.032 C 
ATOM     11  C   UNL     1      33.920 -15.590 -24.930  0.00  0.00    +0.184 C 
BRANCH   9  13
ATOM     12  N   UNL     1      31.661  -9.278 -22.131  0.00  0.00    -0.242 NA
ATOM     13  C   UNL     1      32.770 -11.844 -22.263  0.00  0.00    +0.033 C 
ATOM     14  C   UNL     1      31.723 -11.578 -21.385  0.00  0.00    +0.023 C 
ATOM     15  C   UNL     1      33.261 -10.826 -23.075  0.00  0.00    +0.023 C 
ATOM     16  C   UNL     1      31.210 -10.291 -21.357  0.00  0.00    +0.099 C 
ATOM     17  C   UNL     1      32.677  -9.573 -22.972  0.00  0.00    +0.099 C 
ENDBRANCH   9  13
ENDBRANCH   1   4
BRANCH   1  18
ATOM     18  C   UNL     1      35.391 -19.111 -21.916  0.00  0.00    +0.184 C 
BRANCH  18  19
ATOM     19  C   UNL     1      34.837 -19.780 -20.652  0.00  0.00    -0.017 C 
BRANCH  19  20
ATOM     20  N   UNL     1      33.410 -20.057 -20.855  0.00  0.00    +0.384 N 
ATOM     21  H   UNL     1      33.286 -20.587 -21.717  0.00  0.00    -0.089 HD
ATOM     22  H   UNL     1      32.899 -19.177 -20.920  0.00  0.00    -0.089 HD
ATOM     23  H   UNL     1      33.054 -20.600 -20.068  0.00  0.00    -0.089 HD
ENDBRANCH  19  20
BRANCH  19  24
ATOM     24  C   UNL     1      35.544 -21.098 -20.278  0.00  0.00    +0.009 C 
BRANCH  24  26
ATOM     25  N   UNL     1      33.556 -22.796 -17.729  0.00  0.00    -0.312 N 
ATOM     26  C   UNL     1      34.962 -21.768 -19.066  0.00  0.00    -0.008 C 
ATOM     27  C   UNL     1      35.625 -21.972 -17.841  0.00  0.00    +0.011 C 
ATOM     28  C   UNL     1      34.716 -22.626 -17.007  0.00  0.00    +0.048 C 
ATOM     29  C   UNL     1      33.701 -22.275 -18.987  0.00  0.00    +0.058 C 
ATOM     30  C   UNL     1      36.909 -21.672 -17.341  0.00  0.00    +0.001 C 
ATOM     31  C   UNL     1      35.026 -22.997 -15.694  0.00  0.00    +0.015 C 
ATOM     32  C   UNL     1      37.233 -22.037 -16.030  0.00  0.00    +0.000 C 
ATOM     33  C   UNL     1      36.305 -22.689 -15.220  0.00  0.00    +0.001 C 
ATOM     34  H   UNL     1      32.741 -23.231 -17.390  0.00  0.00    +0.152 HD
ENDBRANCH  24  26
ENDBRANCH  19  24
ENDBRANCH  18  19
ENDBRANCH   1  18
TORSDOF 7
ENDMDL
