MODEL 1
REMARK VINA RESULT:     -11.4      0.000      0.000
REMARK  Name = 23650961
REMARK  5 active torsions:
REMARK  status: ('A' for Active; 'I' for Inactive)
REMARK    1  A    between atoms: N_1  and  C_23
REMARK    2  A    between atoms: C_5  and  C_12
REMARK    3  A    between atoms: C_23  and  C_24
REMARK    4  A    between atoms: C_24  and  C_25
REMARK    5  A    between atoms: C_25  and  C_27
REMARK                            x       y       z     vdW  Elec       q    Type
REMARK                         _______ _______ _______ _____ _____    ______ ____
ROOT
ATOM      1  N   UNL     1      35.035 -20.692 -20.398  0.00  0.00    -0.268 N 
ATOM      2  N   UNL     1      34.277 -22.069 -18.656  0.00  0.00    -0.342 NA
ATOM      3  N   UNL     1      36.456 -21.044 -18.564  0.00  0.00    -0.170 NA
ATOM      4  C   UNL     1      35.264 -21.287 -19.167  0.00  0.00    +0.144 C 
ATOM      5  C   UNL     1      35.711 -22.453 -16.760  0.00  0.00    +0.061 C 
ATOM      6  C   UNL     1      34.533 -22.633 -17.457  0.00  0.00    +0.123 C 
ATOM      7  C   UNL     1      36.646 -21.640 -17.369  0.00  0.00    +0.113 C 
ATOM      8  C   UNL     1      33.441 -23.491 -16.906  0.00  0.00    +0.067 C 
ATOM      9  H   UNL     1      34.174 -20.861 -20.842  0.00  0.00    +0.159 HD
ENDROOT
BRANCH   5  12
ATOM     10  N   UNL     1      35.195 -22.811 -14.385  0.00  0.00    -0.314 N 
ATOM     11  N   UNL     1      36.950 -23.899 -15.207  0.00  0.00    -0.315 N 
ATOM     12  C   UNL     1      35.974 -23.060 -15.483  0.00  0.00    +0.171 C 
ATOM     13  C   UNL     1      35.702 -23.534 -13.336  0.00  0.00    +0.059 C 
ATOM     14  C   UNL     1      36.796 -24.205 -13.874  0.00  0.00    +0.055 C 
ATOM     15  C   UNL     1      37.556 -25.052 -13.049  0.00  0.00    -0.008 C 
ATOM     16  C   UNL     1      35.309 -23.656 -12.002  0.00  0.00    +0.011 C 
ATOM     17  C   UNL     1      36.076 -24.502 -11.194  0.00  0.00    -0.021 C 
ATOM     18  C   UNL     1      37.179 -25.189 -11.706  0.00  0.00    -0.007 C 
ATOM     19  C   UNL     1      38.744 -25.807 -13.549  0.00  0.00    +0.032 C 
ATOM     20  C   UNL     1      35.706 -24.675  -9.758  0.00  0.00    +0.031 C 
ATOM     21  H   UNL     1      34.411 -22.218 -14.353  0.00  0.00    +0.149 HD
ATOM     22  H   UNL     1      37.641 -24.236 -15.823  0.00  0.00    +0.149 HD
ENDBRANCH   5  12
BRANCH   1  23
ATOM     23  C   UNL     1      35.988 -19.837 -21.064  0.00  0.00    +0.098 C 
BRANCH  23  24
ATOM     24  C   UNL     1      35.318 -18.558 -21.556  0.00  0.00    +0.022 C 
BRANCH  24  25
ATOM     25  C   UNL     1      34.986 -18.609 -23.048  0.00  0.00    +0.002 C 
BRANCH  25  27
ATOM     26  N   UNL     1      33.504 -14.711 -24.172  0.00  0.00    +0.385 N 
ATOM     27  C   UNL     1      34.948 -17.208 -23.654  0.00  0.00    -0.004 C 
ATOM     28  C   UNL     1      34.727 -16.146 -22.572  0.00  0.00    -0.023 C 
ATOM     29  C   UNL     1      33.852 -17.098 -24.719  0.00  0.00    -0.023 C 
ATOM     30  C   UNL     1      34.587 -14.751 -23.181  0.00  0.00    -0.077 C 
ATOM     31  C   UNL     1      33.743 -15.670 -25.258  0.00  0.00    -0.077 C 
ATOM     32  C   UNL     1      33.349 -13.359 -24.709  0.00  0.00    -0.101 C 
ATOM     33  H   UNL     1      32.638 -14.977 -23.702  0.00  0.00    -0.080 HD
ENDBRANCH  25  27
ENDBRANCH  24  25
ENDBRANCH  23  24
ENDBRANCH   1  23
TORSDOF 5
ENDMDL
MODEL 2
REMARK VINA RESULT:     -11.4      3.717     12.966
REMARK  Name = 23650961
REMARK  5 active torsions:
REMARK  status: ('A' for Active; 'I' for Inactive)
REMARK    1  A    between atoms: N_1  and  C_23
REMARK    2  A    between atoms: C_5  and  C_12
REMARK    3  A    between atoms: C_23  and  C_24
REMARK    4  A    between atoms: C_24  and  C_25
REMARK    5  A    between atoms: C_25  and  C_27
REMARK                            x       y       z     vdW  Elec       q    Type
REMARK                         _______ _______ _______ _____ _____    ______ ____
ROOT
ATOM      1  N   UNL     1      34.378 -17.917 -24.663  0.00  0.00    -0.268 N 
ATOM      2  N   UNL     1      33.603 -15.814 -25.358  0.00  0.00    -0.342 NA
ATOM      3  N   UNL     1      34.748 -16.077 -23.255  0.00  0.00    -0.170 NA
ATOM      4  C   UNL     1      34.239 -16.560 -24.417  0.00  0.00    +0.144 C 
ATOM      5  C   UNL     1      33.965 -13.905 -23.937  0.00  0.00    +0.061 C 
ATOM      6  C   UNL     1      33.484 -14.498 -25.087  0.00  0.00    +0.123 C 
ATOM      7  C   UNL     1      34.594 -14.752 -23.047  0.00  0.00    +0.113 C 
ATOM      8  C   UNL     1      32.783 -13.688 -26.130  0.00  0.00    +0.067 C 
ATOM      9  H   UNL     1      34.013 -18.276 -25.503  0.00  0.00    +0.159 HD
ENDROOT
BRANCH   5  12
ATOM     10  N   UNL     1      34.695 -11.571 -24.172  0.00  0.00    -0.314 N 
ATOM     11  N   UNL     1      32.906 -11.942 -22.906  0.00  0.00    -0.315 N 
ATOM     12  C   UNL     1      33.832 -12.500 -23.657  0.00  0.00    +0.171 C 
ATOM     13  C   UNL     1      34.301 -10.336 -23.723  0.00  0.00    +0.059 C 
ATOM     14  C   UNL     1      33.183 -10.594 -22.935  0.00  0.00    +0.055 C 
ATOM     15  C   UNL     1      32.522  -9.522 -22.312  0.00  0.00    -0.008 C 
ATOM     16  C   UNL     1      34.812  -9.054 -23.932  0.00  0.00    +0.011 C 
ATOM     17  C   UNL     1      34.143  -7.999 -23.304  0.00  0.00    -0.021 C 
ATOM     18  C   UNL     1      33.018  -8.226 -22.508  0.00  0.00    -0.007 C 
ATOM     19  C   UNL     1      31.317  -9.714 -21.451  0.00  0.00    +0.032 C 
ATOM     20  C   UNL     1      34.640  -6.603 -23.491  0.00  0.00    +0.031 C 
ATOM     21  H   UNL     1      35.462 -11.756 -24.759  0.00  0.00    +0.149 HD
ATOM     22  H   UNL     1      32.173 -12.392 -22.425  0.00  0.00    +0.149 HD
ENDBRANCH   5  12
BRANCH   1  23
ATOM     23  C   UNL     1      35.029 -18.832 -23.757  0.00  0.00    +0.098 C 
BRANCH  23  24
ATOM     24  C   UNL     1      34.136 -19.133 -22.557  0.00  0.00    +0.022 C 
BRANCH  24  25
ATOM     25  C   UNL     1      34.932 -19.283 -21.260  0.00  0.00    +0.002 C 
BRANCH  25  27
ATOM     26  N   UNL     1      33.939 -22.069 -18.112  0.00  0.00    +0.385 N 
ATOM     27  C   UNL     1      34.604 -20.600 -20.559  0.00  0.00    -0.004 C 
ATOM     28  C   UNL     1      33.210 -20.553 -19.926  0.00  0.00    -0.023 C 
ATOM     29  C   UNL     1      35.649 -20.929 -19.488  0.00  0.00    -0.023 C 
ATOM     30  C   UNL     1      32.914 -21.830 -19.137  0.00  0.00    -0.077 C 
ATOM     31  C   UNL     1      35.272 -22.194 -18.715  0.00  0.00    -0.077 C 
ATOM     32  C   UNL     1      33.615 -23.264 -17.333  0.00  0.00    -0.101 C 
ATOM     33  H   UNL     1      33.951 -21.264 -17.485  0.00  0.00    -0.080 HD
ENDBRANCH  25  27
ENDBRANCH  24  25
ENDBRANCH  23  24
ENDBRANCH   1  23
TORSDOF 5
ENDMDL
MODEL 3
REMARK VINA RESULT:     -11.4      2.136      3.813
REMARK  Name = 23650961
REMARK  5 active torsions:
REMARK  status: ('A' for Active; 'I' for Inactive)
REMARK    1  A    between atoms: N_1  and  C_23
REMARK    2  A    between atoms: C_5  and  C_12
REMARK    3  A    between atoms: C_23  and  C_24
REMARK    4  A    between atoms: C_24  and  C_25
REMARK    5  A    between atoms: C_25  and  C_27
REMARK                            x       y       z     vdW  Elec       q    Type
REMARK                         _______ _______ _______ _____ _____    ______ ____
ROOT
ATOM      1  N   UNL     1      35.235 -19.345 -22.227  0.00  0.00    -0.268 N 
ATOM      2  N   UNL     1      35.765 -20.564 -20.292  0.00  0.00    -0.342 NA
ATOM      3  N   UNL     1      33.472 -20.210 -20.942  0.00  0.00    -0.170 NA
ATOM      4  C   UNL     1      34.810 -20.063 -21.119  0.00  0.00    +0.144 C 
ATOM      5  C   UNL     1      33.980 -21.464 -18.951  0.00  0.00    +0.061 C 
ATOM      6  C   UNL     1      35.317 -21.256 -19.224  0.00  0.00    +0.123 C 
ATOM      7  C   UNL     1      33.094 -20.912 -19.854  0.00  0.00    +0.113 C 
ATOM      8  C   UNL     1      36.377 -21.802 -18.323  0.00  0.00    +0.067 C 
ATOM      9  H   UNL     1      36.203 -19.234 -22.363  0.00  0.00    +0.159 HD
ENDROOT
BRANCH   5  12
ATOM     10  N   UNL     1      32.180 -22.399 -17.564  0.00  0.00    -0.314 N 
ATOM     11  N   UNL     1      34.265 -22.766 -16.887  0.00  0.00    -0.315 N 
ATOM     12  C   UNL     1      33.513 -22.203 -17.809  0.00  0.00    +0.171 C 
ATOM     13  C   UNL     1      32.067 -23.134 -16.412  0.00  0.00    +0.059 C 
ATOM     14  C   UNL     1      33.381 -23.351 -16.009  0.00  0.00    +0.055 C 
ATOM     15  C   UNL     1      33.626 -24.088 -14.838  0.00  0.00    -0.008 C 
ATOM     16  C   UNL     1      30.960 -23.614 -15.709  0.00  0.00    +0.011 C 
ATOM     17  C   UNL     1      31.222 -24.344 -14.546  0.00  0.00    -0.021 C 
ATOM     18  C   UNL     1      32.529 -24.578 -14.115  0.00  0.00    -0.007 C 
ATOM     19  C   UNL     1      35.006 -24.364 -14.336  0.00  0.00    +0.032 C 
ATOM     20  C   UNL     1      30.079 -24.885 -13.750  0.00  0.00    +0.031 C 
ATOM     21  H   UNL     1      31.436 -22.070 -18.117  0.00  0.00    +0.149 HD
ATOM     22  H   UNL     1      35.249 -22.769 -16.836  0.00  0.00    +0.149 HD
ENDBRANCH   5  12
BRANCH   1  23
ATOM     23  C   UNL     1      34.338 -18.755 -23.190  0.00  0.00    +0.098 C 
BRANCH  23  24
ATOM     24  C   UNL     1      34.865 -17.402 -23.662  0.00  0.00    +0.022 C 
BRANCH  24  25
ATOM     25  C   UNL     1      33.993 -16.785 -24.756  0.00  0.00    +0.002 C 
BRANCH  25  27
ATOM     26  N   UNL     1      34.162 -12.520 -24.095  0.00  0.00    +0.385 N 
ATOM     27  C   UNL     1      33.551 -15.373 -24.380  0.00  0.00    -0.004 C 
ATOM     28  C   UNL     1      33.647 -14.428 -25.583  0.00  0.00    -0.023 C 
ATOM     29  C   UNL     1      34.390 -14.823 -23.222  0.00  0.00    -0.023 C 
ATOM     30  C   UNL     1      33.303 -12.990 -25.190  0.00  0.00    -0.077 C 
ATOM     31  C   UNL     1      34.021 -13.373 -22.907  0.00  0.00    -0.077 C 
ATOM     32  C   UNL     1      33.856 -11.128 -23.765  0.00  0.00    -0.101 C 
ATOM     33  H   UNL     1      35.131 -12.576 -24.409  0.00  0.00    -0.080 HD
ENDBRANCH  25  27
ENDBRANCH  24  25
ENDBRANCH  23  24
ENDBRANCH   1  23
TORSDOF 5
ENDMDL
MODEL 4
REMARK VINA RESULT:     -11.1      3.941     13.436
REMARK  Name = 23650961
REMARK  5 active torsions:
REMARK  status: ('A' for Active; 'I' for Inactive)
REMARK    1  A    between atoms: N_1  and  C_23
REMARK    2  A    between atoms: C_5  and  C_12
REMARK    3  A    between atoms: C_23  and  C_24
REMARK    4  A    between atoms: C_24  and  C_25
REMARK    5  A    between atoms: C_25  and  C_27
REMARK                            x       y       z     vdW  Elec       q    Type
REMARK                         _______ _______ _______ _____ _____    ______ ____
ROOT
ATOM      1  N   UNL     1      34.778 -16.625 -23.363  0.00  0.00    -0.268 N 
ATOM      2  N   UNL     1      34.031 -14.667 -24.420  0.00  0.00    -0.342 NA
ATOM      3  N   UNL     1      34.567 -14.678 -22.071  0.00  0.00    -0.170 NA
ATOM      4  C   UNL     1      34.449 -15.281 -23.282  0.00  0.00    +0.144 C 
ATOM      5  C   UNL     1      33.802 -12.652 -23.123  0.00  0.00    +0.061 C 
ATOM      6  C   UNL     1      33.718 -13.360 -24.305  0.00  0.00    +0.123 C 
ATOM      7  C   UNL     1      34.236 -13.370 -22.027  0.00  0.00    +0.113 C 
ATOM      8  C   UNL     1      33.261 -12.696 -25.563  0.00  0.00    +0.067 C 
ATOM      9  H   UNL     1      34.697 -17.070 -24.237  0.00  0.00    +0.159 HD
ENDROOT
BRANCH   5  12
ATOM     10  N   UNL     1      32.287 -10.837 -22.454  0.00  0.00    -0.314 N 
ATOM     11  N   UNL     1      34.206 -10.245 -23.405  0.00  0.00    -0.315 N 
ATOM     12  C   UNL     1      33.464 -11.258 -23.010  0.00  0.00    +0.171 C 
ATOM     13  C   UNL     1      32.268  -9.467 -22.494  0.00  0.00    +0.059 C 
ATOM     14  C   UNL     1      33.476  -9.121 -23.092  0.00  0.00    +0.055 C 
ATOM     15  C   UNL     1      33.780  -7.763 -23.288  0.00  0.00    -0.008 C 
ATOM     16  C   UNL     1      31.325  -8.527 -22.072  0.00  0.00    +0.011 C 
ATOM     17  C   UNL     1      31.643  -7.181 -22.275  0.00  0.00    -0.021 C 
ATOM     18  C   UNL     1      32.848  -6.803 -22.872  0.00  0.00    -0.007 C 
ATOM     19  C   UNL     1      35.054  -7.309 -23.922  0.00  0.00    +0.032 C 
ATOM     20  C   UNL     1      30.676  -6.128 -21.843  0.00  0.00    +0.031 C 
ATOM     21  H   UNL     1      31.579 -11.415 -22.090  0.00  0.00    +0.149 HD
ATOM     22  H   UNL     1      35.092 -10.283 -23.834  0.00  0.00    +0.149 HD
ENDBRANCH   5  12
BRANCH   1  23
ATOM     23  C   UNL     1      35.236 -17.407 -22.240  0.00  0.00    +0.098 C 
BRANCH  23  24
ATOM     24  C   UNL     1      34.585 -18.787 -22.241  0.00  0.00    +0.022 C 
BRANCH  24  25
ATOM     25  C   UNL     1      35.479 -19.855 -21.608  0.00  0.00    +0.002 C 
BRANCH  25  27
ATOM     26  N   UNL     1      33.687 -22.411 -18.623  0.00  0.00    +0.385 N 
ATOM     27  C   UNL     1      34.920 -20.319 -20.266  0.00  0.00    -0.004 C 
ATOM     28  C   UNL     1      35.713 -21.512 -19.723  0.00  0.00    -0.023 C 
ATOM     29  C   UNL     1      33.439 -20.693 -20.386  0.00  0.00    -0.023 C 
ATOM     30  C   UNL     1      35.098 -22.047 -18.429  0.00  0.00    -0.077 C 
ATOM     31  C   UNL     1      32.899 -21.255 -19.069  0.00  0.00    -0.077 C 
ATOM     32  C   UNL     1      33.127 -22.968 -17.392  0.00  0.00    -0.101 C 
ATOM     33  H   UNL     1      33.644 -23.122 -19.353  0.00  0.00    -0.080 HD
ENDBRANCH  25  27
ENDBRANCH  24  25
ENDBRANCH  23  24
ENDBRANCH   1  23
TORSDOF 5
ENDMDL
MODEL 5
REMARK VINA RESULT:     -10.9      4.501     14.047
REMARK  Name = 23650961
REMARK  5 active torsions:
REMARK  status: ('A' for Active; 'I' for Inactive)
REMARK    1  A    between atoms: N_1  and  C_23
REMARK    2  A    between atoms: C_5  and  C_12
REMARK    3  A    between atoms: C_23  and  C_24
REMARK    4  A    between atoms: C_24  and  C_25
REMARK    5  A    between atoms: C_25  and  C_27
REMARK                            x       y       z     vdW  Elec       q    Type
REMARK                         _______ _______ _______ _____ _____    ______ ____
ROOT
ATOM      1  N   UNL     1      33.827 -15.476 -22.875  0.00  0.00    -0.268 N 
ATOM      2  N   UNL     1      32.820 -13.610 -21.869  0.00  0.00    -0.342 NA
ATOM      3  N   UNL     1      34.151 -13.373 -23.863  0.00  0.00    -0.170 NA
ATOM      4  C   UNL     1      33.592 -14.110 -22.869  0.00  0.00    +0.144 C 
ATOM      5  C   UNL     1      33.134 -11.437 -22.857  0.00  0.00    +0.061 C 
ATOM      6  C   UNL     1      32.613 -12.277 -21.893  0.00  0.00    +0.123 C 
ATOM      7  C   UNL     1      33.903 -12.047 -23.827  0.00  0.00    +0.113 C 
ATOM      8  C   UNL     1      31.762 -11.740 -20.788  0.00  0.00    +0.067 C 
ATOM      9  H   UNL     1      33.426 -16.019 -22.158  0.00  0.00    +0.159 HD
ENDROOT
BRANCH   5  12
ATOM     10  N   UNL     1      31.737  -9.462 -22.430  0.00  0.00    -0.314 N 
ATOM     11  N   UNL     1      33.752  -9.100 -23.294  0.00  0.00    -0.315 N 
ATOM     12  C   UNL     1      32.907 -10.017 -22.874  0.00  0.00    +0.171 C 
ATOM     13  C   UNL     1      31.834  -8.102 -22.576  0.00  0.00    +0.059 C 
ATOM     14  C   UNL     1      33.101  -7.901 -23.116  0.00  0.00    +0.055 C 
ATOM     15  C   UNL     1      33.528  -6.591 -23.394  0.00  0.00    -0.008 C 
ATOM     16  C   UNL     1      30.949  -7.061 -22.289  0.00  0.00    +0.011 C 
ATOM     17  C   UNL     1      31.390  -5.764 -22.572  0.00  0.00    -0.021 C 
ATOM     18  C   UNL     1      32.655  -5.530 -23.115  0.00  0.00    -0.007 C 
ATOM     19  C   UNL     1      34.870  -6.290 -23.975  0.00  0.00    +0.032 C 
ATOM     20  C   UNL     1      30.489  -4.607 -22.286  0.00  0.00    +0.031 C 
ATOM     21  H   UNL     1      30.963  -9.951 -22.071  0.00  0.00    +0.149 HD
ATOM     22  H   UNL     1      34.656  -9.241 -23.659  0.00  0.00    +0.149 HD
ENDBRANCH   5  12
BRANCH   1  23
ATOM     23  C   UNL     1      34.626 -16.148 -23.871  0.00  0.00    +0.098 C 
BRANCH  23  24
ATOM     24  C   UNL     1      34.835 -17.613 -23.501  0.00  0.00    +0.022 C 
BRANCH  24  25
ATOM     25  C   UNL     1      35.701 -17.781 -22.252  0.00  0.00    +0.002 C 
BRANCH  25  27
ATOM     26  N   UNL     1      35.041 -20.879 -19.315  0.00  0.00    +0.385 N 
ATOM     27  C   UNL     1      35.534 -19.174 -21.647  0.00  0.00    -0.004 C 
ATOM     28  C   UNL     1      34.141 -19.342 -21.031  0.00  0.00    -0.023 C 
ATOM     29  C   UNL     1      36.605 -19.446 -20.586  0.00  0.00    -0.023 C 
ATOM     30  C   UNL     1      34.000 -20.697 -20.335  0.00  0.00    -0.077 C 
ATOM     31  C   UNL     1      36.383 -20.798 -19.906  0.00  0.00    -0.077 C 
ATOM     32  C   UNL     1      34.863 -22.156 -18.623  0.00  0.00    -0.101 C 
ATOM     33  H   UNL     1      34.950 -20.124 -18.635  0.00  0.00    -0.080 HD
ENDBRANCH  25  27
ENDBRANCH  24  25
ENDBRANCH  23  24
ENDBRANCH   1  23
TORSDOF 5
ENDMDL
MODEL 6
REMARK VINA RESULT:     -10.9      3.098     12.541
REMARK  Name = 23650961
REMARK  5 active torsions:
REMARK  status: ('A' for Active; 'I' for Inactive)
REMARK    1  A    between atoms: N_1  and  C_23
REMARK    2  A    between atoms: C_5  and  C_12
REMARK    3  A    between atoms: C_23  and  C_24
REMARK    4  A    between atoms: C_24  and  C_25
REMARK    5  A    between atoms: C_25  and  C_27
REMARK                            x       y       z     vdW  Elec       q    Type
REMARK                         _______ _______ _______ _____ _____    ______ ____
ROOT
ATOM      1  N   UNL     1      35.361 -18.360 -23.013  0.00  0.00    -0.268 N 
ATOM      2  N   UNL     1      34.312 -16.529 -24.039  0.00  0.00    -0.342 NA
ATOM      3  N   UNL     1      35.070 -16.401 -21.755  0.00  0.00    -0.170 NA
ATOM      4  C   UNL     1      34.900 -17.055 -22.933  0.00  0.00    +0.144 C 
ATOM      5  C   UNL     1      33.996 -14.504 -22.776  0.00  0.00    +0.061 C 
ATOM      6  C   UNL     1      33.874 -15.258 -23.926  0.00  0.00    +0.123 C 
ATOM      7  C   UNL     1      34.609 -15.134 -21.712  0.00  0.00    +0.113 C 
ATOM      8  C   UNL     1      33.229 -14.691 -25.149  0.00  0.00    +0.067 C 
ATOM      9  H   UNL     1      35.243 -18.843 -23.863  0.00  0.00    +0.159 HD
ENDROOT
BRANCH   5  12
ATOM     10  N   UNL     1      34.097 -12.121 -23.366  0.00  0.00    -0.314 N 
ATOM     11  N   UNL     1      32.527 -12.732 -21.916  0.00  0.00    -0.315 N 
ATOM     12  C   UNL     1      33.525 -13.149 -22.666  0.00  0.00    +0.171 C 
ATOM     13  C   UNL     1      33.425 -10.969 -23.045  0.00  0.00    +0.059 C 
ATOM     14  C   UNL     1      32.450 -11.376 -22.140  0.00  0.00    +0.055 C 
ATOM     15  C   UNL     1      31.570 -10.421 -21.603  0.00  0.00    -0.008 C 
ATOM     16  C   UNL     1      33.582  -9.644 -23.458  0.00  0.00    +0.011 C 
ATOM     17  C   UNL     1      32.699  -8.706 -22.914  0.00  0.00    -0.021 C 
ATOM     18  C   UNL     1      31.710  -9.085 -22.003  0.00  0.00    -0.007 C 
ATOM     19  C   UNL     1      30.498 -10.776 -20.626  0.00  0.00    +0.032 C 
ATOM     20  C   UNL     1      32.815  -7.273 -23.318  0.00  0.00    +0.031 C 
ATOM     21  H   UNL     1      34.855 -12.195 -23.988  0.00  0.00    +0.149 HD
ATOM     22  H   UNL     1      31.957 -13.274 -21.323  0.00  0.00    +0.149 HD
ENDBRANCH   5  12
BRANCH   1  23
ATOM     23  C   UNL     1      36.006 -19.051 -21.922  0.00  0.00    +0.098 C 
BRANCH  23  24
ATOM     24  C   UNL     1      34.982 -19.802 -21.076  0.00  0.00    +0.022 C 
BRANCH  24  25
ATOM     25  C   UNL     1      35.575 -21.044 -20.408  0.00  0.00    +0.002 C 
BRANCH  25  27
ATOM     26  N   UNL     1      34.055 -23.174 -16.972  0.00  0.00    +0.385 N 
ATOM     27  C   UNL     1      34.932 -21.299 -19.047  0.00  0.00    -0.004 C 
ATOM     28  C   UNL     1      35.914 -21.992 -18.096  0.00  0.00    -0.023 C 
ATOM     29  C   UNL     1      33.663 -22.145 -19.187  0.00  0.00    -0.023 C 
ATOM     30  C   UNL     1      35.247 -22.341 -16.765  0.00  0.00    -0.077 C 
ATOM     31  C   UNL     1      33.070 -22.489 -17.820  0.00  0.00    -0.077 C 
ATOM     32  C   UNL     1      33.457 -23.543 -15.689  0.00  0.00    -0.101 C 
ATOM     33  H   UNL     1      34.346 -24.026 -17.454  0.00  0.00    -0.080 HD
ENDBRANCH  25  27
ENDBRANCH  24  25
ENDBRANCH  23  24
ENDBRANCH   1  23
TORSDOF 5
ENDMDL
MODEL 7
REMARK VINA RESULT:     -10.8      3.567     12.643
REMARK  Name = 23650961
REMARK  5 active torsions:
REMARK  status: ('A' for Active; 'I' for Inactive)
REMARK    1  A    between atoms: N_1  and  C_23
REMARK    2  A    between atoms: C_5  and  C_12
REMARK    3  A    between atoms: C_23  and  C_24
REMARK    4  A    between atoms: C_24  and  C_25
REMARK    5  A    between atoms: C_25  and  C_27
REMARK                            x       y       z     vdW  Elec       q    Type
REMARK                         _______ _______ _______ _____ _____    ______ ____
ROOT
ATOM      1  N   UNL     1      34.534 -18.260 -24.334  0.00  0.00    -0.268 N 
ATOM      2  N   UNL     1      33.679 -16.202 -25.069  0.00  0.00    -0.342 NA
ATOM      3  N   UNL     1      34.765 -16.396 -22.927  0.00  0.00    -0.170 NA
ATOM      4  C   UNL     1      34.320 -16.910 -24.102  0.00  0.00    +0.144 C 
ATOM      5  C   UNL     1      33.898 -14.269 -23.650  0.00  0.00    +0.061 C 
ATOM      6  C   UNL     1      33.485 -14.892 -24.811  0.00  0.00    +0.123 C 
ATOM      7  C   UNL     1      34.539 -15.079 -22.734  0.00  0.00    +0.113 C 
ATOM      8  C   UNL     1      32.780 -14.124 -25.882  0.00  0.00    +0.067 C 
ATOM      9  H   UNL     1      34.215 -18.641 -25.183  0.00  0.00    +0.159 HD
ENDROOT
BRANCH   5  12
ATOM     10  N   UNL     1      32.680 -12.430 -22.568  0.00  0.00    -0.314 N 
ATOM     11  N   UNL     1      34.397 -11.873 -23.865  0.00  0.00    -0.315 N 
ATOM     12  C   UNL     1      33.686 -12.872 -23.385  0.00  0.00    +0.171 C 
ATOM     13  C   UNL     1      32.746 -11.062 -22.520  0.00  0.00    +0.059 C 
ATOM     14  C   UNL     1      33.826 -10.738 -23.337  0.00  0.00    +0.055 C 
ATOM     15  C   UNL     1      34.174  -9.387 -23.510  0.00  0.00    -0.008 C 
ATOM     16  C   UNL     1      31.977 -10.107 -21.852  0.00  0.00    +0.011 C 
ATOM     17  C   UNL     1      32.337  -8.768 -22.035  0.00  0.00    -0.021 C 
ATOM     18  C   UNL     1      33.415  -8.412 -22.849  0.00  0.00    -0.007 C 
ATOM     19  C   UNL     1      35.317  -8.956 -24.369  0.00  0.00    +0.032 C 
ATOM     20  C   UNL     1      31.554  -7.700 -21.346  0.00  0.00    +0.031 C 
ATOM     21  H   UNL     1      32.025 -12.995 -22.099  0.00  0.00    +0.149 HD
ATOM     22  H   UNL     1      35.171 -11.927 -24.472  0.00  0.00    +0.149 HD
ENDBRANCH   5  12
BRANCH   1  23
ATOM     23  C   UNL     1      35.200 -19.136 -23.400  0.00  0.00    +0.098 C 
BRANCH  23  24
ATOM     24  C   UNL     1      34.325 -19.387 -22.175  0.00  0.00    +0.022 C 
BRANCH  24  25
ATOM     25  C   UNL     1      35.148 -19.584 -20.901  0.00  0.00    +0.002 C 
BRANCH  25  27
ATOM     26  N   UNL     1      33.898 -22.268 -17.756  0.00  0.00    +0.385 N 
ATOM     27  C   UNL     1      34.761 -20.878 -20.188  0.00  0.00    -0.004 C 
ATOM     28  C   UNL     1      33.321 -20.810 -19.669  0.00  0.00    -0.023 C 
ATOM     29  C   UNL     1      35.715 -21.173 -19.027  0.00  0.00    -0.023 C 
ATOM     30  C   UNL     1      32.959 -22.061 -18.867  0.00  0.00    -0.077 C 
ATOM     31  C   UNL     1      35.275 -22.413 -18.247  0.00  0.00    -0.077 C 
ATOM     32  C   UNL     1      33.509 -23.438 -16.968  0.00  0.00    -0.101 C 
ATOM     33  H   UNL     1      33.862 -21.443 -17.156  0.00  0.00    -0.080 HD
ENDBRANCH  25  27
ENDBRANCH  24  25
ENDBRANCH  23  24
ENDBRANCH   1  23
TORSDOF 5
ENDMDL
MODEL 8
REMARK VINA RESULT:     -10.3      8.119     12.664
REMARK  Name = 23650961
REMARK  5 active torsions:
REMARK  status: ('A' for Active; 'I' for Inactive)
REMARK    1  A    between atoms: N_1  and  C_23
REMARK    2  A    between atoms: C_5  and  C_12
REMARK    3  A    between atoms: C_23  and  C_24
REMARK    4  A    between atoms: C_24  and  C_25
REMARK    5  A    between atoms: C_25  and  C_27
REMARK                            x       y       z     vdW  Elec       q    Type
REMARK                         _______ _______ _______ _____ _____    ______ ____
ROOT
ATOM      1  N   UNL     1      31.556  -8.277 -21.778  0.00  0.00    -0.268 N 
ATOM      2  N   UNL     1      31.705 -10.520 -21.104  0.00  0.00    -0.342 NA
ATOM      3  N   UNL     1      32.675  -9.786 -23.183  0.00  0.00    -0.170 NA
ATOM      4  C   UNL     1      31.993  -9.568 -22.030  0.00  0.00    +0.144 C 
ATOM      5  C   UNL     1      32.845 -12.095 -22.523  0.00  0.00    +0.061 C 
ATOM      6  C   UNL     1      32.143 -11.765 -21.380  0.00  0.00    +0.123 C 
ATOM      7  C   UNL     1      33.084 -11.054 -23.397  0.00  0.00    +0.113 C 
ATOM      8  C   UNL     1      31.820 -12.802 -20.354  0.00  0.00    +0.067 C 
ATOM      9  H   UNL     1      31.062  -8.109 -20.944  0.00  0.00    +0.159 HD
ENDROOT
BRANCH   5  12
ATOM     10  N   UNL     1      34.187 -14.083 -21.990  0.00  0.00    -0.314 N 
ATOM     11  N   UNL     1      32.964 -14.162 -23.845  0.00  0.00    -0.315 N 
ATOM     12  C   UNL     1      33.307 -13.427 -22.809  0.00  0.00    +0.171 C 
ATOM     13  C   UNL     1      34.426 -15.319 -22.534  0.00  0.00    +0.059 C 
ATOM     14  C   UNL     1      33.651 -15.345 -23.691  0.00  0.00    +0.055 C 
ATOM     15  C   UNL     1      33.666 -16.493 -24.500  0.00  0.00    -0.008 C 
ATOM     16  C   UNL     1      35.229 -16.386 -22.126  0.00  0.00    +0.011 C 
ATOM     17  C   UNL     1      35.232 -17.520 -22.944  0.00  0.00    -0.021 C 
ATOM     18  C   UNL     1      34.466 -17.576 -24.110  0.00  0.00    -0.007 C 
ATOM     19  C   UNL     1      32.865 -16.601 -25.756  0.00  0.00    +0.032 C 
ATOM     20  C   UNL     1      36.071 -18.695 -22.559  0.00  0.00    +0.031 C 
ATOM     21  H   UNL     1      34.578 -13.731 -21.159  0.00  0.00    +0.149 HD
ATOM     22  H   UNL     1      32.348 -13.919 -24.574  0.00  0.00    +0.149 HD
ENDBRANCH   5  12
BRANCH   1  23
ATOM     23  C   UNL     1      31.788  -7.165 -22.668  0.00  0.00    +0.098 C 
BRANCH  23  24
ATOM     24  C   UNL     1      33.055  -6.411 -22.274  0.00  0.00    +0.022 C 
BRANCH  24  25
ATOM     25  C   UNL     1      34.198  -6.633 -23.265  0.00  0.00    +0.002 C 
BRANCH  25  27
ATOM     26  N   UNL     1      34.024  -3.574 -26.310  0.00  0.00    +0.385 N 
ATOM     27  C   UNL     1      33.911  -5.954 -24.602  0.00  0.00    -0.004 C 
ATOM     28  C   UNL     1      35.207  -5.480 -25.269  0.00  0.00    -0.023 C 
ATOM     29  C   UNL     1      32.958  -4.768 -24.424  0.00  0.00    -0.023 C 
ATOM     30  C   UNL     1      34.921  -4.711 -26.559  0.00  0.00    -0.077 C 
ATOM     31  C   UNL     1      32.745  -4.022 -25.743  0.00  0.00    -0.077 C 
ATOM     32  C   UNL     1      33.800  -2.818 -27.542  0.00  0.00    -0.101 C 
ATOM     33  H   UNL     1      34.473  -2.962 -25.628  0.00  0.00    -0.080 HD
ENDBRANCH  25  27
ENDBRANCH  24  25
ENDBRANCH  23  24
ENDBRANCH   1  23
TORSDOF 5
ENDMDL
MODEL 9
REMARK VINA RESULT:     -10.2      2.866      9.806
REMARK  Name = 23650961
REMARK  5 active torsions:
REMARK  status: ('A' for Active; 'I' for Inactive)
REMARK    1  A    between atoms: N_1  and  C_23
REMARK    2  A    between atoms: C_5  and  C_12
REMARK    3  A    between atoms: C_23  and  C_24
REMARK    4  A    between atoms: C_24  and  C_25
REMARK    5  A    between atoms: C_25  and  C_27
REMARK                            x       y       z     vdW  Elec       q    Type
REMARK                         _______ _______ _______ _____ _____    ______ ____
ROOT
ATOM      1  N   UNL     1      35.110 -24.216 -14.480  0.00  0.00    -0.268 N 
ATOM      2  N   UNL     1      36.268 -22.658 -15.798  0.00  0.00    -0.342 NA
ATOM      3  N   UNL     1      34.123 -23.511 -16.489  0.00  0.00    -0.170 NA
ATOM      4  C   UNL     1      35.169 -23.437 -15.625  0.00  0.00    +0.144 C 
ATOM      5  C   UNL     1      35.285 -21.914 -17.866  0.00  0.00    +0.061 C 
ATOM      6  C   UNL     1      36.294 -21.914 -16.923  0.00  0.00    +0.123 C 
ATOM      7  C   UNL     1      34.214 -22.741 -17.593  0.00  0.00    +0.113 C 
ATOM      8  C   UNL     1      37.508 -21.061 -17.101  0.00  0.00    +0.067 C 
ATOM      9  H   UNL     1      35.862 -24.169 -13.848  0.00  0.00    +0.159 HD
ENDROOT
BRANCH   5  12
ATOM     10  N   UNL     1      34.242 -21.004 -19.896  0.00  0.00    -0.314 N 
ATOM     11  N   UNL     1      36.349 -20.419 -19.500  0.00  0.00    -0.315 N 
ATOM     12  C   UNL     1      35.322 -21.117 -19.063  0.00  0.00    +0.171 C 
ATOM     13  C   UNL     1      34.595 -20.183 -20.935  0.00  0.00    +0.059 C 
ATOM     14  C   UNL     1      35.914 -19.830 -20.665  0.00  0.00    +0.055 C 
ATOM     15  C   UNL     1      36.591 -18.977 -21.553  0.00  0.00    -0.008 C 
ATOM     16  C   UNL     1      33.895 -19.731 -22.055  0.00  0.00    +0.011 C 
ATOM     17  C   UNL     1      34.583 -18.883 -22.929  0.00  0.00    -0.021 C 
ATOM     18  C   UNL     1      35.907 -18.511 -22.685  0.00  0.00    -0.007 C 
ATOM     19  C   UNL     1      38.006 -18.551 -21.337  0.00  0.00    +0.032 C 
ATOM     20  C   UNL     1      33.887 -18.365 -24.144  0.00  0.00    +0.031 C 
ATOM     21  H   UNL     1      33.367 -21.437 -19.771  0.00  0.00    +0.149 HD
ATOM     22  H   UNL     1      37.237 -20.335 -19.083  0.00  0.00    +0.149 HD
ENDBRANCH   5  12
BRANCH   1  23
ATOM     23  C   UNL     1      34.007 -25.091 -14.162  0.00  0.00    +0.098 C 
BRANCH  23  24
ATOM     24  C   UNL     1      33.023 -24.402 -13.220  0.00  0.00    +0.022 C 
BRANCH  24  25
ATOM     25  C   UNL     1      31.651 -25.075 -13.215  0.00  0.00    +0.002 C 
BRANCH  25  27
ATOM     26  N   UNL     1      28.591 -23.230 -15.643  0.00  0.00    +0.385 N 
ATOM     27  C   UNL     1      30.839 -24.684 -14.448  0.00  0.00    -0.004 C 
ATOM     28  C   UNL     1      30.861 -23.166 -14.661  0.00  0.00    -0.023 C 
ATOM     29  C   UNL     1      29.390 -25.168 -14.330  0.00  0.00    -0.023 C 
ATOM     30  C   UNL     1      29.969 -22.756 -15.834  0.00  0.00    -0.077 C 
ATOM     31  C   UNL     1      28.547 -24.692 -15.514  0.00  0.00    -0.077 C 
ATOM     32  C   UNL     1      27.739 -22.787 -16.746  0.00  0.00    -0.101 C 
ATOM     33  H   UNL     1      28.238 -22.827 -14.774  0.00  0.00    -0.080 HD
ENDBRANCH  25  27
ENDBRANCH  24  25
ENDBRANCH  23  24
ENDBRANCH   1  23
TORSDOF 5
ENDMDL
