MODEL 1
REMARK VINA RESULT:     -12.8      0.000      0.000
REMARK  Name = 24780387
REMARK  3 active torsions:
REMARK  status: ('A' for Active; 'I' for Inactive)
REMARK    1  A    between atoms: N_3  and  C_25
REMARK    2  A    between atoms: C_18  and  O_23
REMARK    3  A    between atoms: C_25  and  N_26
REMARK                            x       y       z     vdW  Elec       q    Type
REMARK                         _______ _______ _______ _____ _____    ______ ____
ROOT
ATOM      1  O   UNL     1      32.453 -24.953 -12.465  0.00  0.00    -0.270 OA
ATOM      2  O   UNL     1      35.977 -23.476 -15.063  0.00  0.00    -0.270 OA
ATOM      3  N   UNL     1      34.482 -24.346 -13.485  0.00  0.00    -0.244 N 
ATOM      4  N   UNL     1      32.036 -22.028 -18.217  0.00  0.00    -0.353 N 
ATOM      5  C   UNL     1      31.261 -23.754 -14.986  0.00  0.00    -0.020 A 
ATOM      6  C   UNL     1      30.991 -23.128 -16.212  0.00  0.00    -0.010 A 
ATOM      7  C   UNL     1      32.561 -23.890 -14.583  0.00  0.00    +0.054 A 
ATOM      8  C   UNL     1      29.994 -24.137 -14.292  0.00  0.00    +0.027 C 
ATOM      9  C   UNL     1      29.509 -23.033 -16.441  0.00  0.00    +0.028 C 
ATOM     10  C   UNL     1      32.052 -22.666 -17.004  0.00  0.00    +0.052 A 
ATOM     11  C   UNL     1      33.615 -23.435 -15.376  0.00  0.00    +0.059 A 
ATOM     12  C   UNL     1      28.989 -24.086 -15.452  0.00  0.00    +0.009 C 
ATOM     13  C   UNL     1      33.398 -22.807 -16.617  0.00  0.00    +0.024 A 
ATOM     14  C   UNL     1      33.119 -24.474 -13.364  0.00  0.00    +0.253 C 
ATOM     15  C   UNL     1      34.857 -23.734 -14.663  0.00  0.00    +0.253 C 
ATOM     16  C   UNL     1      34.194 -22.230 -17.665  0.00  0.00    +0.051 A 
ATOM     17  C   UNL     1      33.313 -21.756 -18.643  0.00  0.00    +0.060 A 
ATOM     18  C   UNL     1      35.576 -22.055 -17.892  0.00  0.00    +0.140 C 
ATOM     19  C   UNL     1      33.742 -21.125 -19.818  0.00  0.00    +0.017 C 
ATOM     20  C   UNL     1      36.021 -21.428 -19.063  0.00  0.00    +0.037 C 
ATOM     21  C   UNL     1      35.114 -20.969 -20.012  0.00  0.00    +0.005 C 
ATOM     22  H   UNL     1      31.220 -21.796 -18.717  0.00  0.00    +0.166 HD
ENDROOT
BRANCH  18  23
ATOM     23  O   UNL     1      36.570 -22.466 -17.048  0.00  0.00    -0.471 OA
ATOM     24  C   UNL     1      37.490 -21.473 -16.606  0.00  0.00    +0.252 C 
ENDBRANCH  18  23
BRANCH   3  25
ATOM     25  C   UNL     1      35.436 -24.799 -12.490  0.00  0.00    +0.028 C 
BRANCH  25  26
ATOM     26  N   UNL     1      36.731 -25.013 -13.131  0.00  0.00    +0.396 N 
ATOM     27  N   UNL     1      39.341 -26.242 -13.320  0.00  0.00    +0.383 N 
ATOM     28  C   UNL     1      37.827 -24.617 -12.237  0.00  0.00    -0.098 C 
ATOM     29  C   UNL     1      36.886 -26.414 -13.542  0.00  0.00    -0.098 C 
ATOM     30  C   UNL     1      39.187 -24.842 -12.908  0.00  0.00    -0.101 C 
ATOM     31  C   UNL     1      38.245 -26.638 -14.214  0.00  0.00    -0.101 C 
ATOM     32  C   UNL     1      40.637 -26.454 -13.962  0.00  0.00    -0.101 C 
ATOM     33  H   UNL     1      36.770 -24.427 -13.965  0.00  0.00    -0.077 HD
ATOM     34  H   UNL     1      39.303 -26.829 -12.487  0.00  0.00    -0.080 HD
ENDBRANCH  25  26
ENDBRANCH   3  25
TORSDOF 3
ENDMDL
MODEL 2
REMARK VINA RESULT:     -11.5      2.227      6.637
REMARK  Name = 24780387
REMARK  3 active torsions:
REMARK  status: ('A' for Active; 'I' for Inactive)
REMARK    1  A    between atoms: N_3  and  C_25
REMARK    2  A    between atoms: C_18  and  O_23
REMARK    3  A    between atoms: C_25  and  N_26
REMARK                            x       y       z     vdW  Elec       q    Type
REMARK                         _______ _______ _______ _____ _____    ______ ____
ROOT
ATOM      1  O   UNL     1      32.659 -22.303 -18.885  0.00  0.00    -0.270 OA
ATOM      2  O   UNL     1      36.706 -22.757 -16.702  0.00  0.00    -0.270 OA
ATOM      3  N   UNL     1      34.883 -22.435 -18.136  0.00  0.00    -0.244 N 
ATOM      4  N   UNL     1      33.529 -23.891 -12.678  0.00  0.00    -0.353 N 
ATOM      5  C   UNL     1      32.040 -23.031 -16.004  0.00  0.00    -0.020 A 
ATOM      6  C   UNL     1      32.050 -23.392 -14.649  0.00  0.00    -0.010 A 
ATOM      7  C   UNL     1      33.233 -22.845 -16.649  0.00  0.00    +0.054 A 
ATOM      8  C   UNL     1      30.643 -22.956 -16.528  0.00  0.00    +0.027 C 
ATOM      9  C   UNL     1      30.647 -23.597 -14.149  0.00  0.00    +0.028 C 
ATOM     10  C   UNL     1      33.272 -23.543 -13.979  0.00  0.00    +0.052 A 
ATOM     11  C   UNL     1      34.447 -22.990 -15.977  0.00  0.00    +0.059 A 
ATOM     12  C   UNL     1      29.838 -22.858 -15.224  0.00  0.00    +0.009 C 
ATOM     13  C   UNL     1      34.511 -23.344 -14.616  0.00  0.00    +0.024 A 
ATOM     14  C   UNL     1      33.513 -22.491 -18.039  0.00  0.00    +0.253 C 
ATOM     15  C   UNL     1      35.514 -22.722 -16.943  0.00  0.00    +0.253 C 
ATOM     16  C   UNL     1      35.528 -23.579 -13.629  0.00  0.00    +0.051 A 
ATOM     17  C   UNL     1      34.881 -23.917 -12.436  0.00  0.00    +0.060 A 
ATOM     18  C   UNL     1      36.939 -23.543 -13.618  0.00  0.00    +0.140 C 
ATOM     19  C   UNL     1      35.565 -24.216 -11.251  0.00  0.00    +0.017 C 
ATOM     20  C   UNL     1      37.639 -23.838 -12.441  0.00  0.00    +0.037 C 
ATOM     21  C   UNL     1      36.959 -24.170 -11.274  0.00  0.00    +0.005 C 
ATOM     22  H   UNL     1      32.838 -24.094 -12.005  0.00  0.00    +0.166 HD
ENDROOT
BRANCH  18  23
ATOM     23  O   UNL     1      37.727 -23.224 -14.689  0.00  0.00    -0.471 OA
ATOM     24  C   UNL     1      38.823 -24.091 -14.962  0.00  0.00    +0.252 C 
ENDBRANCH  18  23
BRANCH   3  25
ATOM     25  C   UNL     1      35.603 -22.114 -19.354  0.00  0.00    +0.028 C 
BRANCH  25  26
ATOM     26  N   UNL     1      35.392 -20.704 -19.676  0.00  0.00    +0.396 N 
ATOM     27  N   UNL     1      35.460 -18.431 -21.462  0.00  0.00    +0.383 N 
ATOM     28  C   UNL     1      36.659 -20.057 -20.039  0.00  0.00    -0.098 C 
ATOM     29  C   UNL     1      34.413 -20.557 -20.760  0.00  0.00    -0.098 C 
ATOM     30  C   UNL     1      36.440 -18.579 -20.379  0.00  0.00    -0.101 C 
ATOM     31  C   UNL     1      34.193 -19.078 -21.099  0.00  0.00    -0.101 C 
ATOM     32  C   UNL     1      35.249 -17.020 -21.781  0.00  0.00    -0.101 C 
ATOM     33  H   UNL     1      35.023 -20.243 -18.845  0.00  0.00    -0.077 HD
ATOM     34  H   UNL     1      35.829 -18.891 -22.293  0.00  0.00    -0.080 HD
ENDBRANCH  25  26
ENDBRANCH   3  25
TORSDOF 3
ENDMDL
