MODEL 1
REMARK VINA RESULT:     -12.7      0.000      0.000
REMARK  Name = 68488178
REMARK  9 active torsions:
REMARK  status: ('A' for Active; 'I' for Inactive)
REMARK    1  A    between atoms: N_1  and  C_10
REMARK    2  A    between atoms: N_2  and  C_29
REMARK    3  A    between atoms: C_10  and  C_11
REMARK    4  A    between atoms: C_16  and  O_17
REMARK    5  A    between atoms: O_17  and  C_18
REMARK    6  A    between atoms: C_23  and  C_26
REMARK    7  A    between atoms: C_29  and  C_30
REMARK    8  A    between atoms: C_35  and  C_37
REMARK    9  A    between atoms: C_37  and  O_38
REMARK                            x       y       z     vdW  Elec       q    Type
REMARK                         _______ _______ _______ _____ _____    ______ ____
ROOT
ATOM      1  N   UNL     1      33.002 -23.575 -16.568  0.00  0.00    +0.388 N 
ATOM      2  N   UNL     1      34.091 -24.830 -14.312  0.00  0.00    +0.388 N 
ATOM      3  C   UNL     1      34.190 -23.044 -15.855  0.00  0.00    -0.081 C 
ATOM      4  C   UNL     1      32.979 -23.852 -14.223  0.00  0.00    -0.081 C 
ATOM      5  C   UNL     1      33.631 -22.520 -14.544  0.00  0.00    -0.046 C 
ATOM      6  C   UNL     1      32.117 -24.062 -15.481  0.00  0.00    -0.098 C 
ATOM      7  C   UNL     1      34.980 -24.269 -15.361  0.00  0.00    -0.098 C 
ATOM      8  H   UNL     1      33.252 -24.312 -17.228  0.00  0.00    -0.079 HD
ATOM      9  H   UNL     1      33.758 -25.767 -14.543  0.00  0.00    -0.079 HD
ENDROOT
BRANCH   1  10
ATOM     10  C   UNL     1      32.350 -22.569 -17.398  0.00  0.00    -0.050 C 
BRANCH  10  11
ATOM     11  C   UNL     1      33.310 -21.933 -18.368  0.00  0.00    -0.043 C 
ATOM     12  C   UNL     1      34.672 -22.225 -18.293  0.00  0.00    -0.003 C 
ATOM     13  C   UNL     1      32.837 -21.053 -19.342  0.00  0.00    -0.003 C 
ATOM     14  C   UNL     1      35.562 -21.636 -19.191  0.00  0.00    +0.037 C 
ATOM     15  C   UNL     1      33.727 -20.464 -20.240  0.00  0.00    +0.037 C 
ATOM     16  C   UNL     1      35.090 -20.756 -20.165  0.00  0.00    +0.145 C 
BRANCH  16  17
ATOM     17  O   UNL     1      35.958 -20.180 -21.041  0.00  0.00    -0.453 OA
BRANCH  17  18
ATOM     18  C   UNL     1      35.479 -19.161 -21.847  0.00  0.00    +0.145 C 
ATOM     19  C   UNL     1      34.886 -19.462 -23.073  0.00  0.00    +0.038 C 
ATOM     20  C   UNL     1      35.590 -17.834 -21.433  0.00  0.00    +0.038 C 
ATOM     21  C   UNL     1      34.406 -18.436 -23.886  0.00  0.00    +0.008 C 
ATOM     22  C   UNL     1      35.110 -16.807 -22.246  0.00  0.00    +0.008 C 
ATOM     23  C   UNL     1      34.517 -17.108 -23.473  0.00  0.00    +0.054 C 
BRANCH  23  26
ATOM     24  O   UNL     1      33.644 -14.915 -23.657  0.00  0.00    -0.431 OA
ATOM     25  N   UNL     1      33.881 -16.014 -25.620  0.00  0.00    -0.206 NA
ATOM     26  C   UNL     1      34.021 -16.046 -24.314  0.00  0.00    +0.230 C 
ATOM     27  C   UNL     1      33.224 -14.091 -24.657  0.00  0.00    +0.202 C 
ATOM     28  C   UNL     1      33.371 -14.761 -25.846  0.00  0.00    +0.143 C 
ENDBRANCH  23  26
ENDBRANCH  17  18
ENDBRANCH  16  17
ENDBRANCH  10  11
ENDBRANCH   1  10
BRANCH   2  29
ATOM     29  C   UNL     1      34.786 -25.008 -13.042  0.00  0.00    -0.050 C 
BRANCH  29  30
ATOM     30  C   UNL     1      36.261 -25.234 -13.237  0.00  0.00    -0.043 C 
ATOM     31  C   UNL     1      37.183 -24.374 -12.640  0.00  0.00    -0.006 C 
ATOM     32  C   UNL     1      36.707 -26.303 -14.016  0.00  0.00    -0.006 C 
ATOM     33  C   UNL     1      38.549 -24.582 -12.822  0.00  0.00    +0.006 C 
ATOM     34  C   UNL     1      38.074 -26.511 -14.197  0.00  0.00    +0.006 C 
ATOM     35  C   UNL     1      38.996 -25.651 -13.599  0.00  0.00    +0.075 C 
BRANCH  35  37
ATOM     36  O   UNL     1      41.028 -26.911 -13.521  0.00  0.00    -0.245 OA
ATOM     37  C   UNL     1      40.421 -25.869 -13.787  0.00  0.00    +0.338 C 
BRANCH  37  38
ATOM     38  O   UNL     1      41.049 -24.778 -14.305  0.00  0.00    -0.477 OA
ATOM     39  H   UNL     1      40.959 -23.943 -13.889  0.00  0.00    +0.295 HD
ENDBRANCH  37  38
ENDBRANCH  35  37
ENDBRANCH  29  30
ENDBRANCH   2  29
TORSDOF 9
ENDMDL
MODEL 2
REMARK VINA RESULT:     -12.0      5.709     10.742
REMARK  Name = 68488178
REMARK  9 active torsions:
REMARK  status: ('A' for Active; 'I' for Inactive)
REMARK    1  A    between atoms: N_1  and  C_10
REMARK    2  A    between atoms: N_2  and  C_29
REMARK    3  A    between atoms: C_10  and  C_11
REMARK    4  A    between atoms: C_16  and  O_17
REMARK    5  A    between atoms: O_17  and  C_18
REMARK    6  A    between atoms: C_23  and  C_26
REMARK    7  A    between atoms: C_29  and  C_30
REMARK    8  A    between atoms: C_35  and  C_37
REMARK    9  A    between atoms: C_37  and  O_38
REMARK                            x       y       z     vdW  Elec       q    Type
REMARK                         _______ _______ _______ _____ _____    ______ ____
ROOT
ATOM      1  N   UNL     1      33.568 -15.297 -23.679  0.00  0.00    +0.388 N 
ATOM      2  N   UNL     1      34.604 -17.644 -22.552  0.00  0.00    +0.388 N 
ATOM      3  C   UNL     1      34.287 -16.317 -24.481  0.00  0.00    -0.081 C 
ATOM      4  C   UNL     1      35.361 -16.368 -22.575  0.00  0.00    -0.081 C 
ATOM      5  C   UNL     1      35.733 -16.186 -24.036  0.00  0.00    -0.046 C 
ATOM      6  C   UNL     1      34.321 -15.245 -22.401  0.00  0.00    -0.098 C 
ATOM      7  C   UNL     1      33.922 -17.682 -23.870  0.00  0.00    -0.098 C 
ATOM      8  H   UNL     1      32.586 -15.541 -23.544  0.00  0.00    -0.079 HD
ATOM      9  H   UNL     1      33.947 -17.684 -21.772  0.00  0.00    -0.079 HD
ENDROOT
BRANCH   1  10
ATOM     10  C   UNL     1      33.518 -13.998 -24.339  0.00  0.00    -0.050 C 
BRANCH  10  11
ATOM     11  C   UNL     1      33.089 -12.906 -23.396  0.00  0.00    -0.043 C 
ATOM     12  C   UNL     1      33.560 -11.605 -23.576  0.00  0.00    -0.003 C 
ATOM     13  C   UNL     1      32.221 -13.194 -22.343  0.00  0.00    -0.003 C 
ATOM     14  C   UNL     1      33.164 -10.592 -22.702  0.00  0.00    +0.037 C 
ATOM     15  C   UNL     1      31.824 -12.181 -21.469  0.00  0.00    +0.037 C 
ATOM     16  C   UNL     1      32.295 -10.881 -21.649  0.00  0.00    +0.145 C 
BRANCH  16  17
ATOM     17  O   UNL     1      31.909  -9.893 -20.796  0.00  0.00    -0.453 OA
BRANCH  17  18
ATOM     18  C   UNL     1      31.757  -8.618 -21.314  0.00  0.00    +0.145 C 
ATOM     19  C   UNL     1      32.402  -7.538 -20.710  0.00  0.00    +0.038 C 
ATOM     20  C   UNL     1      30.957  -8.412 -22.438  0.00  0.00    +0.038 C 
ATOM     21  C   UNL     1      32.246  -6.254 -21.230  0.00  0.00    +0.008 C 
ATOM     22  C   UNL     1      30.801  -7.128 -22.958  0.00  0.00    +0.008 C 
ATOM     23  C   UNL     1      31.447  -6.047 -22.354  0.00  0.00    +0.054 C 
BRANCH  23  26
ATOM     24  O   UNL     1      32.169  -4.378 -23.869  0.00  0.00    -0.431 OA
ATOM     25  N   UNL     1      30.410  -3.792 -22.574  0.00  0.00    -0.206 NA
ATOM     26  C   UNL     1      31.285  -4.719 -22.892  0.00  0.00    +0.230 C 
ATOM     27  C   UNL     1      31.809  -3.106 -24.195  0.00  0.00    +0.202 C 
ATOM     28  C   UNL     1      30.741  -2.755 -23.408  0.00  0.00    +0.143 C 
ENDBRANCH  23  26
ENDBRANCH  17  18
ENDBRANCH  16  17
ENDBRANCH  10  11
ENDBRANCH   1  10
BRANCH   2  29
ATOM     29  C   UNL     1      35.464 -18.803 -22.345  0.00  0.00    -0.050 C 
BRANCH  29  30
ATOM     30  C   UNL     1      34.933 -19.710 -21.267  0.00  0.00    -0.043 C 
ATOM     31  C   UNL     1      33.557 -19.824 -21.068  0.00  0.00    -0.006 C 
ATOM     32  C   UNL     1      35.817 -20.434 -20.467  0.00  0.00    -0.006 C 
ATOM     33  C   UNL     1      33.066 -20.663 -20.069  0.00  0.00    +0.006 C 
ATOM     34  C   UNL     1      35.325 -21.273 -19.468  0.00  0.00    +0.006 C 
ATOM     35  C   UNL     1      33.948 -21.389 -19.268  0.00  0.00    +0.075 C 
BRANCH  35  37
ATOM     36  O   UNL     1      32.243 -22.424 -17.950  0.00  0.00    -0.245 OA
ATOM     37  C   UNL     1      33.435 -22.264 -18.228  0.00  0.00    +0.338 C 
BRANCH  37  38
ATOM     38  O   UNL     1      34.427 -22.917 -17.561  0.00  0.00    -0.477 OA
ATOM     39  H   UNL     1      34.441 -22.917 -16.624  0.00  0.00    +0.295 HD
ENDBRANCH  37  38
ENDBRANCH  35  37
ENDBRANCH  29  30
ENDBRANCH   2  29
TORSDOF 9
ENDMDL
MODEL 3
REMARK VINA RESULT:     -11.7      4.389      7.713
REMARK  Name = 68488178
REMARK  9 active torsions:
REMARK  status: ('A' for Active; 'I' for Inactive)
REMARK    1  A    between atoms: N_1  and  C_10
REMARK    2  A    between atoms: N_2  and  C_29
REMARK    3  A    between atoms: C_10  and  C_11
REMARK    4  A    between atoms: C_16  and  O_17
REMARK    5  A    between atoms: O_17  and  C_18
REMARK    6  A    between atoms: C_23  and  C_26
REMARK    7  A    between atoms: C_29  and  C_30
REMARK    8  A    between atoms: C_35  and  C_37
REMARK    9  A    between atoms: C_37  and  O_38
REMARK                            x       y       z     vdW  Elec       q    Type
REMARK                         _______ _______ _______ _____ _____    ______ ____
ROOT
ATOM      1  N   UNL     1      35.198 -17.680 -21.361  0.00  0.00    +0.388 N 
ATOM      2  N   UNL     1      35.355 -20.149 -20.045  0.00  0.00    +0.388 N 
ATOM      3  C   UNL     1      34.542 -18.904 -21.881  0.00  0.00    -0.081 C 
ATOM      4  C   UNL     1      36.387 -19.690 -21.007  0.00  0.00    -0.081 C 
ATOM      5  C   UNL     1      35.695 -19.770 -22.356  0.00  0.00    -0.046 C 
ATOM      6  C   UNL     1      36.496 -18.165 -20.829  0.00  0.00    -0.098 C 
ATOM      7  C   UNL     1      34.075 -19.700 -20.649  0.00  0.00    -0.098 C 
ATOM      8  H   UNL     1      34.633 -17.218 -20.648  0.00  0.00    -0.079 HD
ATOM      9  H   UNL     1      35.503 -19.761 -19.112  0.00  0.00    -0.079 HD
ENDROOT
BRANCH   1  10
ATOM     10  C   UNL     1      35.372 -16.658 -22.386  0.00  0.00    -0.050 C 
BRANCH  10  11
ATOM     11  C   UNL     1      34.460 -15.481 -22.165  0.00  0.00    -0.043 C 
ATOM     12  C   UNL     1      34.282 -14.969 -20.880  0.00  0.00    -0.003 C 
ATOM     13  C   UNL     1      33.794 -14.902 -23.246  0.00  0.00    -0.003 C 
ATOM     14  C   UNL     1      33.437 -13.878 -20.675  0.00  0.00    +0.037 C 
ATOM     15  C   UNL     1      32.949 -13.812 -23.041  0.00  0.00    +0.037 C 
ATOM     16  C   UNL     1      32.770 -13.300 -21.755  0.00  0.00    +0.145 C 
BRANCH  16  17
ATOM     17  O   UNL     1      31.945 -12.236 -21.555  0.00  0.00    -0.453 OA
BRANCH  17  18
ATOM     18  C   UNL     1      32.330 -11.014 -22.082  0.00  0.00    +0.145 C 
ATOM     19  C   UNL     1      33.322 -10.959 -23.061  0.00  0.00    +0.038 C 
ATOM     20  C   UNL     1      31.726  -9.840 -21.633  0.00  0.00    +0.038 C 
ATOM     21  C   UNL     1      33.712  -9.729 -23.589  0.00  0.00    +0.008 C 
ATOM     22  C   UNL     1      32.116  -8.609 -22.162  0.00  0.00    +0.008 C 
ATOM     23  C   UNL     1      33.109  -8.553 -23.141  0.00  0.00    +0.054 C 
BRANCH  23  26
ATOM     24  O   UNL     1      34.843  -7.159 -23.948  0.00  0.00    -0.431 OA
ATOM     25  N   UNL     1      32.783  -6.225 -23.969  0.00  0.00    -0.206 NA
ATOM     26  C   UNL     1      33.513  -7.281 -23.687  0.00  0.00    +0.230 C 
ATOM     27  C   UNL     1      34.956  -5.895 -24.443  0.00  0.00    +0.202 C 
ATOM     28  C   UNL     1      33.704  -5.333 -24.454  0.00  0.00    +0.143 C 
ENDBRANCH  23  26
ENDBRANCH  17  18
ENDBRANCH  16  17
ENDBRANCH  10  11
ENDBRANCH   1  10
BRANCH   2  29
ATOM     29  C   UNL     1      35.386 -21.592 -19.833  0.00  0.00    -0.050 C 
BRANCH  29  30
ATOM     30  C   UNL     1      35.606 -21.941 -18.385  0.00  0.00    -0.043 C 
ATOM     31  C   UNL     1      36.814 -21.617 -17.766  0.00  0.00    -0.006 C 
ATOM     32  C   UNL     1      34.604 -22.589 -17.663  0.00  0.00    -0.006 C 
ATOM     33  C   UNL     1      37.018 -21.941 -16.426  0.00  0.00    +0.006 C 
ATOM     34  C   UNL     1      34.809 -22.913 -16.323  0.00  0.00    +0.006 C 
ATOM     35  C   UNL     1      36.016 -22.589 -15.703  0.00  0.00    +0.075 C 
BRANCH  35  37
ATOM     36  O   UNL     1      37.328 -23.000 -13.745  0.00  0.00    -0.245 OA
ATOM     37  C   UNL     1      36.229 -22.926 -14.305  0.00  0.00    +0.338 C 
BRANCH  37  38
ATOM     38  O   UNL     1      35.063 -23.162 -13.643  0.00  0.00    -0.477 OA
ATOM     39  H   UNL     1      34.261 -23.242 -14.120  0.00  0.00    +0.295 HD
ENDBRANCH  37  38
ENDBRANCH  35  37
ENDBRANCH  29  30
ENDBRANCH   2  29
TORSDOF 9
ENDMDL
MODEL 4
REMARK VINA RESULT:     -11.7      3.696      6.926
REMARK  Name = 68488178
REMARK  9 active torsions:
REMARK  status: ('A' for Active; 'I' for Inactive)
REMARK    1  A    between atoms: N_1  and  C_10
REMARK    2  A    between atoms: N_2  and  C_29
REMARK    3  A    between atoms: C_10  and  C_11
REMARK    4  A    between atoms: C_16  and  O_17
REMARK    5  A    between atoms: O_17  and  C_18
REMARK    6  A    between atoms: C_23  and  C_26
REMARK    7  A    between atoms: C_29  and  C_30
REMARK    8  A    between atoms: C_35  and  C_37
REMARK    9  A    between atoms: C_37  and  O_38
REMARK                            x       y       z     vdW  Elec       q    Type
REMARK                         _______ _______ _______ _____ _____    ______ ____
ROOT
ATOM      1  N   UNL     1      33.396 -23.885 -14.739  0.00  0.00    +0.388 N 
ATOM      2  N   UNL     1      30.715 -24.700 -14.730  0.00  0.00    +0.388 N 
ATOM      3  C   UNL     1      32.539 -23.795 -13.532  0.00  0.00    -0.081 C 
ATOM      4  C   UNL     1      31.134 -23.339 -15.146  0.00  0.00    -0.081 C 
ATOM      5  C   UNL     1      31.566 -22.674 -13.851  0.00  0.00    -0.046 C 
ATOM      6  C   UNL     1      32.492 -23.502 -15.853  0.00  0.00    -0.098 C 
ATOM      7  C   UNL     1      31.598 -25.013 -13.579  0.00  0.00    -0.098 C 
ATOM      8  H   UNL     1      33.788 -24.820 -14.859  0.00  0.00    -0.079 HD
ATOM      9  H   UNL     1      30.809 -25.377 -15.489  0.00  0.00    -0.079 HD
ENDROOT
BRANCH   1  10
ATOM     10  C   UNL     1      34.568 -23.021 -14.661  0.00  0.00    -0.050 C 
BRANCH  10  11
ATOM     11  C   UNL     1      35.078 -22.642 -16.025  0.00  0.00    -0.043 C 
ATOM     12  C   UNL     1      36.379 -22.162 -16.175  0.00  0.00    -0.003 C 
ATOM     13  C   UNL     1      34.249 -22.771 -17.140  0.00  0.00    -0.003 C 
ATOM     14  C   UNL     1      36.852 -21.811 -17.439  0.00  0.00    +0.037 C 
ATOM     15  C   UNL     1      34.722 -22.420 -18.405  0.00  0.00    +0.037 C 
ATOM     16  C   UNL     1      36.023 -21.939 -18.554  0.00  0.00    +0.145 C 
BRANCH  16  17
ATOM     17  O   UNL     1      36.484 -21.596 -19.788  0.00  0.00    -0.453 OA
BRANCH  17  18
ATOM     18  C   UNL     1      36.110 -20.362 -20.294  0.00  0.00    +0.145 C 
ATOM     19  C   UNL     1      34.774 -20.114 -20.610  0.00  0.00    +0.038 C 
ATOM     20  C   UNL     1      37.069 -19.368 -20.490  0.00  0.00    +0.038 C 
ATOM     21  C   UNL     1      34.398 -18.874 -21.123  0.00  0.00    +0.008 C 
ATOM     22  C   UNL     1      36.692 -18.127 -21.003  0.00  0.00    +0.008 C 
ATOM     23  C   UNL     1      35.356 -17.879 -21.319  0.00  0.00    +0.054 C 
BRANCH  23  26
ATOM     24  O   UNL     1      34.562 -15.684 -20.923  0.00  0.00    -0.431 OA
ATOM     25  N   UNL     1      34.946 -16.181 -23.096  0.00  0.00    -0.206 NA
ATOM     26  C   UNL     1      34.966 -16.596 -21.850  0.00  0.00    +0.230 C 
ATOM     27  C   UNL     1      34.256 -14.586 -21.669  0.00  0.00    +0.202 C 
ATOM     28  C   UNL     1      34.492 -14.892 -22.986  0.00  0.00    +0.143 C 
ENDBRANCH  23  26
ENDBRANCH  17  18
ENDBRANCH  16  17
ENDBRANCH  10  11
ENDBRANCH   1  10
BRANCH   2  29
ATOM     29  C   UNL     1      29.302 -24.768 -14.373  0.00  0.00    -0.050 C 
BRANCH  29  30
ATOM     30  C   UNL     1      28.454 -23.913 -15.277  0.00  0.00    -0.043 C 
ATOM     31  C   UNL     1      28.305 -24.254 -16.621  0.00  0.00    -0.006 C 
ATOM     32  C   UNL     1      27.819 -22.779 -14.770  0.00  0.00    -0.006 C 
ATOM     33  C   UNL     1      27.520 -23.461 -17.457  0.00  0.00    +0.006 C 
ATOM     34  C   UNL     1      27.035 -21.986 -15.607  0.00  0.00    +0.006 C 
ATOM     35  C   UNL     1      26.883 -22.328 -16.951  0.00  0.00    +0.075 C 
BRANCH  35  37
ATOM     36  O   UNL     1      25.619 -21.845 -18.924  0.00  0.00    -0.245 OA
ATOM     37  C   UNL     1      26.065 -21.502 -17.824  0.00  0.00    +0.338 C 
BRANCH  37  38
ATOM     38  O   UNL     1      25.823 -20.270 -17.298  0.00  0.00    -0.477 OA
ATOM     39  H   UNL     1      25.198 -20.170 -16.606  0.00  0.00    +0.295 HD
ENDBRANCH  37  38
ENDBRANCH  35  37
ENDBRANCH  29  30
ENDBRANCH   2  29
TORSDOF 9
ENDMDL
MODEL 5
REMARK VINA RESULT:     -11.7      3.026     12.383
REMARK  Name = 68488178
REMARK  9 active torsions:
REMARK  status: ('A' for Active; 'I' for Inactive)
REMARK    1  A    between atoms: N_1  and  C_10
REMARK    2  A    between atoms: N_2  and  C_29
REMARK    3  A    between atoms: C_10  and  C_11
REMARK    4  A    between atoms: C_16  and  O_17
REMARK    5  A    between atoms: O_17  and  C_18
REMARK    6  A    between atoms: C_23  and  C_26
REMARK    7  A    between atoms: C_29  and  C_30
REMARK    8  A    between atoms: C_35  and  C_37
REMARK    9  A    between atoms: C_37  and  O_38
REMARK                            x       y       z     vdW  Elec       q    Type
REMARK                         _______ _______ _______ _____ _____    ______ ____
ROOT
ATOM      1  N   UNL     1      34.787 -19.139 -21.267  0.00  0.00    +0.388 N 
ATOM      2  N   UNL     1      34.558 -16.574 -22.371  0.00  0.00    +0.388 N 
ATOM      3  C   UNL     1      35.832 -18.102 -21.096  0.00  0.00    -0.081 C 
ATOM      4  C   UNL     1      35.115 -17.723 -23.128  0.00  0.00    -0.081 C 
ATOM      5  C   UNL     1      36.461 -17.979 -22.472  0.00  0.00    -0.046 C 
ATOM      6  C   UNL     1      34.330 -18.965 -22.668  0.00  0.00    -0.098 C 
ATOM      7  C   UNL     1      35.092 -16.755 -20.997  0.00  0.00    -0.098 C 
ATOM      8  H   UNL     1      34.027 -19.031 -20.593  0.00  0.00    -0.079 HD
ATOM      9  H   UNL     1      33.537 -16.561 -22.394  0.00  0.00    -0.079 HD
ENDROOT
BRANCH   1  10
ATOM     10  C   UNL     1      35.286 -20.486 -21.016  0.00  0.00    -0.050 C 
BRANCH  10  11
ATOM     11  C   UNL     1      34.514 -21.177 -19.924  0.00  0.00    -0.043 C 
ATOM     12  C   UNL     1      35.149 -22.110 -19.104  0.00  0.00    -0.003 C 
ATOM     13  C   UNL     1      33.164 -20.884 -19.731  0.00  0.00    -0.003 C 
ATOM     14  C   UNL     1      34.434 -22.751 -18.092  0.00  0.00    +0.037 C 
ATOM     15  C   UNL     1      32.449 -21.524 -18.719  0.00  0.00    +0.037 C 
ATOM     16  C   UNL     1      33.084 -22.458 -17.900  0.00  0.00    +0.145 C 
BRANCH  16  17
ATOM     17  O   UNL     1      32.385 -23.083 -16.913  0.00  0.00    -0.453 OA
BRANCH  17  18
ATOM     18  C   UNL     1      33.036 -23.318 -15.713  0.00  0.00    +0.145 C 
ATOM     19  C   UNL     1      32.304 -23.677 -14.582  0.00  0.00    +0.038 C 
ATOM     20  C   UNL     1      34.423 -23.193 -15.636  0.00  0.00    +0.038 C 
ATOM     21  C   UNL     1      32.959 -23.910 -13.373  0.00  0.00    +0.008 C 
ATOM     22  C   UNL     1      35.078 -23.425 -14.427  0.00  0.00    +0.008 C 
ATOM     23  C   UNL     1      34.346 -23.785 -13.294  0.00  0.00    +0.054 C 
BRANCH  23  26
ATOM     24  O   UNL     1      36.129 -23.262 -11.828  0.00  0.00    -0.431 OA
ATOM     25  N   UNL     1      34.727 -24.873 -11.085  0.00  0.00    -0.206 NA
ATOM     26  C   UNL     1      35.023 -24.025 -12.044  0.00  0.00    +0.230 C 
ATOM     27  C   UNL     1      36.570 -23.677 -10.608  0.00  0.00    +0.202 C 
ATOM     28  C   UNL     1      35.716 -24.654 -10.161  0.00  0.00    +0.143 C 
ENDBRANCH  23  26
ENDBRANCH  17  18
ENDBRANCH  16  17
ENDBRANCH  10  11
ENDBRANCH   1  10
BRANCH   2  29
ATOM     29  C   UNL     1      34.938 -15.288 -22.942  0.00  0.00    -0.050 C 
BRANCH  29  30
ATOM     30  C   UNL     1      34.025 -14.181 -22.487  0.00  0.00    -0.043 C 
ATOM     31  C   UNL     1      33.821 -13.066 -23.301  0.00  0.00    -0.006 C 
ATOM     32  C   UNL     1      33.384 -14.269 -21.251  0.00  0.00    -0.006 C 
ATOM     33  C   UNL     1      32.976 -12.041 -22.879  0.00  0.00    +0.006 C 
ATOM     34  C   UNL     1      32.539 -13.243 -20.829  0.00  0.00    +0.006 C 
ATOM     35  C   UNL     1      32.334 -12.128 -21.643  0.00  0.00    +0.075 C 
BRANCH  35  37
ATOM     36  O   UNL     1      31.806  -9.910 -20.923  0.00  0.00    -0.245 OA
ATOM     37  C   UNL     1      31.453 -11.059 -21.204  0.00  0.00    +0.338 C 
BRANCH  37  38
ATOM     38  O   UNL     1      30.152 -11.454 -21.129  0.00  0.00    -0.477 OA
ATOM     39  H   UNL     1      29.464 -10.830 -21.254  0.00  0.00    +0.295 HD
ENDBRANCH  37  38
ENDBRANCH  35  37
ENDBRANCH  29  30
ENDBRANCH   2  29
TORSDOF 9
ENDMDL
MODEL 6
REMARK VINA RESULT:     -11.7      4.741      8.499
REMARK  Name = 68488178
REMARK  9 active torsions:
REMARK  status: ('A' for Active; 'I' for Inactive)
REMARK    1  A    between atoms: N_1  and  C_10
REMARK    2  A    between atoms: N_2  and  C_29
REMARK    3  A    between atoms: C_10  and  C_11
REMARK    4  A    between atoms: C_16  and  O_17
REMARK    5  A    between atoms: O_17  and  C_18
REMARK    6  A    between atoms: C_23  and  C_26
REMARK    7  A    between atoms: C_29  and  C_30
REMARK    8  A    between atoms: C_35  and  C_37
REMARK    9  A    between atoms: C_37  and  O_38
REMARK                            x       y       z     vdW  Elec       q    Type
REMARK                         _______ _______ _______ _____ _____    ______ ____
ROOT
ATOM      1  N   UNL     1      34.913 -17.445 -22.171  0.00  0.00    +0.388 N 
ATOM      2  N   UNL     1      35.375 -19.770 -20.678  0.00  0.00    +0.388 N 
ATOM      3  C   UNL     1      35.654 -18.608 -22.716  0.00  0.00    -0.081 C 
ATOM      4  C   UNL     1      36.273 -18.591 -20.618  0.00  0.00    -0.081 C 
ATOM      5  C   UNL     1      36.974 -18.591 -21.965  0.00  0.00    -0.046 C 
ATOM      6  C   UNL     1      35.371 -17.352 -20.762  0.00  0.00    -0.098 C 
ATOM      7  C   UNL     1      34.996 -19.861 -22.110  0.00  0.00    -0.098 C 
ATOM      8  H   UNL     1      33.902 -17.568 -22.246  0.00  0.00    -0.079 HD
ATOM      9  H   UNL     1      34.565 -19.664 -20.066  0.00  0.00    -0.079 HD
ENDROOT
BRANCH   1  10
ATOM     10  C   UNL     1      35.170 -16.217 -22.915  0.00  0.00    -0.050 C 
BRANCH  10  11
ATOM     11  C   UNL     1      34.243 -15.106 -22.501  0.00  0.00    -0.043 C 
ATOM     12  C   UNL     1      34.158 -14.732 -21.160  0.00  0.00    -0.003 C 
ATOM     13  C   UNL     1      33.469 -14.450 -23.459  0.00  0.00    -0.003 C 
ATOM     14  C   UNL     1      33.299 -13.702 -20.776  0.00  0.00    +0.037 C 
ATOM     15  C   UNL     1      32.610 -13.421 -23.076  0.00  0.00    +0.037 C 
ATOM     16  C   UNL     1      32.525 -13.046 -21.734  0.00  0.00    +0.145 C 
BRANCH  16  17
ATOM     17  O   UNL     1      31.685 -12.042 -21.360  0.00  0.00    -0.453 OA
BRANCH  17  18
ATOM     18  C   UNL     1      31.928 -10.777 -21.869  0.00  0.00    +0.145 C 
ATOM     19  C   UNL     1      31.094  -9.714 -21.522  0.00  0.00    +0.038 C 
ATOM     20  C   UNL     1      33.006 -10.566 -22.729  0.00  0.00    +0.038 C 
ATOM     21  C   UNL     1      31.336  -8.441 -22.037  0.00  0.00    +0.008 C 
ATOM     22  C   UNL     1      33.248  -9.293 -23.244  0.00  0.00    +0.008 C 
ATOM     23  C   UNL     1      32.414  -8.229 -22.897  0.00  0.00    +0.054 C 
BRANCH  23  26
ATOM     24  O   UNL     1      31.652  -6.018 -23.263  0.00  0.00    -0.431 OA
ATOM     25  N   UNL     1      33.726  -6.454 -24.053  0.00  0.00    -0.206 NA
ATOM     26  C   UNL     1      32.664  -6.913 -23.430  0.00  0.00    +0.230 C 
ATOM     27  C   UNL     1      32.132  -4.882 -23.842  0.00  0.00    +0.202 C 
ATOM     28  C   UNL     1      33.390  -5.151 -24.319  0.00  0.00    +0.143 C 
ENDBRANCH  23  26
ENDBRANCH  17  18
ENDBRANCH  16  17
ENDBRANCH  10  11
ENDBRANCH   1  10
BRANCH   2  29
ATOM     29  C   UNL     1      36.017 -20.990 -20.201  0.00  0.00    -0.050 C 
BRANCH  29  30
ATOM     30  C   UNL     1      35.252 -21.619 -19.067  0.00  0.00    -0.043 C 
ATOM     31  C   UNL     1      33.880 -21.838 -19.188  0.00  0.00    -0.006 C 
ATOM     32  C   UNL     1      35.916 -21.981 -17.894  0.00  0.00    -0.006 C 
ATOM     33  C   UNL     1      33.172 -22.419 -18.137  0.00  0.00    +0.006 C 
ATOM     34  C   UNL     1      35.207 -22.563 -16.843  0.00  0.00    +0.006 C 
ATOM     35  C   UNL     1      33.835 -22.783 -16.965  0.00  0.00    +0.075 C 
BRANCH  35  37
ATOM     36  O   UNL     1      33.575 -23.725 -14.781  0.00  0.00    -0.245 OA
ATOM     37  C   UNL     1      33.097 -23.390 -15.870  0.00  0.00    +0.338 C 
BRANCH  37  38
ATOM     38  O   UNL     1      31.778 -23.562 -16.163  0.00  0.00    -0.477 OA
ATOM     39  H   UNL     1      31.410 -24.424 -16.176  0.00  0.00    +0.295 HD
ENDBRANCH  37  38
ENDBRANCH  35  37
ENDBRANCH  29  30
ENDBRANCH   2  29
TORSDOF 9
ENDMDL
MODEL 7
REMARK VINA RESULT:     -11.6      5.222     14.844
REMARK  Name = 68488178
REMARK  9 active torsions:
REMARK  status: ('A' for Active; 'I' for Inactive)
REMARK    1  A    between atoms: N_1  and  C_10
REMARK    2  A    between atoms: N_2  and  C_29
REMARK    3  A    between atoms: C_10  and  C_11
REMARK    4  A    between atoms: C_16  and  O_17
REMARK    5  A    between atoms: O_17  and  C_18
REMARK    6  A    between atoms: C_23  and  C_26
REMARK    7  A    between atoms: C_29  and  C_30
REMARK    8  A    between atoms: C_35  and  C_37
REMARK    9  A    between atoms: C_37  and  O_38
REMARK                            x       y       z     vdW  Elec       q    Type
REMARK                         _______ _______ _______ _____ _____    ______ ____
ROOT
ATOM      1  N   UNL     1      33.845 -12.157 -23.366  0.00  0.00    +0.388 N 
ATOM      2  N   UNL     1      34.700  -9.488 -23.322  0.00  0.00    +0.388 N 
ATOM      3  C   UNL     1      34.209 -11.416 -24.598  0.00  0.00    -0.081 C 
ATOM      4  C   UNL     1      33.266  -9.867 -23.374  0.00  0.00    -0.081 C 
ATOM      5  C   UNL     1      33.080 -10.417 -24.777  0.00  0.00    -0.046 C 
ATOM      6  C   UNL     1      33.127 -11.153 -22.539  0.00  0.00    -0.098 C 
ATOM      7  C   UNL     1      35.365 -10.475 -24.210  0.00  0.00    -0.098 C 
ATOM      8  H   UNL     1      34.665 -12.537 -22.892  0.00  0.00    -0.079 HD
ATOM      9  H   UNL     1      35.067  -9.512 -22.370  0.00  0.00    -0.079 HD
ENDROOT
BRANCH   1  10
ATOM     10  C   UNL     1      33.024 -13.330 -23.639  0.00  0.00    -0.050 C 
BRANCH  10  11
ATOM     11  C   UNL     1      33.786 -14.610 -23.425  0.00  0.00    -0.043 C 
ATOM     12  C   UNL     1      34.328 -14.898 -22.171  0.00  0.00    -0.003 C 
ATOM     13  C   UNL     1      33.952 -15.509 -24.479  0.00  0.00    -0.003 C 
ATOM     14  C   UNL     1      35.035 -16.084 -21.972  0.00  0.00    +0.037 C 
ATOM     15  C   UNL     1      34.659 -16.695 -24.280  0.00  0.00    +0.037 C 
ATOM     16  C   UNL     1      35.200 -16.982 -23.027  0.00  0.00    +0.145 C 
BRANCH  16  17
ATOM     17  O   UNL     1      35.891 -18.139 -22.833  0.00  0.00    -0.453 OA
BRANCH  17  18
ATOM     18  C   UNL     1      35.426 -19.012 -21.863  0.00  0.00    +0.145 C 
ATOM     19  C   UNL     1      34.074 -19.355 -21.824  0.00  0.00    +0.038 C 
ATOM     20  C   UNL     1      36.309 -19.547 -20.925  0.00  0.00    +0.038 C 
ATOM     21  C   UNL     1      33.605 -20.231 -20.846  0.00  0.00    +0.008 C 
ATOM     22  C   UNL     1      35.840 -20.423 -19.947  0.00  0.00    +0.008 C 
ATOM     23  C   UNL     1      34.487 -20.766 -19.907  0.00  0.00    +0.054 C 
BRANCH  23  26
ATOM     24  O   UNL     1      34.965 -22.254 -18.129  0.00  0.00    -0.431 OA
ATOM     25  N   UNL     1      32.767 -22.015 -18.605  0.00  0.00    -0.206 NA
ATOM     26  C   UNL     1      34.002 -21.672 -18.895  0.00  0.00    +0.230 C 
ATOM     27  C   UNL     1      34.258 -23.044 -17.274  0.00  0.00    +0.202 C 
ATOM     28  C   UNL     1      32.926 -22.895 -17.566  0.00  0.00    +0.143 C 
ENDBRANCH  23  26
ENDBRANCH  17  18
ENDBRANCH  16  17
ENDBRANCH  10  11
ENDBRANCH   1  10
BRANCH   2  29
ATOM     29  C   UNL     1      34.935  -8.116 -23.754  0.00  0.00    -0.050 C 
BRANCH  29  30
ATOM     30  C   UNL     1      33.832  -7.192 -23.310  0.00  0.00    -0.043 C 
ATOM     31  C   UNL     1      33.400  -7.209 -21.984  0.00  0.00    -0.006 C 
ATOM     32  C   UNL     1      33.241  -6.320 -24.225  0.00  0.00    -0.006 C 
ATOM     33  C   UNL     1      32.378  -6.354 -21.573  0.00  0.00    +0.006 C 
ATOM     34  C   UNL     1      32.219  -5.466 -23.814  0.00  0.00    +0.006 C 
ATOM     35  C   UNL     1      31.788  -5.481 -22.487  0.00  0.00    +0.075 C 
BRANCH  35  37
ATOM     36  O   UNL     1      30.168  -3.743 -22.767  0.00  0.00    -0.245 OA
ATOM     37  C   UNL     1      30.723  -4.589 -22.059  0.00  0.00    +0.338 C 
BRANCH  37  38
ATOM     38  O   UNL     1      30.378  -4.779 -20.756  0.00  0.00    -0.477 OA
ATOM     39  H   UNL     1      30.754  -5.487 -20.269  0.00  0.00    +0.295 HD
ENDBRANCH  37  38
ENDBRANCH  35  37
ENDBRANCH  29  30
ENDBRANCH   2  29
TORSDOF 9
ENDMDL
MODEL 8
REMARK VINA RESULT:     -11.5      4.428     13.150
REMARK  Name = 68488178
REMARK  9 active torsions:
REMARK  status: ('A' for Active; 'I' for Inactive)
REMARK    1  A    between atoms: N_1  and  C_10
REMARK    2  A    between atoms: N_2  and  C_29
REMARK    3  A    between atoms: C_10  and  C_11
REMARK    4  A    between atoms: C_16  and  O_17
REMARK    5  A    between atoms: O_17  and  C_18
REMARK    6  A    between atoms: C_23  and  C_26
REMARK    7  A    between atoms: C_29  and  C_30
REMARK    8  A    between atoms: C_35  and  C_37
REMARK    9  A    between atoms: C_37  and  O_38
REMARK                            x       y       z     vdW  Elec       q    Type
REMARK                         _______ _______ _______ _____ _____    ______ ____
ROOT
ATOM      1  N   UNL     1      33.216 -14.443 -22.564  0.00  0.00    +0.388 N 
ATOM      2  N   UNL     1      31.767 -12.674 -20.945  0.00  0.00    +0.388 N 
ATOM      3  C   UNL     1      33.629 -14.109 -21.180  0.00  0.00    -0.081 C 
ATOM      4  C   UNL     1      32.806 -12.214 -21.898  0.00  0.00    -0.081 C 
ATOM      5  C   UNL     1      34.111 -12.673 -21.272  0.00  0.00    -0.046 C 
ATOM      6  C   UNL     1      32.724 -13.155 -23.115  0.00  0.00    -0.098 C 
ATOM      7  C   UNL     1      32.329 -13.924 -20.375  0.00  0.00    -0.098 C 
ATOM      8  H   UNL     1      32.503 -15.173 -22.585  0.00  0.00    -0.079 HD
ATOM      9  H   UNL     1      30.868 -12.825 -21.404  0.00  0.00    -0.079 HD
ENDROOT
BRANCH   1  10
ATOM     10  C   UNL     1      34.307 -14.997 -23.357  0.00  0.00    -0.050 C 
BRANCH  10  11
ATOM     11  C   UNL     1      34.715 -16.363 -22.872  0.00  0.00    -0.043 C 
ATOM     12  C   UNL     1      34.580 -17.470 -23.710  0.00  0.00    -0.003 C 
ATOM     13  C   UNL     1      35.229 -16.521 -21.584  0.00  0.00    -0.003 C 
ATOM     14  C   UNL     1      34.958 -18.735 -23.262  0.00  0.00    +0.037 C 
ATOM     15  C   UNL     1      35.606 -17.787 -21.135  0.00  0.00    +0.037 C 
ATOM     16  C   UNL     1      35.471 -18.894 -21.974  0.00  0.00    +0.145 C 
BRANCH  16  17
ATOM     17  O   UNL     1      35.839 -20.129 -21.535  0.00  0.00    -0.453 OA
BRANCH  17  18
ATOM     18  C   UNL     1      35.088 -20.703 -20.523  0.00  0.00    +0.145 C 
ATOM     19  C   UNL     1      35.715 -21.461 -19.534  0.00  0.00    +0.038 C 
ATOM     20  C   UNL     1      33.705 -20.522 -20.492  0.00  0.00    +0.038 C 
ATOM     21  C   UNL     1      34.959 -22.042 -18.517  0.00  0.00    +0.008 C 
ATOM     22  C   UNL     1      32.949 -21.103 -19.474  0.00  0.00    +0.008 C 
ATOM     23  C   UNL     1      33.576 -21.863 -18.485  0.00  0.00    +0.054 C 
BRANCH  23  26
ATOM     24  O   UNL     1      33.506 -23.165 -16.510  0.00  0.00    -0.431 OA
ATOM     25  N   UNL     1      31.494 -22.430 -17.237  0.00  0.00    -0.206 NA
ATOM     26  C   UNL     1      32.793 -22.463 -17.433  0.00  0.00    +0.230 C 
ATOM     27  C   UNL     1      32.553 -23.619 -15.649  0.00  0.00    +0.202 C 
ATOM     28  C   UNL     1      31.335 -23.170 -16.094  0.00  0.00    +0.143 C 
ENDBRANCH  23  26
ENDBRANCH  17  18
ENDBRANCH  16  17
ENDBRANCH  10  11
ENDBRANCH   1  10
BRANCH   2  29
ATOM     29  C   UNL     1      31.472 -11.685 -19.915  0.00  0.00    -0.050 C 
BRANCH  29  30
ATOM     30  C   UNL     1      31.620 -10.278 -20.430  0.00  0.00    -0.043 C 
ATOM     31  C   UNL     1      32.187  -9.294 -19.619  0.00  0.00    -0.006 C 
ATOM     32  C   UNL     1      31.189  -9.957 -21.718  0.00  0.00    -0.006 C 
ATOM     33  C   UNL     1      32.322  -7.991 -20.096  0.00  0.00    +0.006 C 
ATOM     34  C   UNL     1      31.324  -8.654 -22.194  0.00  0.00    +0.006 C 
ATOM     35  C   UNL     1      31.893  -7.670 -21.384  0.00  0.00    +0.075 C 
BRANCH  35  37
ATOM     36  O   UNL     1      32.085  -5.986 -23.072  0.00  0.00    -0.245 OA
ATOM     37  C   UNL     1      32.035  -6.312 -21.881  0.00  0.00    +0.338 C 
BRANCH  37  38
ATOM     38  O   UNL     1      32.110  -5.396 -20.877  0.00  0.00    -0.477 OA
ATOM     39  H   UNL     1      32.932  -4.997 -20.667  0.00  0.00    +0.295 HD
ENDBRANCH  37  38
ENDBRANCH  35  37
ENDBRANCH  29  30
ENDBRANCH   2  29
TORSDOF 9
ENDMDL
MODEL 9
REMARK VINA RESULT:     -11.3      6.348     15.963
REMARK  Name = 68488178
REMARK  9 active torsions:
REMARK  status: ('A' for Active; 'I' for Inactive)
REMARK    1  A    between atoms: N_1  and  C_10
REMARK    2  A    between atoms: N_2  and  C_29
REMARK    3  A    between atoms: C_10  and  C_11
REMARK    4  A    between atoms: C_16  and  O_17
REMARK    5  A    between atoms: O_17  and  C_18
REMARK    6  A    between atoms: C_23  and  C_26
REMARK    7  A    between atoms: C_29  and  C_30
REMARK    8  A    between atoms: C_35  and  C_37
REMARK    9  A    between atoms: C_37  and  O_38
REMARK                            x       y       z     vdW  Elec       q    Type
REMARK                         _______ _______ _______ _____ _____    ______ ____
ROOT
ATOM      1  N   UNL     1      32.028 -10.006 -22.492  0.00  0.00    +0.388 N 
ATOM      2  N   UNL     1      32.550  -7.377 -23.309  0.00  0.00    +0.388 N 
ATOM      3  C   UNL     1      31.225  -8.851 -22.023  0.00  0.00    -0.081 C 
ATOM      4  C   UNL     1      33.238  -8.006 -22.154  0.00  0.00    -0.081 C 
ATOM      5  C   UNL     1      32.160  -8.103 -21.090  0.00  0.00    -0.046 C 
ATOM      6  C   UNL     1      33.421  -9.491 -22.516  0.00  0.00    -0.098 C 
ATOM      7  C   UNL     1      31.153  -7.868 -23.206  0.00  0.00    -0.098 C 
ATOM      8  H   UNL     1      31.720 -10.340 -23.406  0.00  0.00    -0.079 HD
ATOM      9  H   UNL     1      32.987  -7.628 -24.197  0.00  0.00    -0.079 HD
ENDROOT
BRANCH   1  10
ATOM     10  C   UNL     1      31.890 -11.173 -21.628  0.00  0.00    -0.050 C 
BRANCH  10  11
ATOM     11  C   UNL     1      32.654 -12.357 -22.158  0.00  0.00    -0.043 C 
ATOM     12  C   UNL     1      33.027 -13.388 -21.296  0.00  0.00    -0.003 C 
ATOM     13  C   UNL     1      32.988 -12.423 -23.511  0.00  0.00    -0.003 C 
ATOM     14  C   UNL     1      33.735 -14.486 -21.786  0.00  0.00    +0.037 C 
ATOM     15  C   UNL     1      33.697 -13.520 -24.001  0.00  0.00    +0.037 C 
ATOM     16  C   UNL     1      34.070 -14.551 -23.139  0.00  0.00    +0.145 C 
BRANCH  16  17
ATOM     17  O   UNL     1      34.761 -15.622 -23.618  0.00  0.00    -0.453 OA
BRANCH  17  18
ATOM     18  C   UNL     1      34.844 -16.746 -22.814  0.00  0.00    +0.145 C 
ATOM     19  C   UNL     1      34.460 -17.990 -23.313  0.00  0.00    +0.038 C 
ATOM     20  C   UNL     1      35.312 -16.634 -21.504  0.00  0.00    +0.038 C 
ATOM     21  C   UNL     1      34.540 -19.122 -22.503  0.00  0.00    +0.008 C 
ATOM     22  C   UNL     1      35.393 -17.766 -20.694  0.00  0.00    +0.008 C 
ATOM     23  C   UNL     1      35.007 -19.012 -21.193  0.00  0.00    +0.054 C 
BRANCH  23  26
ATOM     24  O   UNL     1      36.339 -20.485 -19.905  0.00  0.00    -0.431 OA
ATOM     25  N   UNL     1      34.137 -20.996 -19.962  0.00  0.00    -0.206 NA
ATOM     26  C   UNL     1      35.091 -20.182 -20.354  0.00  0.00    +0.230 C 
ATOM     27  C   UNL     1      36.145 -21.606 -19.156  0.00  0.00    +0.202 C 
ATOM     28  C   UNL     1      34.807 -21.911 -19.192  0.00  0.00    +0.143 C 
ENDBRANCH  23  26
ENDBRANCH  17  18
ENDBRANCH  16  17
ENDBRANCH  10  11
ENDBRANCH   1  10
BRANCH   2  29
ATOM     29  C   UNL     1      32.625  -5.921 -23.282  0.00  0.00    -0.050 C 
BRANCH  29  30
ATOM     30  C   UNL     1      33.401  -5.378 -24.452  0.00  0.00    -0.043 C 
ATOM     31  C   UNL     1      32.829  -4.411 -25.280  0.00  0.00    -0.006 C 
ATOM     32  C   UNL     1      34.692  -5.842 -24.709  0.00  0.00    -0.006 C 
ATOM     33  C   UNL     1      33.548  -3.909 -26.363  0.00  0.00    +0.006 C 
ATOM     34  C   UNL     1      35.410  -5.339 -25.793  0.00  0.00    +0.006 C 
ATOM     35  C   UNL     1      34.839  -4.371 -26.621  0.00  0.00    +0.075 C 
BRANCH  35  37
ATOM     36  O   UNL     1      35.719  -4.404 -28.845  0.00  0.00    -0.245 OA
ATOM     37  C   UNL     1      35.588  -3.847 -27.750  0.00  0.00    +0.338 C 
BRANCH  37  38
ATOM     38  O   UNL     1      36.154  -2.638 -27.483  0.00  0.00    -0.477 OA
ATOM     39  H   UNL     1      36.662  -2.520 -26.704  0.00  0.00    +0.295 HD
ENDBRANCH  37  38
ENDBRANCH  35  37
ENDBRANCH  29  30
ENDBRANCH   2  29
TORSDOF 9
ENDMDL
