MODEL 1
REMARK VINA RESULT:     -12.1      0.000      0.000
REMARK  Name = 9823454
REMARK  7 active torsions:
REMARK  status: ('A' for Active; 'I' for Inactive)
REMARK    1  A    between atoms: C_1  and  C_4
REMARK    2  A    between atoms: C_1  and  N_8
REMARK    3  A    between atoms: C_1  and  C_23
REMARK    4  A    between atoms: N_3  and  O_6
REMARK    5  A    between atoms: N_8  and  S_10
REMARK    6  A    between atoms: S_10  and  C_13
REMARK    7  A    between atoms: C_23  and  C_24
REMARK                            x       y       z     vdW  Elec       q    Type
REMARK                         _______ _______ _______ _____ _____    ______ ____
ROOT
ATOM      1  C   UNL     1      34.599 -24.197 -13.043  0.00  0.00    +0.158 C 
ENDROOT
BRANCH   1   4
ATOM      2  O   UNL     1      35.258 -24.378 -10.724  0.00  0.00    -0.272 OA
ATOM      3  N   UNL     1      36.248 -25.772 -12.276  0.00  0.00    -0.196 N 
ATOM      4  C   UNL     1      35.388 -24.778 -11.880  0.00  0.00    +0.260 C 
ATOM      5  H   UNL     1      36.319 -26.061 -13.215  0.00  0.00    +0.182 HD
BRANCH   3   6
ATOM      6  O   UNL     1      37.021 -26.352 -11.260  0.00  0.00    -0.295 OA
ATOM      7  H   UNL     1      37.952 -26.368 -11.531  0.00  0.00    +0.241 HD
ENDBRANCH   3   6
ENDBRANCH   1   4
BRANCH   1   8
ATOM      8  N   UNL     1      35.491 -23.192 -13.667  0.00  0.00    -0.172 NA
ATOM      9  H   UNL     1      34.901 -22.412 -13.955  0.00  0.00    +0.149 HD
BRANCH   8  10
ATOM     10  S   UNL     1      36.434 -23.619 -15.014  0.00  0.00    +0.061 S 
ATOM     11  O   UNL     1      36.454 -25.063 -15.151  0.00  0.00    -0.153 OA
ATOM     12  O   UNL     1      37.677 -22.873 -14.969  0.00  0.00    -0.153 OA
BRANCH  10  13
ATOM     13  C   UNL     1      35.484 -22.958 -16.349  0.00  0.00    +0.122 C 
ATOM     14  C   UNL     1      36.117 -22.200 -17.319  0.00  0.00    +0.020 C 
ATOM     15  C   UNL     1      35.376 -21.667 -18.386  0.00  0.00    +0.001 C 
ATOM     16  C   UNL     1      34.127 -23.210 -16.400  0.00  0.00    +0.020 C 
ATOM     17  C   UNL     1      33.984 -21.915 -18.454  0.00  0.00    +0.000 C 
ATOM     18  C   UNL     1      33.375 -22.688 -17.454  0.00  0.00    +0.001 C 
ATOM     19  C   UNL     1      35.985 -20.893 -19.387  0.00  0.00    +0.000 C 
ATOM     20  C   UNL     1      33.242 -21.381 -19.521  0.00  0.00    +0.000 C 
ATOM     21  C   UNL     1      35.233 -20.371 -20.440  0.00  0.00    +0.000 C 
ATOM     22  C   UNL     1      33.865 -20.615 -20.507  0.00  0.00    +0.000 C 
ENDBRANCH  10  13
ENDBRANCH   8  10
ENDBRANCH   1   8
BRANCH   1  23
ATOM     23  C   UNL     1      33.309 -23.517 -12.555  0.00  0.00    +0.053 C 
BRANCH  23  24
ATOM     24  C   UNL     1      32.105 -23.890 -13.353  0.00  0.00    -0.020 C 
ATOM     25  C   UNL     1      31.493 -22.945 -14.177  0.00  0.00    -0.004 C 
ATOM     26  C   UNL     1      30.359 -23.281 -14.935  0.00  0.00    -0.000 C 
ATOM     27  C   UNL     1      31.593 -25.182 -13.277  0.00  0.00    -0.004 C 
ATOM     28  C   UNL     1      29.839 -24.595 -14.856  0.00  0.00    -0.000 C 
ATOM     29  C   UNL     1      30.468 -25.533 -14.023  0.00  0.00    -0.000 C 
ATOM     30  C   UNL     1      29.731 -22.341 -15.767  0.00  0.00    -0.000 C 
ATOM     31  C   UNL     1      28.706 -24.931 -15.614  0.00  0.00    -0.000 C 
ATOM     32  C   UNL     1      28.605 -22.693 -16.514  0.00  0.00    -0.000 C 
ATOM     33  C   UNL     1      28.093 -23.984 -16.436  0.00  0.00    -0.000 C 
ENDBRANCH  23  24
ENDBRANCH   1  23
TORSDOF 7
ENDMDL
MODEL 2
REMARK VINA RESULT:     -11.7      1.540      6.144
REMARK  Name = 9823454
REMARK  7 active torsions:
REMARK  status: ('A' for Active; 'I' for Inactive)
REMARK    1  A    between atoms: C_1  and  C_4
REMARK    2  A    between atoms: C_1  and  N_8
REMARK    3  A    between atoms: C_1  and  C_23
REMARK    4  A    between atoms: N_3  and  O_6
REMARK    5  A    between atoms: N_8  and  S_10
REMARK    6  A    between atoms: S_10  and  C_13
REMARK    7  A    between atoms: C_23  and  C_24
REMARK                            x       y       z     vdW  Elec       q    Type
REMARK                         _______ _______ _______ _____ _____    ______ ____
ROOT
ATOM      1  C   UNL     1      35.867 -22.414 -15.305  0.00  0.00    +0.158 C 
ENDROOT
BRANCH   1   4
ATOM      2  O   UNL     1      37.501 -22.776 -13.562  0.00  0.00    -0.272 OA
ATOM      3  N   UNL     1      37.947 -23.563 -15.686  0.00  0.00    -0.196 N 
ATOM      4  C   UNL     1      37.180 -22.929 -14.739  0.00  0.00    +0.260 C 
ATOM      5  H   UNL     1      37.648 -23.663 -16.619  0.00  0.00    +0.182 HD
BRANCH   3   6
ATOM      6  O   UNL     1      39.181 -24.059 -15.242  0.00  0.00    -0.295 OA
ATOM      7  H   UNL     1      39.033 -24.825 -14.667  0.00  0.00    +0.241 HD
ENDBRANCH   3   6
ENDBRANCH   1   4
BRANCH   1   8
ATOM      8  N   UNL     1      34.872 -22.581 -14.219  0.00  0.00    -0.172 NA
ATOM      9  H   UNL     1      35.207 -22.038 -13.425  0.00  0.00    +0.149 HD
BRANCH   8  10
ATOM     10  S   UNL     1      34.511 -24.134 -13.635  0.00  0.00    +0.061 S 
ATOM     11  O   UNL     1      34.681 -24.160 -12.194  0.00  0.00    -0.153 OA
ATOM     12  O   UNL     1      35.184 -25.114 -14.467  0.00  0.00    -0.153 OA
BRANCH  10  13
ATOM     13  C   UNL     1      32.783 -24.262 -13.982  0.00  0.00    +0.122 C 
ATOM     14  C   UNL     1      32.221 -23.427 -14.932  0.00  0.00    +0.020 C 
ATOM     15  C   UNL     1      30.849 -23.516 -15.220  0.00  0.00    +0.001 C 
ATOM     16  C   UNL     1      32.026 -25.194 -13.300  0.00  0.00    +0.020 C 
ATOM     17  C   UNL     1      30.058 -24.465 -14.529  0.00  0.00    +0.000 C 
ATOM     18  C   UNL     1      30.661 -25.296 -13.573  0.00  0.00    +0.001 C 
ATOM     19  C   UNL     1      30.246 -22.684 -16.176  0.00  0.00    +0.000 C 
ATOM     20  C   UNL     1      28.685 -24.553 -14.816  0.00  0.00    +0.000 C 
ATOM     21  C   UNL     1      28.880 -22.786 -16.449  0.00  0.00    +0.000 C 
ATOM     22  C   UNL     1      28.103 -23.718 -15.770  0.00  0.00    +0.000 C 
ENDBRANCH  10  13
ENDBRANCH   8  10
ENDBRANCH   1   8
BRANCH   1  23
ATOM     23  C   UNL     1      35.435 -23.227 -16.537  0.00  0.00    +0.053 C 
BRANCH  23  24
ATOM     24  C   UNL     1      35.045 -22.377 -17.699  0.00  0.00    -0.020 C 
ATOM     25  C   UNL     1      36.012 -21.634 -18.377  0.00  0.00    -0.004 C 
ATOM     26  C   UNL     1      35.660 -20.829 -19.473  0.00  0.00    -0.000 C 
ATOM     27  C   UNL     1      33.715 -22.326 -18.108  0.00  0.00    -0.004 C 
ATOM     28  C   UNL     1      34.307 -20.778 -19.888  0.00  0.00    -0.000 C 
ATOM     29  C   UNL     1      33.348 -21.533 -19.194  0.00  0.00    -0.000 C 
ATOM     30  C   UNL     1      36.620 -20.075 -20.166  0.00  0.00    -0.000 C 
ATOM     31  C   UNL     1      33.955 -19.974 -20.984  0.00  0.00    -0.000 C 
ATOM     32  C   UNL     1      36.253 -19.281 -21.254  0.00  0.00    -0.000 C 
ATOM     33  C   UNL     1      34.923 -19.230 -21.660  0.00  0.00    -0.000 C 
ENDBRANCH  23  24
ENDBRANCH   1  23
TORSDOF 7
ENDMDL
MODEL 3
REMARK VINA RESULT:     -10.5      2.180      3.407
REMARK  Name = 9823454
REMARK  7 active torsions:
REMARK  status: ('A' for Active; 'I' for Inactive)
REMARK    1  A    between atoms: C_1  and  C_4
REMARK    2  A    between atoms: C_1  and  N_8
REMARK    3  A    between atoms: C_1  and  C_23
REMARK    4  A    between atoms: N_3  and  O_6
REMARK    5  A    between atoms: N_8  and  S_10
REMARK    6  A    between atoms: S_10  and  C_13
REMARK    7  A    between atoms: C_23  and  C_24
REMARK                            x       y       z     vdW  Elec       q    Type
REMARK                         _______ _______ _______ _____ _____    ______ ____
ROOT
ATOM      1  C   UNL     1      35.226 -23.198 -15.891  0.00  0.00    +0.158 C 
ENDROOT
BRANCH   1   4
ATOM      2  O   UNL     1      37.408 -22.182 -16.119  0.00  0.00    -0.272 OA
ATOM      3  N   UNL     1      37.243 -24.252 -15.109  0.00  0.00    -0.196 N 
ATOM      4  C   UNL     1      36.736 -23.135 -15.727  0.00  0.00    +0.260 C 
ATOM      5  H   UNL     1      36.666 -24.992 -14.811  0.00  0.00    +0.182 HD
BRANCH   3   6
ATOM      6  O   UNL     1      38.633 -24.274 -14.930  0.00  0.00    -0.295 OA
ATOM      7  H   UNL     1      39.025 -24.934 -15.522  0.00  0.00    +0.241 HD
ENDBRANCH   3   6
ENDBRANCH   1   4
BRANCH   1   8
ATOM      8  N   UNL     1      34.901 -22.221 -16.959  0.00  0.00    -0.172 NA
ATOM      9  H   UNL     1      34.574 -21.375 -16.495  0.00  0.00    +0.149 HD
BRANCH   8  10
ATOM     10  S   UNL     1      33.745 -22.613 -18.139  0.00  0.00    +0.061 S 
ATOM     11  O   UNL     1      32.415 -22.382 -17.607  0.00  0.00    -0.153 OA
ATOM     12  O   UNL     1      34.086 -23.899 -18.718  0.00  0.00    -0.153 OA
BRANCH  10  13
ATOM     13  C   UNL     1      34.057 -21.391 -19.376  0.00  0.00    +0.122 C 
ATOM     14  C   UNL     1      35.358 -20.974 -19.601  0.00  0.00    +0.020 C 
ATOM     15  C   UNL     1      35.624 -20.003 -20.580  0.00  0.00    +0.001 C 
ATOM     16  C   UNL     1      32.998 -20.874 -20.096  0.00  0.00    +0.020 C 
ATOM     17  C   UNL     1      34.550 -19.463 -21.327  0.00  0.00    +0.000 C 
ATOM     18  C   UNL     1      33.244 -19.909 -21.073  0.00  0.00    +0.001 C 
ATOM     19  C   UNL     1      36.931 -19.557 -20.834  0.00  0.00    +0.000 C 
ATOM     20  C   UNL     1      34.815 -18.491 -22.306  0.00  0.00    +0.000 C 
ATOM     21  C   UNL     1      37.176 -18.591 -21.811  0.00  0.00    +0.000 C 
ATOM     22  C   UNL     1      36.121 -18.060 -22.545  0.00  0.00    +0.000 C 
ENDBRANCH  10  13
ENDBRANCH   8  10
ENDBRANCH   1   8
BRANCH   1  23
ATOM     23  C   UNL     1      34.508 -22.805 -14.590  0.00  0.00    +0.053 C 
BRANCH  23  24
ATOM     24  C   UNL     1      33.203 -23.503 -14.401  0.00  0.00    -0.020 C 
ATOM     25  C   UNL     1      32.057 -23.026 -15.038  0.00  0.00    -0.004 C 
ATOM     26  C   UNL     1      30.822 -23.673 -14.870  0.00  0.00    -0.000 C 
ATOM     27  C   UNL     1      33.130 -24.631 -13.589  0.00  0.00    -0.004 C 
ATOM     28  C   UNL     1      30.748 -24.820 -14.044  0.00  0.00    -0.000 C 
ATOM     29  C   UNL     1      31.911 -25.286 -13.411  0.00  0.00    -0.000 C 
ATOM     30  C   UNL     1      29.659 -23.205 -15.502  0.00  0.00    -0.000 C 
ATOM     31  C   UNL     1      29.512 -25.466 -13.876  0.00  0.00    -0.000 C 
ATOM     32  C   UNL     1      28.439 -23.860 -15.325  0.00  0.00    -0.000 C 
ATOM     33  C   UNL     1      28.367 -24.987 -14.512  0.00  0.00    -0.000 C 
ENDBRANCH  23  24
ENDBRANCH   1  23
TORSDOF 7
ENDMDL
MODEL 4
REMARK VINA RESULT:     -10.5      2.033      3.306
REMARK  Name = 9823454
REMARK  7 active torsions:
REMARK  status: ('A' for Active; 'I' for Inactive)
REMARK    1  A    between atoms: C_1  and  C_4
REMARK    2  A    between atoms: C_1  and  N_8
REMARK    3  A    between atoms: C_1  and  C_23
REMARK    4  A    between atoms: N_3  and  O_6
REMARK    5  A    between atoms: N_8  and  S_10
REMARK    6  A    between atoms: S_10  and  C_13
REMARK    7  A    between atoms: C_23  and  C_24
REMARK                            x       y       z     vdW  Elec       q    Type
REMARK                         _______ _______ _______ _____ _____    ______ ____
ROOT
ATOM      1  C   UNL     1      34.540 -24.290 -15.545  0.00  0.00    +0.158 C 
ENDROOT
BRANCH   1   4
ATOM      2  O   UNL     1      36.484 -25.598 -14.953  0.00  0.00    -0.272 OA
ATOM      3  N   UNL     1      36.765 -23.373 -15.502  0.00  0.00    -0.196 N 
ATOM      4  C   UNL     1      36.024 -24.512 -15.301  0.00  0.00    +0.260 C 
ATOM      5  H   UNL     1      36.353 -22.523 -15.780  0.00  0.00    +0.182 HD
BRANCH   3   6
ATOM      6  O   UNL     1      38.145 -23.495 -15.286  0.00  0.00    -0.295 OA
ATOM      7  H   UNL     1      38.301 -23.983 -14.463  0.00  0.00    +0.241 HD
ENDBRANCH   3   6
ENDBRANCH   1   4
BRANCH   1   8
ATOM      8  N   UNL     1      34.446 -23.010 -16.287  0.00  0.00    -0.172 NA
ATOM      9  H   UNL     1      34.020 -22.333 -15.655  0.00  0.00    +0.149 HD
BRANCH   8  10
ATOM     10  S   UNL     1      33.575 -22.939 -17.743  0.00  0.00    +0.061 S 
ATOM     11  O   UNL     1      32.301 -22.286 -17.512  0.00  0.00    -0.153 OA
ATOM     12  O   UNL     1      33.622 -24.243 -18.379  0.00  0.00    -0.153 OA
BRANCH  10  13
ATOM     13  C   UNL     1      34.576 -21.855 -18.715  0.00  0.00    +0.122 C 
ATOM     14  C   UNL     1      33.986 -21.114 -19.725  0.00  0.00    +0.020 C 
ATOM     15  C   UNL     1      34.768 -20.248 -20.507  0.00  0.00    +0.001 C 
ATOM     16  C   UNL     1      35.928 -21.766 -18.449  0.00  0.00    +0.020 C 
ATOM     17  C   UNL     1      36.155 -20.145 -20.248  0.00  0.00    +0.000 C 
ATOM     18  C   UNL     1      36.720 -20.910 -19.215  0.00  0.00    +0.001 C 
ATOM     19  C   UNL     1      34.203 -19.483 -21.540  0.00  0.00    +0.000 C 
ATOM     20  C   UNL     1      36.937 -19.280 -21.030  0.00  0.00    +0.000 C 
ATOM     21  C   UNL     1      34.995 -18.628 -22.307  0.00  0.00    +0.000 C 
ATOM     22  C   UNL     1      36.358 -18.526 -22.052  0.00  0.00    +0.000 C 
ENDBRANCH  10  13
ENDBRANCH   8  10
ENDBRANCH   1   8
BRANCH   1  23
ATOM     23  C   UNL     1      33.769 -24.181 -14.219  0.00  0.00    +0.053 C 
BRANCH  23  24
ATOM     24  C   UNL     1      32.364 -23.708 -14.389  0.00  0.00    -0.020 C 
ATOM     25  C   UNL     1      31.483 -24.416 -15.208  0.00  0.00    -0.004 C 
ATOM     26  C   UNL     1      30.158 -23.983 -15.378  0.00  0.00    -0.000 C 
ATOM     27  C   UNL     1      31.933 -22.561 -13.730  0.00  0.00    -0.004 C 
ATOM     28  C   UNL     1      29.720 -22.816 -14.707  0.00  0.00    -0.000 C 
ATOM     29  C   UNL     1      30.620 -22.117 -13.887  0.00  0.00    -0.000 C 
ATOM     30  C   UNL     1      29.259 -24.683 -16.198  0.00  0.00    -0.000 C 
ATOM     31  C   UNL     1      28.395 -22.383 -14.877  0.00  0.00    -0.000 C 
ATOM     32  C   UNL     1      27.945 -24.239 -16.356  0.00  0.00    -0.000 C 
ATOM     33  C   UNL     1      27.515 -23.091 -15.697  0.00  0.00    -0.000 C 
ENDBRANCH  23  24
ENDBRANCH   1  23
TORSDOF 7
ENDMDL
MODEL 5
REMARK VINA RESULT:     -10.5      0.958      2.061
REMARK  Name = 9823454
REMARK  7 active torsions:
REMARK  status: ('A' for Active; 'I' for Inactive)
REMARK    1  A    between atoms: C_1  and  C_4
REMARK    2  A    between atoms: C_1  and  N_8
REMARK    3  A    between atoms: C_1  and  C_23
REMARK    4  A    between atoms: N_3  and  O_6
REMARK    5  A    between atoms: N_8  and  S_10
REMARK    6  A    between atoms: S_10  and  C_13
REMARK    7  A    between atoms: C_23  and  C_24
REMARK                            x       y       z     vdW  Elec       q    Type
REMARK                         _______ _______ _______ _____ _____    ______ ____
ROOT
ATOM      1  C   UNL     1      34.842 -24.604 -12.691  0.00  0.00    +0.158 C 
ENDROOT
BRANCH   1   4
ATOM      2  O   UNL     1      36.368 -25.577 -11.090  0.00  0.00    -0.272 OA
ATOM      3  N   UNL     1      36.293 -23.279 -11.302  0.00  0.00    -0.196 N 
ATOM      4  C   UNL     1      35.914 -24.562 -11.615  0.00  0.00    +0.260 C 
ATOM      5  H   UNL     1      35.901 -22.494 -11.749  0.00  0.00    +0.182 HD
BRANCH   3   6
ATOM      6  O   UNL     1      37.274 -23.157 -10.308  0.00  0.00    -0.295 OA
ATOM      7  H   UNL     1      36.966 -22.540  -9.626  0.00  0.00    +0.241 HD
ENDBRANCH   3   6
ENDBRANCH   1   4
BRANCH   1   8
ATOM      8  N   UNL     1      35.241 -23.584 -13.691  0.00  0.00    -0.172 NA
ATOM      9  H   UNL     1      34.452 -23.468 -14.326  0.00  0.00    +0.149 HD
BRANCH   8  10
ATOM     10  S   UNL     1      36.614 -23.840 -14.656  0.00  0.00    +0.061 S 
ATOM     11  O   UNL     1      36.711 -25.247 -14.996  0.00  0.00    -0.153 OA
ATOM     12  O   UNL     1      37.743 -23.156 -14.053  0.00  0.00    -0.153 OA
BRANCH  10  13
ATOM     13  C   UNL     1      36.198 -22.952 -16.126  0.00  0.00    +0.122 C 
ATOM     14  C   UNL     1      34.894 -22.985 -16.589  0.00  0.00    +0.020 C 
ATOM     15  C   UNL     1      34.547 -22.284 -17.756  0.00  0.00    +0.001 C 
ATOM     16  C   UNL     1      37.181 -22.241 -16.785  0.00  0.00    +0.020 C 
ATOM     17  C   UNL     1      35.542 -21.551 -18.444  0.00  0.00    +0.000 C 
ATOM     18  C   UNL     1      36.854 -21.538 -17.946  0.00  0.00    +0.001 C 
ATOM     19  C   UNL     1      33.234 -22.297 -18.254  0.00  0.00    +0.000 C 
ATOM     20  C   UNL     1      35.195 -20.851 -19.612  0.00  0.00    +0.000 C 
ATOM     21  C   UNL     1      32.907 -21.595 -19.416  0.00  0.00    +0.000 C 
ATOM     22  C   UNL     1      33.885 -20.874 -20.092  0.00  0.00    +0.000 C 
ENDBRANCH  10  13
ENDBRANCH   8  10
ENDBRANCH   1   8
BRANCH   1  23
ATOM     23  C   UNL     1      33.460 -24.254 -12.114  0.00  0.00    +0.053 C 
BRANCH  23  24
ATOM     24  C   UNL     1      32.445 -23.937 -13.160  0.00  0.00    -0.020 C 
ATOM     25  C   UNL     1      31.369 -24.800 -13.375  0.00  0.00    -0.004 C 
ATOM     26  C   UNL     1      30.406 -24.514 -14.356  0.00  0.00    -0.000 C 
ATOM     27  C   UNL     1      32.571 -22.779 -13.922  0.00  0.00    -0.004 C 
ATOM     28  C   UNL     1      30.535 -23.336 -15.130  0.00  0.00    -0.000 C 
ATOM     29  C   UNL     1      31.623 -22.479 -14.900  0.00  0.00    -0.000 C 
ATOM     30  C   UNL     1      29.318 -25.372 -14.585  0.00  0.00    -0.000 C 
ATOM     31  C   UNL     1      29.571 -23.051 -16.111  0.00  0.00    -0.000 C 
ATOM     32  C   UNL     1      28.369 -25.073 -15.564  0.00  0.00    -0.000 C 
ATOM     33  C   UNL     1      28.497 -23.915 -16.326  0.00  0.00    -0.000 C 
ENDBRANCH  23  24
ENDBRANCH   1  23
TORSDOF 7
ENDMDL
MODEL 6
REMARK VINA RESULT:     -10.4      1.251      1.611
REMARK  Name = 9823454
REMARK  7 active torsions:
REMARK  status: ('A' for Active; 'I' for Inactive)
REMARK    1  A    between atoms: C_1  and  C_4
REMARK    2  A    between atoms: C_1  and  N_8
REMARK    3  A    between atoms: C_1  and  C_23
REMARK    4  A    between atoms: N_3  and  O_6
REMARK    5  A    between atoms: N_8  and  S_10
REMARK    6  A    between atoms: S_10  and  C_13
REMARK    7  A    between atoms: C_23  and  C_24
REMARK                            x       y       z     vdW  Elec       q    Type
REMARK                         _______ _______ _______ _____ _____    ______ ____
ROOT
ATOM      1  C   UNL     1      35.219 -25.070 -14.395  0.00  0.00    +0.158 C 
ENDROOT
BRANCH   1   4
ATOM      2  O   UNL     1      37.331 -26.206 -14.100  0.00  0.00    -0.272 OA
ATOM      3  N   UNL     1      36.760 -24.518 -12.632  0.00  0.00    -0.196 N 
ATOM      4  C   UNL     1      36.550 -25.339 -13.713  0.00  0.00    +0.260 C 
ATOM      5  H   UNL     1      36.106 -23.835 -12.359  0.00  0.00    +0.182 HD
BRANCH   3   6
ATOM      6  O   UNL     1      37.965 -24.712 -11.942  0.00  0.00    -0.295 OA
ATOM      7  H   UNL     1      37.834 -25.369 -11.242  0.00  0.00    +0.241 HD
ENDBRANCH   3   6
ENDBRANCH   1   4
BRANCH   1   8
ATOM      8  N   UNL     1      35.558 -24.456 -15.702  0.00  0.00    -0.172 NA
ATOM      9  H   UNL     1      36.170 -25.112 -16.186  0.00  0.00    +0.149 HD
BRANCH   8  10
ATOM     10  S   UNL     1      36.322 -22.941 -15.751  0.00  0.00    +0.061 S 
ATOM     11  O   UNL     1      37.743 -23.124 -15.978  0.00  0.00    -0.153 OA
ATOM     12  O   UNL     1      35.859 -22.147 -14.629  0.00  0.00    -0.153 OA
BRANCH  10  13
ATOM     13  C   UNL     1      35.625 -22.228 -17.209  0.00  0.00    +0.122 C 
ATOM     14  C   UNL     1      36.417 -21.427 -18.016  0.00  0.00    +0.020 C 
ATOM     15  C   UNL     1      35.878 -20.853 -19.178  0.00  0.00    +0.001 C 
ATOM     16  C   UNL     1      34.303 -22.482 -17.519  0.00  0.00    +0.020 C 
ATOM     17  C   UNL     1      34.524 -21.102 -19.510  0.00  0.00    +0.000 C 
ATOM     18  C   UNL     1      33.751 -21.919 -18.670  0.00  0.00    +0.001 C 
ATOM     19  C   UNL     1      36.651 -20.035 -20.018  0.00  0.00    +0.000 C 
ATOM     20  C   UNL     1      33.985 -20.527 -20.672  0.00  0.00    +0.000 C 
ATOM     21  C   UNL     1      36.099 -19.472 -21.169  0.00  0.00    +0.000 C 
ATOM     22  C   UNL     1      34.769 -19.718 -21.495  0.00  0.00    +0.000 C 
ENDBRANCH  10  13
ENDBRANCH   8  10
ENDBRANCH   1   8
BRANCH   1  23
ATOM     23  C   UNL     1      34.357 -24.099 -13.572  0.00  0.00    +0.053 C 
BRANCH  23  24
ATOM     24  C   UNL     1      32.898 -24.213 -13.859  0.00  0.00    -0.020 C 
ATOM     25  C   UNL     1      32.319 -23.427 -14.857  0.00  0.00    -0.004 C 
ATOM     26  C   UNL     1      30.947 -23.523 -15.139  0.00  0.00    -0.000 C 
ATOM     27  C   UNL     1      32.114 -25.104 -13.133  0.00  0.00    -0.004 C 
ATOM     28  C   UNL     1      30.150 -24.429 -14.400  0.00  0.00    -0.000 C 
ATOM     29  C   UNL     1      30.749 -25.212 -13.401  0.00  0.00    -0.000 C 
ATOM     30  C   UNL     1      30.349 -22.739 -16.139  0.00  0.00    -0.000 C 
ATOM     31  C   UNL     1      28.778 -24.525 -14.683  0.00  0.00    -0.000 C 
ATOM     32  C   UNL     1      28.984 -22.847 -16.407  0.00  0.00    -0.000 C 
ATOM     33  C   UNL     1      28.200 -23.738 -15.679  0.00  0.00    -0.000 C 
ENDBRANCH  23  24
ENDBRANCH   1  23
TORSDOF 7
ENDMDL
MODEL 7
REMARK VINA RESULT:     -10.3      7.085     10.920
REMARK  Name = 9823454
REMARK  7 active torsions:
REMARK  status: ('A' for Active; 'I' for Inactive)
REMARK    1  A    between atoms: C_1  and  C_4
REMARK    2  A    between atoms: C_1  and  N_8
REMARK    3  A    between atoms: C_1  and  C_23
REMARK    4  A    between atoms: N_3  and  O_6
REMARK    5  A    between atoms: N_8  and  S_10
REMARK    6  A    between atoms: S_10  and  C_13
REMARK    7  A    between atoms: C_23  and  C_24
REMARK                            x       y       z     vdW  Elec       q    Type
REMARK                         _______ _______ _______ _____ _____    ______ ____
ROOT
ATOM      1  C   UNL     1      34.808 -17.118 -24.288  0.00  0.00    +0.158 C 
ENDROOT
BRANCH   1   4
ATOM      2  O   UNL     1      33.071 -16.132 -25.650  0.00  0.00    -0.272 OA
ATOM      3  N   UNL     1      32.767 -18.270 -24.834  0.00  0.00    -0.196 N 
ATOM      4  C   UNL     1      33.467 -17.101 -25.004  0.00  0.00    +0.260 C 
ATOM      5  H   UNL     1      33.124 -19.022 -24.307  0.00  0.00    +0.182 HD
BRANCH   3   6
ATOM      6  O   UNL     1      31.512 -18.328 -25.456  0.00  0.00    -0.295 OA
ATOM      7  H   UNL     1      31.605 -18.089 -26.392  0.00  0.00    +0.241 HD
ENDBRANCH   3   6
ENDBRANCH   1   4
BRANCH   1   8
ATOM      8  N   UNL     1      34.575 -17.854 -23.023  0.00  0.00    -0.172 NA
ATOM      9  H   UNL     1      34.368 -17.156 -22.309  0.00  0.00    +0.149 HD
BRANCH   8  10
ATOM     10  S   UNL     1      35.791 -18.857 -22.392  0.00  0.00    +0.061 S 
ATOM     11  O   UNL     1      36.771 -18.047 -21.694  0.00  0.00    -0.153 OA
ATOM     12  O   UNL     1      36.213 -19.785 -23.425  0.00  0.00    -0.153 OA
BRANCH  10  13
ATOM     13  C   UNL     1      34.902 -19.796 -21.188  0.00  0.00    +0.122 C 
ATOM     14  C   UNL     1      35.606 -20.517 -20.238  0.00  0.00    +0.020 C 
ATOM     15  C   UNL     1      34.915 -21.268 -19.274  0.00  0.00    +0.001 C 
ATOM     16  C   UNL     1      33.522 -19.793 -21.215  0.00  0.00    +0.020 C 
ATOM     17  C   UNL     1      33.499 -21.277 -19.288  0.00  0.00    +0.000 C 
ATOM     18  C   UNL     1      32.818 -20.534 -20.265  0.00  0.00    +0.001 C 
ATOM     19  C   UNL     1      35.597 -22.012 -18.297  0.00  0.00    +0.000 C 
ATOM     20  C   UNL     1      32.808 -22.029 -18.325  0.00  0.00    +0.000 C 
ATOM     21  C   UNL     1      34.893 -22.753 -17.347  0.00  0.00    +0.000 C 
ATOM     22  C   UNL     1      33.502 -22.761 -17.361  0.00  0.00    +0.000 C 
ENDBRANCH  10  13
ENDBRANCH   8  10
ENDBRANCH   1   8
BRANCH   1  23
ATOM     23  C   UNL     1      35.292 -15.692 -23.980  0.00  0.00    +0.053 C 
BRANCH  23  24
ATOM     24  C   UNL     1      34.523 -15.029 -22.887  0.00  0.00    -0.020 C 
ATOM     25  C   UNL     1      33.732 -13.914 -23.167  0.00  0.00    -0.004 C 
ATOM     26  C   UNL     1      33.002 -13.279 -22.149  0.00  0.00    -0.000 C 
ATOM     27  C   UNL     1      34.593 -15.524 -21.589  0.00  0.00    -0.004 C 
ATOM     28  C   UNL     1      33.074 -13.783 -20.828  0.00  0.00    -0.000 C 
ATOM     29  C   UNL     1      33.874 -14.906 -20.565  0.00  0.00    -0.000 C 
ATOM     30  C   UNL     1      32.202 -12.156 -22.414  0.00  0.00    -0.000 C 
ATOM     31  C   UNL     1      32.344 -13.148 -19.811  0.00  0.00    -0.000 C 
ATOM     32  C   UNL     1      31.482 -11.537 -21.390  0.00  0.00    -0.000 C 
ATOM     33  C   UNL     1      31.555 -12.032 -20.091  0.00  0.00    -0.000 C 
ENDBRANCH  23  24
ENDBRANCH   1  23
TORSDOF 7
ENDMDL
MODEL 8
REMARK VINA RESULT:     -10.2      9.510     12.808
REMARK  Name = 9823454
REMARK  7 active torsions:
REMARK  status: ('A' for Active; 'I' for Inactive)
REMARK    1  A    between atoms: C_1  and  C_4
REMARK    2  A    between atoms: C_1  and  N_8
REMARK    3  A    between atoms: C_1  and  C_23
REMARK    4  A    between atoms: N_3  and  O_6
REMARK    5  A    between atoms: N_8  and  S_10
REMARK    6  A    between atoms: S_10  and  C_13
REMARK    7  A    between atoms: C_23  and  C_24
REMARK                            x       y       z     vdW  Elec       q    Type
REMARK                         _______ _______ _______ _____ _____    ______ ____
ROOT
ATOM      1  C   UNL     1      34.350 -15.937 -23.369  0.00  0.00    +0.158 C 
ENDROOT
BRANCH   1   4
ATOM      2  O   UNL     1      34.598 -16.086 -25.769  0.00  0.00    -0.272 OA
ATOM      3  N   UNL     1      32.616 -16.780 -24.809  0.00  0.00    -0.196 N 
ATOM      4  C   UNL     1      33.891 -16.270 -24.779  0.00  0.00    +0.260 C 
ATOM      5  H   UNL     1      32.086 -16.911 -23.989  0.00  0.00    +0.182 HD
BRANCH   3   6
ATOM      6  O   UNL     1      32.116 -17.104 -26.078  0.00  0.00    -0.295 OA
ATOM      7  H   UNL     1      32.644 -17.822 -26.459  0.00  0.00    +0.241 HD
ENDBRANCH   3   6
ENDBRANCH   1   4
BRANCH   1   8
ATOM      8  N   UNL     1      34.393 -14.457 -23.304  0.00  0.00    -0.172 NA
ATOM      9  H   UNL     1      34.806 -14.213 -22.404  0.00  0.00    +0.149 HD
BRANCH   8  10
ATOM     10  S   UNL     1      32.956 -13.563 -23.443  0.00  0.00    +0.061 S 
ATOM     11  O   UNL     1      32.198 -13.672 -22.211  0.00  0.00    -0.153 OA
ATOM     12  O   UNL     1      32.331 -13.878 -24.714  0.00  0.00    -0.153 OA
BRANCH  10  13
ATOM     13  C   UNL     1      33.565 -11.909 -23.564  0.00  0.00    +0.122 C 
ATOM     14  C   UNL     1      32.997 -10.920 -22.778  0.00  0.00    +0.020 C 
ATOM     15  C   UNL     1      33.470  -9.600 -22.863  0.00  0.00    +0.001 C 
ATOM     16  C   UNL     1      34.596 -11.633 -24.440  0.00  0.00    +0.020 C 
ATOM     17  C   UNL     1      34.526  -9.300 -23.756  0.00  0.00    +0.000 C 
ATOM     18  C   UNL     1      35.078 -10.327 -24.537  0.00  0.00    +0.001 C 
ATOM     19  C   UNL     1      32.917  -8.573 -22.081  0.00  0.00    +0.000 C 
ATOM     20  C   UNL     1      34.998  -7.979 -23.841  0.00  0.00    +0.000 C 
ATOM     21  C   UNL     1      33.399  -7.267 -22.179  0.00  0.00    +0.000 C 
ATOM     22  C   UNL     1      34.437  -6.971 -23.056  0.00  0.00    +0.000 C 
ENDBRANCH  10  13
ENDBRANCH   8  10
ENDBRANCH   1   8
BRANCH   1  23
ATOM     23  C   UNL     1      35.749 -16.511 -23.089  0.00  0.00    +0.053 C 
BRANCH  23  24
ATOM     24  C   UNL     1      35.732 -17.696 -22.183  0.00  0.00    -0.020 C 
ATOM     25  C   UNL     1      34.519 -18.293 -21.837  0.00  0.00    -0.004 C 
ATOM     26  C   UNL     1      34.487 -19.410 -20.986  0.00  0.00    -0.000 C 
ATOM     27  C   UNL     1      36.927 -18.206 -21.684  0.00  0.00    -0.004 C 
ATOM     28  C   UNL     1      35.702 -19.928 -20.478  0.00  0.00    -0.000 C 
ATOM     29  C   UNL     1      36.913 -19.314 -20.837  0.00  0.00    -0.000 C 
ATOM     30  C   UNL     1      33.275 -20.022 -20.627  0.00  0.00    -0.000 C 
ATOM     31  C   UNL     1      35.670 -21.044 -19.626  0.00  0.00    -0.000 C 
ATOM     32  C   UNL     1      33.262 -21.131 -19.780  0.00  0.00    -0.000 C 
ATOM     33  C   UNL     1      34.456 -21.639 -19.280  0.00  0.00    -0.000 C 
ENDBRANCH  23  24
ENDBRANCH   1  23
TORSDOF 7
ENDMDL
MODEL 9
REMARK VINA RESULT:     -10.2      8.908     12.100
REMARK  Name = 9823454
REMARK  7 active torsions:
REMARK  status: ('A' for Active; 'I' for Inactive)
REMARK    1  A    between atoms: C_1  and  C_4
REMARK    2  A    between atoms: C_1  and  N_8
REMARK    3  A    between atoms: C_1  and  C_23
REMARK    4  A    between atoms: N_3  and  O_6
REMARK    5  A    between atoms: N_8  and  S_10
REMARK    6  A    between atoms: S_10  and  C_13
REMARK    7  A    between atoms: C_23  and  C_24
REMARK                            x       y       z     vdW  Elec       q    Type
REMARK                         _______ _______ _______ _____ _____    ______ ____
ROOT
ATOM      1  C   UNL     1      34.469 -16.196 -23.354  0.00  0.00    +0.158 C 
ENDROOT
BRANCH   1   4
ATOM      2  O   UNL     1      34.622 -16.067 -25.762  0.00  0.00    -0.272 OA
ATOM      3  N   UNL     1      32.692 -16.904 -24.813  0.00  0.00    -0.196 N 
ATOM      4  C   UNL     1      33.959 -16.376 -24.774  0.00  0.00    +0.260 C 
ATOM      5  H   UNL     1      32.197 -17.138 -23.994  0.00  0.00    +0.182 HD
BRANCH   3   6
ATOM      6  O   UNL     1      32.146 -17.091 -26.091  0.00  0.00    -0.295 OA
ATOM      7  H   UNL     1      31.332 -16.571 -26.173  0.00  0.00    +0.241 HD
ENDBRANCH   3   6
ENDBRANCH   1   4
BRANCH   1   8
ATOM      8  N   UNL     1      34.640 -14.734 -23.174  0.00  0.00    -0.172 NA
ATOM      9  H   UNL     1      34.621 -14.556 -22.170  0.00  0.00    +0.149 HD
BRANCH   8  10
ATOM     10  S   UNL     1      33.533 -13.660 -23.885  0.00  0.00    +0.061 S 
ATOM     11  O   UNL     1      32.425 -14.410 -24.446  0.00  0.00    -0.153 OA
ATOM     12  O   UNL     1      34.263 -12.713 -24.706  0.00  0.00    -0.153 OA
BRANCH  10  13
ATOM     13  C   UNL     1      32.933 -12.772 -22.480  0.00  0.00    +0.122 C 
ATOM     14  C   UNL     1      32.818 -11.394 -22.551  0.00  0.00    +0.020 C 
ATOM     15  C   UNL     1      32.343 -10.673 -21.443  0.00  0.00    +0.001 C 
ATOM     16  C   UNL     1      32.591 -13.468 -21.338  0.00  0.00    +0.020 C 
ATOM     17  C   UNL     1      31.988 -11.370 -20.264  0.00  0.00    +0.000 C 
ATOM     18  C   UNL     1      32.118 -12.767 -20.228  0.00  0.00    +0.001 C 
ATOM     19  C   UNL     1      32.214  -9.275 -21.480  0.00  0.00    +0.000 C 
ATOM     20  C   UNL     1      31.515 -10.649 -19.156  0.00  0.00    +0.000 C 
ATOM     21  C   UNL     1      31.741  -8.574 -20.369  0.00  0.00    +0.000 C 
ATOM     22  C   UNL     1      31.392  -9.260 -19.211  0.00  0.00    +0.000 C 
ENDBRANCH  10  13
ENDBRANCH   8  10
ENDBRANCH   1   8
BRANCH   1  23
ATOM     23  C   UNL     1      35.818 -16.907 -23.153  0.00  0.00    +0.053 C 
BRANCH  23  24
ATOM     24  C   UNL     1      35.754 -18.031 -22.175  0.00  0.00    -0.020 C 
ATOM     25  C   UNL     1      34.522 -18.587 -21.829  0.00  0.00    -0.004 C 
ATOM     26  C   UNL     1      34.446 -19.646 -20.910  0.00  0.00    -0.000 C 
ATOM     27  C   UNL     1      36.925 -18.527 -21.610  0.00  0.00    -0.004 C 
ATOM     28  C   UNL     1      35.637 -20.150 -20.335  0.00  0.00    -0.000 C 
ATOM     29  C   UNL     1      36.868 -19.579 -20.696  0.00  0.00    -0.000 C 
ATOM     30  C   UNL     1      33.215 -20.216 -20.550  0.00  0.00    -0.000 C 
ATOM     31  C   UNL     1      35.561 -21.209 -19.416  0.00  0.00    -0.000 C 
ATOM     32  C   UNL     1      33.158 -21.269 -19.636  0.00  0.00    -0.000 C 
ATOM     33  C   UNL     1      34.329 -21.763 -19.070  0.00  0.00    -0.000 C 
ENDBRANCH  23  24
ENDBRANCH   1  23
TORSDOF 7
ENDMDL
