MODEL 1
REMARK VINA RESULT:     -11.2      0.000      0.000
REMARK  Name = 18376177
REMARK  11 active torsions:
REMARK  status: ('A' for Active; 'I' for Inactive)
REMARK    1  A    between atoms: N_1  and  S_2
REMARK    2  A    between atoms: N_1  and  C_11
REMARK    3  A    between atoms: N_1  and  C_23
REMARK    4  A    between atoms: S_2  and  C_6
REMARK    5  A    between atoms: C_11  and  C_12
REMARK    6  A    between atoms: C_15  and  N_18
REMARK    7  A    between atoms: C_23  and  C_24
REMARK    8  A    between atoms: C_27  and  O_30
REMARK    9  A    between atoms: O_30  and  C_31
REMARK   10  A    between atoms: C_31  and  C_33
REMARK   11  A    between atoms: C_33  and  O_34
REMARK                            x       y       z     vdW  Elec       q    Type
REMARK                         _______ _______ _______ _____ _____    ______ ____
ROOT
ATOM      1  N   UNL     1      33.259 -23.251 -14.989  0.00  0.00    -0.147 NA
ENDROOT
BRANCH   1   2
ATOM      2  S   UNL     1      32.043 -23.989 -14.015  0.00  0.00    +0.065 S 
ATOM      3  O   UNL     1      31.839 -23.199 -12.815  0.00  0.00    -0.153 OA
ATOM      4  O   UNL     1      32.316 -25.410 -13.896  0.00  0.00    -0.153 OA
BRANCH   2   6
ATOM      5  N   UNL     1      29.270 -22.461 -16.518  0.00  0.00    -0.241 NA
ATOM      6  C   UNL     1      30.590 -23.815 -15.012  0.00  0.00    +0.141 C 
ATOM      7  C   UNL     1      29.649 -24.835 -15.091  0.00  0.00    +0.023 C 
ATOM      8  C   UNL     1      30.356 -22.659 -15.739  0.00  0.00    +0.119 C 
ATOM      9  C   UNL     1      28.518 -24.670 -15.882  0.00  0.00    +0.022 C 
ATOM     10  C   UNL     1      28.377 -23.475 -16.571  0.00  0.00    +0.099 C 
ENDBRANCH   2   6
ENDBRANCH   1   2
BRANCH   1  11
ATOM     11  C   UNL     1      33.635 -23.924 -16.258  0.00  0.00    +0.122 C 
BRANCH  11  12
ATOM     12  C   UNL     1      33.995 -22.944 -17.338  0.00  0.00    -0.004 C 
ATOM     13  C   UNL     1      35.323 -22.555 -17.513  0.00  0.00    -0.002 C 
ATOM     14  C   UNL     1      33.001 -22.422 -18.166  0.00  0.00    -0.002 C 
ATOM     15  C   UNL     1      34.662 -21.121 -19.342  0.00  0.00    +0.074 C 
ATOM     16  C   UNL     1      35.656 -21.643 -18.515  0.00  0.00    +0.016 C 
ATOM     17  C   UNL     1      33.334 -21.511 -19.168  0.00  0.00    +0.016 C 
BRANCH  15  18
ATOM     18  N   UNL     1      34.994 -20.219 -20.337  0.00  0.00    -0.189 N 
ATOM     19  N   UNL     1      36.224 -19.680 -20.383  0.00  0.00    -0.172 NA
ATOM     20  C   UNL     1      34.167 -19.793 -21.334  0.00  0.00    +0.091 C 
ATOM     21  C   UNL     1      34.906 -18.914 -22.085  0.00  0.00    +0.040 C 
ATOM     22  C   UNL     1      36.164 -18.882 -21.455  0.00  0.00    +0.120 C 
ENDBRANCH  15  18
ENDBRANCH  11  12
ENDBRANCH   1  11
BRANCH   1  23
ATOM     23  C   UNL     1      34.438 -22.665 -14.301  0.00  0.00    +0.123 C 
BRANCH  23  24
ATOM     24  C   UNL     1      35.275 -23.710 -13.618  0.00  0.00    -0.001 C 
ATOM     25  C   UNL     1      36.241 -24.412 -14.339  0.00  0.00    +0.034 C 
ATOM     26  C   UNL     1      35.087 -23.978 -12.261  0.00  0.00    -0.003 C 
ATOM     27  C   UNL     1      37.017 -25.381 -13.705  0.00  0.00    +0.139 C 
ATOM     28  C   UNL     1      35.864 -24.947 -11.628  0.00  0.00    +0.003 C 
ATOM     29  C   UNL     1      36.830 -25.649 -12.350  0.00  0.00    +0.037 C 
BRANCH  27  30
ATOM     30  O   UNL     1      37.958 -26.068 -14.410  0.00  0.00    -0.464 OA
BRANCH  30  31
ATOM     31  C   UNL     1      39.233 -26.244 -13.793  0.00  0.00    +0.314 C 
BRANCH  31  33
ATOM     32  O   UNL     1      41.025 -24.645 -14.159  0.00  0.00    -0.246 OA
ATOM     33  C   UNL     1      40.285 -25.520 -14.585  0.00  0.00    +0.359 C 
BRANCH  33  34
ATOM     34  O   UNL     1      40.306 -25.976 -15.862  0.00  0.00    -0.478 OA
ATOM     35  H   UNL     1      41.125 -26.147 -16.286  0.00  0.00    +0.295 HD
ENDBRANCH  33  34
ENDBRANCH  31  33
ENDBRANCH  30  31
ENDBRANCH  27  30
ENDBRANCH  23  24
ENDBRANCH   1  23
TORSDOF 11
ENDMDL
MODEL 2
REMARK VINA RESULT:     -10.7      2.693      6.945
REMARK  Name = 18376177
REMARK  11 active torsions:
REMARK  status: ('A' for Active; 'I' for Inactive)
REMARK    1  A    between atoms: N_1  and  S_2
REMARK    2  A    between atoms: N_1  and  C_11
REMARK    3  A    between atoms: N_1  and  C_23
REMARK    4  A    between atoms: S_2  and  C_6
REMARK    5  A    between atoms: C_11  and  C_12
REMARK    6  A    between atoms: C_15  and  N_18
REMARK    7  A    between atoms: C_23  and  C_24
REMARK    8  A    between atoms: C_27  and  O_30
REMARK    9  A    between atoms: O_30  and  C_31
REMARK   10  A    between atoms: C_31  and  C_33
REMARK   11  A    between atoms: C_33  and  O_34
REMARK                            x       y       z     vdW  Elec       q    Type
REMARK                         _______ _______ _______ _____ _____    ______ ____
ROOT
ATOM      1  N   UNL     1      34.037 -23.443 -15.516  0.00  0.00    -0.147 NA
ENDROOT
BRANCH   1   2
ATOM      2  S   UNL     1      35.647 -23.105 -15.001  0.00  0.00    +0.065 S 
ATOM      3  O   UNL     1      35.877 -21.672 -15.042  0.00  0.00    -0.153 OA
ATOM      4  O   UNL     1      36.569 -23.995 -15.682  0.00  0.00    -0.153 OA
BRANCH   2   6
ATOM      5  N   UNL     1      34.547 -24.828 -11.521  0.00  0.00    -0.241 NA
ATOM      6  C   UNL     1      35.616 -23.583 -13.296  0.00  0.00    +0.141 C 
ATOM      7  C   UNL     1      36.582 -23.128 -12.407  0.00  0.00    +0.023 C 
ATOM      8  C   UNL     1      34.629 -24.424 -12.808  0.00  0.00    +0.119 C 
ATOM      9  C   UNL     1      36.533 -23.521 -11.074  0.00  0.00    +0.022 C 
ATOM     10  C   UNL     1      35.504 -24.365 -10.685  0.00  0.00    +0.099 C 
ENDBRANCH   2   6
ENDBRANCH   1   2
BRANCH   1  11
ATOM     11  C   UNL     1      33.836 -23.892 -16.917  0.00  0.00    +0.122 C 
BRANCH  11  12
ATOM     12  C   UNL     1      34.107 -22.797 -17.911  0.00  0.00    -0.004 C 
ATOM     13  C   UNL     1      33.045 -22.146 -18.538  0.00  0.00    -0.002 C 
ATOM     14  C   UNL     1      35.421 -22.433 -18.206  0.00  0.00    -0.002 C 
ATOM     15  C   UNL     1      34.610 -20.767 -19.757  0.00  0.00    +0.074 C 
ATOM     16  C   UNL     1      33.297 -21.131 -19.461  0.00  0.00    +0.016 C 
ATOM     17  C   UNL     1      35.672 -21.418 -19.129  0.00  0.00    +0.016 C 
BRANCH  15  18
ATOM     18  N   UNL     1      34.859 -19.760 -20.671  0.00  0.00    -0.189 N 
ATOM     19  N   UNL     1      35.818 -18.848 -20.435  0.00  0.00    -0.172 NA
ATOM     20  C   UNL     1      34.206 -19.579 -21.855  0.00  0.00    +0.091 C 
ATOM     21  C   UNL     1      34.776 -18.472 -22.433  0.00  0.00    +0.040 C 
ATOM     22  C   UNL     1      35.762 -18.063 -21.516  0.00  0.00    +0.120 C 
ENDBRANCH  15  18
ENDBRANCH  11  12
ENDBRANCH   1  11
BRANCH   1  23
ATOM     23  C   UNL     1      32.959 -22.525 -15.068  0.00  0.00    +0.123 C 
BRANCH  23  24
ATOM     24  C   UNL     1      31.611 -23.190 -15.059  0.00  0.00    -0.001 C 
ATOM     25  C   UNL     1      30.623 -22.777 -15.952  0.00  0.00    +0.034 C 
ATOM     26  C   UNL     1      31.349 -24.222 -14.158  0.00  0.00    -0.003 C 
ATOM     27  C   UNL     1      29.373 -23.394 -15.944  0.00  0.00    +0.139 C 
ATOM     28  C   UNL     1      30.099 -24.840 -14.150  0.00  0.00    +0.003 C 
ATOM     29  C   UNL     1      29.110 -24.426 -15.044  0.00  0.00    +0.037 C 
BRANCH  27  30
ATOM     30  O   UNL     1      28.408 -22.989 -16.814  0.00  0.00    -0.464 OA
BRANCH  30  31
ATOM     31  C   UNL     1      27.252 -22.362 -16.258  0.00  0.00    +0.314 C 
BRANCH  31  33
ATOM     32  O   UNL     1      26.083 -20.533 -17.346  0.00  0.00    -0.246 OA
ATOM     33  C   UNL     1      26.461 -21.695 -17.347  0.00  0.00    +0.359 C 
BRANCH  33  34
ATOM     34  O   UNL     1      26.218 -22.571 -18.353  0.00  0.00    -0.478 OA
ATOM     35  H   UNL     1      26.815 -23.275 -18.517  0.00  0.00    +0.295 HD
ENDBRANCH  33  34
ENDBRANCH  31  33
ENDBRANCH  30  31
ENDBRANCH  27  30
ENDBRANCH  23  24
ENDBRANCH   1  23
TORSDOF 11
ENDMDL
MODEL 3
REMARK VINA RESULT:     -10.5      2.612      6.644
REMARK  Name = 18376177
REMARK  11 active torsions:
REMARK  status: ('A' for Active; 'I' for Inactive)
REMARK    1  A    between atoms: N_1  and  S_2
REMARK    2  A    between atoms: N_1  and  C_11
REMARK    3  A    between atoms: N_1  and  C_23
REMARK    4  A    between atoms: S_2  and  C_6
REMARK    5  A    between atoms: C_11  and  C_12
REMARK    6  A    between atoms: C_15  and  N_18
REMARK    7  A    between atoms: C_23  and  C_24
REMARK    8  A    between atoms: C_27  and  O_30
REMARK    9  A    between atoms: O_30  and  C_31
REMARK   10  A    between atoms: C_31  and  C_33
REMARK   11  A    between atoms: C_33  and  O_34
REMARK                            x       y       z     vdW  Elec       q    Type
REMARK                         _______ _______ _______ _____ _____    ______ ____
ROOT
ATOM      1  N   UNL     1      34.263 -23.347 -16.270  0.00  0.00    -0.147 NA
ENDROOT
BRANCH   1   2
ATOM      2  S   UNL     1      35.827 -22.937 -15.671  0.00  0.00    +0.065 S 
ATOM      3  O   UNL     1      35.693 -21.997 -14.572  0.00  0.00    -0.153 OA
ATOM      4  O   UNL     1      36.702 -22.614 -16.783  0.00  0.00    -0.153 OA
BRANCH   2   6
ATOM      5  N   UNL     1      36.031 -26.834 -14.641  0.00  0.00    -0.241 NA
ATOM      6  C   UNL     1      36.393 -24.469 -14.986  0.00  0.00    +0.141 C 
ATOM      7  C   UNL     1      37.588 -24.541 -14.281  0.00  0.00    +0.023 C 
ATOM      8  C   UNL     1      35.657 -25.634 -15.137  0.00  0.00    +0.119 C 
ATOM      9  C   UNL     1      38.007 -25.758 -13.755  0.00  0.00    +0.022 C 
ATOM     10  C   UNL     1      37.199 -26.866 -13.961  0.00  0.00    +0.099 C 
ENDBRANCH   2   6
ENDBRANCH   1   2
BRANCH   1  11
ATOM     11  C   UNL     1      34.144 -23.714 -17.704  0.00  0.00    +0.122 C 
BRANCH  11  12
ATOM     12  C   UNL     1      34.301 -22.526 -18.611  0.00  0.00    -0.004 C 
ATOM     13  C   UNL     1      35.572 -22.129 -19.026  0.00  0.00    -0.002 C 
ATOM     14  C   UNL     1      33.176 -21.820 -19.037  0.00  0.00    -0.002 C 
ATOM     15  C   UNL     1      34.593 -20.318 -20.292  0.00  0.00    +0.074 C 
ATOM     16  C   UNL     1      35.718 -21.024 -19.866  0.00  0.00    +0.016 C 
ATOM     17  C   UNL     1      33.322 -20.716 -19.878  0.00  0.00    +0.016 C 
BRANCH  15  18
ATOM     18  N   UNL     1      34.738 -19.225 -21.126  0.00  0.00    -0.189 N 
ATOM     19  N   UNL     1      35.264 -18.079 -20.661  0.00  0.00    -0.172 NA
ATOM     20  C   UNL     1      34.392 -19.178 -22.445  0.00  0.00    +0.091 C 
ATOM     21  C   UNL     1      34.712 -17.913 -22.872  0.00  0.00    +0.040 C 
ATOM     22  C   UNL     1      35.244 -17.280 -21.733  0.00  0.00    +0.120 C 
ENDBRANCH  15  18
ENDBRANCH  11  12
ENDBRANCH   1  11
BRANCH   1  23
ATOM     23  C   UNL     1      33.109 -22.535 -15.807  0.00  0.00    +0.123 C 
BRANCH  23  24
ATOM     24  C   UNL     1      32.086 -23.363 -15.081  0.00  0.00    -0.001 C 
ATOM     25  C   UNL     1      30.741 -23.285 -15.442  0.00  0.00    +0.034 C 
ATOM     26  C   UNL     1      32.482 -24.210 -14.046  0.00  0.00    -0.003 C 
ATOM     27  C   UNL     1      29.792 -24.053 -14.768  0.00  0.00    +0.139 C 
ATOM     28  C   UNL     1      31.533 -24.979 -13.372  0.00  0.00    +0.003 C 
ATOM     29  C   UNL     1      30.187 -24.900 -13.734  0.00  0.00    +0.037 C 
BRANCH  27  30
ATOM     30  O   UNL     1      28.479 -23.975 -15.119  0.00  0.00    -0.464 OA
BRANCH  30  31
ATOM     31  C   UNL     1      27.947 -22.673 -15.360  0.00  0.00    +0.314 C 
BRANCH  31  33
ATOM     32  O   UNL     1      27.363 -23.516 -17.562  0.00  0.00    -0.246 OA
ATOM     33  C   UNL     1      27.350 -22.614 -16.738  0.00  0.00    +0.359 C 
BRANCH  33  34
ATOM     34  O   UNL     1      26.781 -21.401 -16.950  0.00  0.00    -0.478 OA
ATOM     35  H   UNL     1      26.311 -20.976 -16.260  0.00  0.00    +0.295 HD
ENDBRANCH  33  34
ENDBRANCH  31  33
ENDBRANCH  30  31
ENDBRANCH  27  30
ENDBRANCH  23  24
ENDBRANCH   1  23
TORSDOF 11
ENDMDL
MODEL 4
REMARK VINA RESULT:     -10.1      1.446      2.186
REMARK  Name = 18376177
REMARK  11 active torsions:
REMARK  status: ('A' for Active; 'I' for Inactive)
REMARK    1  A    between atoms: N_1  and  S_2
REMARK    2  A    between atoms: N_1  and  C_11
REMARK    3  A    between atoms: N_1  and  C_23
REMARK    4  A    between atoms: S_2  and  C_6
REMARK    5  A    between atoms: C_11  and  C_12
REMARK    6  A    between atoms: C_15  and  N_18
REMARK    7  A    between atoms: C_23  and  C_24
REMARK    8  A    between atoms: C_27  and  O_30
REMARK    9  A    between atoms: O_30  and  C_31
REMARK   10  A    between atoms: C_31  and  C_33
REMARK   11  A    between atoms: C_33  and  O_34
REMARK                            x       y       z     vdW  Elec       q    Type
REMARK                         _______ _______ _______ _____ _____    ______ ____
ROOT
ATOM      1  N   UNL     1      33.194 -22.993 -15.474  0.00  0.00    -0.147 NA
ENDROOT
BRANCH   1   2
ATOM      2  S   UNL     1      32.106 -23.853 -14.449  0.00  0.00    +0.065 S 
ATOM      3  O   UNL     1      31.971 -23.148 -13.188  0.00  0.00    -0.153 OA
ATOM      4  O   UNL     1      32.457 -25.262 -14.446  0.00  0.00    -0.153 OA
BRANCH   2   6
ATOM      5  N   UNL     1      29.050 -22.329 -16.600  0.00  0.00    -0.241 NA
ATOM      6  C   UNL     1      30.564 -23.699 -15.306  0.00  0.00    +0.141 C 
ATOM      7  C   UNL     1      29.671 -24.762 -15.371  0.00  0.00    +0.023 C 
ATOM      8  C   UNL     1      30.209 -22.514 -15.931  0.00  0.00    +0.119 C 
ATOM      9  C   UNL     1      28.468 -24.611 -16.051  0.00  0.00    +0.022 C 
ATOM     10  C   UNL     1      28.207 -23.385 -16.644  0.00  0.00    +0.099 C 
ENDBRANCH   2   6
ENDBRANCH   1   2
BRANCH   1  11
ATOM     11  C   UNL     1      33.604 -23.638 -16.747  0.00  0.00    +0.122 C 
BRANCH  11  12
ATOM     12  C   UNL     1      33.912 -22.632 -17.821  0.00  0.00    -0.004 C 
ATOM     13  C   UNL     1      35.236 -22.376 -18.176  0.00  0.00    -0.002 C 
ATOM     14  C   UNL     1      32.875 -21.956 -18.463  0.00  0.00    -0.002 C 
ATOM     15  C   UNL     1      34.485 -20.764 -19.812  0.00  0.00    +0.074 C 
ATOM     16  C   UNL     1      35.523 -21.441 -19.171  0.00  0.00    +0.016 C 
ATOM     17  C   UNL     1      33.161 -21.022 -19.458  0.00  0.00    +0.016 C 
BRANCH  15  18
ATOM     18  N   UNL     1      34.770 -19.840 -20.800  0.00  0.00    -0.189 N 
ATOM     19  N   UNL     1      35.828 -19.019 -20.681  0.00  0.00    -0.172 NA
ATOM     20  C   UNL     1      34.059 -19.659 -21.950  0.00  0.00    +0.091 C 
ATOM     21  C   UNL     1      34.696 -18.649 -22.630  0.00  0.00    +0.040 C 
ATOM     22  C   UNL     1      35.777 -18.294 -21.802  0.00  0.00    +0.120 C 
ENDBRANCH  15  18
ENDBRANCH  11  12
ENDBRANCH   1  11
BRANCH   1  23
ATOM     23  C   UNL     1      34.318 -22.263 -14.834  0.00  0.00    +0.123 C 
BRANCH  23  24
ATOM     24  C   UNL     1      35.561 -23.101 -14.740  0.00  0.00    -0.001 C 
ATOM     25  C   UNL     1      35.542 -24.302 -14.031  0.00  0.00    +0.034 C 
ATOM     26  C   UNL     1      36.736 -22.679 -15.363  0.00  0.00    -0.003 C 
ATOM     27  C   UNL     1      36.696 -25.080 -13.944  0.00  0.00    +0.139 C 
ATOM     28  C   UNL     1      37.890 -23.456 -15.276  0.00  0.00    +0.003 C 
ATOM     29  C   UNL     1      37.870 -24.658 -14.567  0.00  0.00    +0.037 C 
BRANCH  27  30
ATOM     30  O   UNL     1      36.677 -26.250 -13.250  0.00  0.00    -0.464 OA
BRANCH  30  31
ATOM     31  C   UNL     1      37.399 -26.288 -12.019  0.00  0.00    +0.314 C 
BRANCH  31  33
ATOM     32  O   UNL     1      35.664 -25.377 -10.583  0.00  0.00    -0.246 OA
ATOM     33  C   UNL     1      36.794 -25.317 -11.045  0.00  0.00    +0.359 C 
BRANCH  33  34
ATOM     34  O   UNL     1      37.688 -24.343 -10.739  0.00  0.00    -0.478 OA
ATOM     35  H   UNL     1      38.592 -24.450 -10.960  0.00  0.00    +0.295 HD
ENDBRANCH  33  34
ENDBRANCH  31  33
ENDBRANCH  30  31
ENDBRANCH  27  30
ENDBRANCH  23  24
ENDBRANCH   1  23
TORSDOF 11
ENDMDL
MODEL 5
REMARK VINA RESULT:      -9.6      3.313      7.469
REMARK  Name = 18376177
REMARK  11 active torsions:
REMARK  status: ('A' for Active; 'I' for Inactive)
REMARK    1  A    between atoms: N_1  and  S_2
REMARK    2  A    between atoms: N_1  and  C_11
REMARK    3  A    between atoms: N_1  and  C_23
REMARK    4  A    between atoms: S_2  and  C_6
REMARK    5  A    between atoms: C_11  and  C_12
REMARK    6  A    between atoms: C_15  and  N_18
REMARK    7  A    between atoms: C_23  and  C_24
REMARK    8  A    between atoms: C_27  and  O_30
REMARK    9  A    between atoms: O_30  and  C_31
REMARK   10  A    between atoms: C_31  and  C_33
REMARK   11  A    between atoms: C_33  and  O_34
REMARK                            x       y       z     vdW  Elec       q    Type
REMARK                         _______ _______ _______ _____ _____    ______ ____
ROOT
ATOM      1  N   UNL     1      34.711 -24.443 -12.913  0.00  0.00    -0.147 NA
ENDROOT
BRANCH   1   2
ATOM      2  S   UNL     1      36.076 -24.334 -11.865  0.00  0.00    +0.065 S 
ATOM      3  O   UNL     1      35.820 -25.099 -10.657  0.00  0.00    -0.153 OA
ATOM      4  O   UNL     1      36.493 -22.948 -11.757  0.00  0.00    -0.153 OA
BRANCH   2   6
ATOM      5  N   UNL     1      37.989 -27.131 -14.058  0.00  0.00    -0.241 NA
ATOM      6  C   UNL     1      37.331 -25.191 -12.774  0.00  0.00    +0.141 C 
ATOM      7  C   UNL     1      38.601 -24.647 -12.929  0.00  0.00    +0.023 C 
ATOM      8  C   UNL     1      37.078 -26.425 -13.353  0.00  0.00    +0.119 C 
ATOM      9  C   UNL     1      39.566 -25.343 -13.649  0.00  0.00    +0.022 C 
ATOM     10  C   UNL     1      39.213 -26.570 -14.189  0.00  0.00    +0.099 C 
ENDBRANCH   2   6
ENDBRANCH   1   2
BRANCH   1  11
ATOM     11  C   UNL     1      33.416 -24.866 -12.324  0.00  0.00    +0.122 C 
BRANCH  11  12
ATOM     12  C   UNL     1      32.242 -24.431 -13.156  0.00  0.00    -0.004 C 
ATOM     13  C   UNL     1      32.089 -23.087 -13.495  0.00  0.00    -0.002 C 
ATOM     14  C   UNL     1      31.306 -25.370 -13.589  0.00  0.00    -0.002 C 
ATOM     15  C   UNL     1      30.062 -23.621 -14.697  0.00  0.00    +0.074 C 
ATOM     16  C   UNL     1      30.999 -22.682 -14.266  0.00  0.00    +0.016 C 
ATOM     17  C   UNL     1      30.217 -24.965 -14.359  0.00  0.00    +0.016 C 
BRANCH  15  18
ATOM     18  N   UNL     1      28.983 -23.219 -15.463  0.00  0.00    -0.189 N 
ATOM     19  N   UNL     1      28.214 -22.190 -15.067  0.00  0.00    -0.172 NA
ATOM     20  C   UNL     1      28.592 -23.779 -16.643  0.00  0.00    +0.091 C 
ATOM     21  C   UNL     1      27.489 -23.068 -17.048  0.00  0.00    +0.040 C 
ATOM     22  C   UNL     1      27.301 -22.104 -16.041  0.00  0.00    +0.120 C 
ENDBRANCH  15  18
ENDBRANCH  11  12
ENDBRANCH   1  11
BRANCH   1  23
ATOM     23  C   UNL     1      34.921 -25.019 -14.266  0.00  0.00    +0.123 C 
BRANCH  23  24
ATOM     24  C   UNL     1      35.160 -23.960 -15.305  0.00  0.00    -0.001 C 
ATOM     25  C   UNL     1      34.150 -23.628 -16.208  0.00  0.00    +0.034 C 
ATOM     26  C   UNL     1      36.392 -23.308 -15.366  0.00  0.00    -0.003 C 
ATOM     27  C   UNL     1      34.372 -22.645 -17.172  0.00  0.00    +0.139 C 
ATOM     28  C   UNL     1      36.614 -22.326 -16.330  0.00  0.00    +0.003 C 
ATOM     29  C   UNL     1      35.604 -21.993 -17.233  0.00  0.00    +0.037 C 
BRANCH  27  30
ATOM     30  O   UNL     1      33.388 -22.323 -18.055  0.00  0.00    -0.464 OA
BRANCH  30  31
ATOM     31  C   UNL     1      33.760 -22.201 -19.428  0.00  0.00    +0.314 C 
BRANCH  31  33
ATOM     32  O   UNL     1      32.282 -20.410 -20.141  0.00  0.00    -0.246 OA
ATOM     33  C   UNL     1      33.410 -20.828 -19.930  0.00  0.00    +0.359 C 
BRANCH  33  34
ATOM     34  O   UNL     1      34.538 -20.098 -20.120  0.00  0.00    -0.478 OA
ATOM     35  H   UNL     1      34.492 -19.163 -20.150  0.00  0.00    +0.295 HD
ENDBRANCH  33  34
ENDBRANCH  31  33
ENDBRANCH  30  31
ENDBRANCH  27  30
ENDBRANCH  23  24
ENDBRANCH   1  23
TORSDOF 11
ENDMDL
MODEL 6
REMARK VINA RESULT:      -9.5      3.198      7.386
REMARK  Name = 18376177
REMARK  11 active torsions:
REMARK  status: ('A' for Active; 'I' for Inactive)
REMARK    1  A    between atoms: N_1  and  S_2
REMARK    2  A    between atoms: N_1  and  C_11
REMARK    3  A    between atoms: N_1  and  C_23
REMARK    4  A    between atoms: S_2  and  C_6
REMARK    5  A    between atoms: C_11  and  C_12
REMARK    6  A    between atoms: C_15  and  N_18
REMARK    7  A    between atoms: C_23  and  C_24
REMARK    8  A    between atoms: C_27  and  O_30
REMARK    9  A    between atoms: O_30  and  C_31
REMARK   10  A    between atoms: C_31  and  C_33
REMARK   11  A    between atoms: C_33  and  O_34
REMARK                            x       y       z     vdW  Elec       q    Type
REMARK                         _______ _______ _______ _____ _____    ______ ____
ROOT
ATOM      1  N   UNL     1      34.425 -23.822 -13.968  0.00  0.00    -0.147 NA
ENDROOT
BRANCH   1   2
ATOM      2  S   UNL     1      35.809 -23.411 -13.025  0.00  0.00    +0.065 S 
ATOM      3  O   UNL     1      35.496 -23.564 -11.616  0.00  0.00    -0.153 OA
ATOM      4  O   UNL     1      36.362 -22.157 -13.501  0.00  0.00    -0.153 OA
BRANCH   2   6
ATOM      5  N   UNL     1      37.589 -27.020 -13.341  0.00  0.00    -0.241 NA
ATOM      6  C   UNL     1      36.960 -24.688 -13.450  0.00  0.00    +0.141 C 
ATOM      7  C   UNL     1      38.100 -24.406 -14.193  0.00  0.00    +0.023 C 
ATOM      8  C   UNL     1      36.752 -25.999 -13.052  0.00  0.00    +0.119 C 
ATOM      9  C   UNL     1      38.986 -25.429 -14.512  0.00  0.00    +0.022 C 
ATOM     10  C   UNL     1      38.687 -26.708 -14.066  0.00  0.00    +0.099 C 
ENDBRANCH   2   6
ENDBRANCH   1   2
BRANCH   1  11
ATOM     11  C   UNL     1      33.246 -24.385 -13.262  0.00  0.00    +0.122 C 
BRANCH  11  12
ATOM     12  C   UNL     1      31.950 -23.972 -13.901  0.00  0.00    -0.004 C 
ATOM     13  C   UNL     1      31.053 -24.942 -14.347  0.00  0.00    -0.002 C 
ATOM     14  C   UNL     1      31.644 -22.619 -14.047  0.00  0.00    -0.002 C 
ATOM     15  C   UNL     1      29.544 -23.206 -15.088  0.00  0.00    +0.074 C 
ATOM     16  C   UNL     1      29.850 -24.559 -14.941  0.00  0.00    +0.016 C 
ATOM     17  C   UNL     1      30.442 -22.236 -14.641  0.00  0.00    +0.016 C 
BRANCH  15  18
ATOM     18  N   UNL     1      28.351 -22.827 -15.675  0.00  0.00    -0.189 N 
ATOM     19  N   UNL     1      28.217 -22.839 -17.013  0.00  0.00    -0.172 NA
ATOM     20  C   UNL     1      27.230 -22.423 -15.012  0.00  0.00    +0.091 C 
ATOM     21  C   UNL     1      26.298 -22.150 -15.983  0.00  0.00    +0.040 C 
ATOM     22  C   UNL     1      26.959 -22.423 -17.194  0.00  0.00    +0.120 C 
ENDBRANCH  15  18
ENDBRANCH  11  12
ENDBRANCH   1  11
BRANCH   1  23
ATOM     23  C   UNL     1      34.652 -24.480 -15.281  0.00  0.00    +0.123 C 
BRANCH  23  24
ATOM     24  C   UNL     1      34.438 -23.540 -16.433  0.00  0.00    -0.001 C 
ATOM     25  C   UNL     1      35.494 -22.760 -16.904  0.00  0.00    +0.034 C 
ATOM     26  C   UNL     1      33.181 -23.447 -17.033  0.00  0.00    -0.003 C 
ATOM     27  C   UNL     1      35.294 -21.887 -17.973  0.00  0.00    +0.139 C 
ATOM     28  C   UNL     1      32.981 -22.574 -18.102  0.00  0.00    +0.003 C 
ATOM     29  C   UNL     1      34.038 -21.794 -18.573  0.00  0.00    +0.037 C 
BRANCH  27  30
ATOM     30  O   UNL     1      36.324 -21.124 -18.431  0.00  0.00    -0.464 OA
BRANCH  30  31
ATOM     31  C   UNL     1      36.446 -20.977 -19.845  0.00  0.00    +0.314 C 
BRANCH  31  33
ATOM     32  O   UNL     1      35.320 -18.990 -20.673  0.00  0.00    -0.246 OA
ATOM     33  C   UNL     1      36.319 -19.527 -20.219  0.00  0.00    +0.359 C 
BRANCH  33  34
ATOM     34  O   UNL     1      37.486 -18.879 -19.980  0.00  0.00    -0.478 OA
ATOM     35  H   UNL     1      38.127 -19.259 -19.412  0.00  0.00    +0.295 HD
ENDBRANCH  33  34
ENDBRANCH  31  33
ENDBRANCH  30  31
ENDBRANCH  27  30
ENDBRANCH  23  24
ENDBRANCH   1  23
TORSDOF 11
ENDMDL
MODEL 7
REMARK VINA RESULT:      -8.9      2.496      5.010
REMARK  Name = 18376177
REMARK  11 active torsions:
REMARK  status: ('A' for Active; 'I' for Inactive)
REMARK    1  A    between atoms: N_1  and  S_2
REMARK    2  A    between atoms: N_1  and  C_11
REMARK    3  A    between atoms: N_1  and  C_23
REMARK    4  A    between atoms: S_2  and  C_6
REMARK    5  A    between atoms: C_11  and  C_12
REMARK    6  A    between atoms: C_15  and  N_18
REMARK    7  A    between atoms: C_23  and  C_24
REMARK    8  A    between atoms: C_27  and  O_30
REMARK    9  A    between atoms: O_30  and  C_31
REMARK   10  A    between atoms: C_31  and  C_33
REMARK   11  A    between atoms: C_33  and  O_34
REMARK                            x       y       z     vdW  Elec       q    Type
REMARK                         _______ _______ _______ _____ _____    ______ ____
ROOT
ATOM      1  N   UNL     1      34.457 -23.272 -16.745  0.00  0.00    -0.147 NA
ENDROOT
BRANCH   1   2
ATOM      2  S   UNL     1      35.943 -22.741 -16.052  0.00  0.00    +0.065 S 
ATOM      3  O   UNL     1      35.672 -21.745 -15.031  0.00  0.00    -0.153 OA
ATOM      4  O   UNL     1      36.889 -22.439 -17.110  0.00  0.00    -0.153 OA
BRANCH   2   6
ATOM      5  N   UNL     1      38.186 -25.241 -13.814  0.00  0.00    -0.241 NA
ATOM      6  C   UNL     1      36.526 -24.195 -15.226  0.00  0.00    +0.141 C 
ATOM      7  C   UNL     1      35.834 -25.396 -15.316  0.00  0.00    +0.023 C 
ATOM      8  C   UNL     1      37.687 -24.170 -14.469  0.00  0.00    +0.119 C 
ATOM      9  C   UNL     1      36.315 -26.521 -14.656  0.00  0.00    +0.022 C 
ATOM     10  C   UNL     1      37.486 -26.392 -13.924  0.00  0.00    +0.099 C 
ENDBRANCH   2   6
ENDBRANCH   1   2
BRANCH   1  11
ATOM     11  C   UNL     1      34.432 -23.552 -18.203  0.00  0.00    +0.122 C 
BRANCH  11  12
ATOM     12  C   UNL     1      34.532 -22.299 -19.026  0.00  0.00    -0.004 C 
ATOM     13  C   UNL     1      35.781 -21.828 -19.429  0.00  0.00    -0.002 C 
ATOM     14  C   UNL     1      33.376 -21.606 -19.385  0.00  0.00    -0.002 C 
ATOM     15  C   UNL     1      34.719 -19.970 -20.551  0.00  0.00    +0.074 C 
ATOM     16  C   UNL     1      35.874 -20.663 -20.192  0.00  0.00    +0.016 C 
ATOM     17  C   UNL     1      33.469 -20.441 -20.148  0.00  0.00    +0.016 C 
BRANCH  15  18
ATOM     18  N   UNL     1      34.812 -18.817 -21.308  0.00  0.00    -0.189 N 
ATOM     19  N   UNL     1      35.178 -17.656 -20.738  0.00  0.00    -0.172 NA
ATOM     20  C   UNL     1      34.563 -18.720 -22.645  0.00  0.00    +0.091 C 
ATOM     21  C   UNL     1      34.780 -17.404 -22.973  0.00  0.00    +0.040 C 
ATOM     22  C   UNL     1      35.156 -16.796 -21.761  0.00  0.00    +0.120 C 
ENDBRANCH  15  18
ENDBRANCH  11  12
ENDBRANCH   1  11
BRANCH   1  23
ATOM     23  C   UNL     1      33.204 -22.619 -16.284  0.00  0.00    +0.123 C 
BRANCH  23  24
ATOM     24  C   UNL     1      32.553 -23.370 -15.157  0.00  0.00    -0.001 C 
ATOM     25  C   UNL     1      33.291 -23.706 -14.022  0.00  0.00    +0.034 C 
ATOM     26  C   UNL     1      31.208 -23.733 -15.246  0.00  0.00    -0.003 C 
ATOM     27  C   UNL     1      32.687 -24.403 -12.977  0.00  0.00    +0.139 C 
ATOM     28  C   UNL     1      30.603 -24.430 -14.200  0.00  0.00    +0.003 C 
ATOM     29  C   UNL     1      31.343 -24.765 -13.065  0.00  0.00    +0.037 C 
BRANCH  27  30
ATOM     30  O   UNL     1      33.408 -24.732 -11.871  0.00  0.00    -0.464 OA
BRANCH  30  31
ATOM     31  C   UNL     1      34.830 -24.707 -11.990  0.00  0.00    +0.314 C 
BRANCH  31  33
ATOM     32  O   UNL     1      35.245 -25.104  -9.630  0.00  0.00    -0.246 OA
ATOM     33  C   UNL     1      35.449 -24.454 -10.644  0.00  0.00    +0.359 C 
BRANCH  33  34
ATOM     34  O   UNL     1      36.284 -23.387 -10.706  0.00  0.00    -0.478 OA
ATOM     35  H   UNL     1      36.834 -23.178  -9.977  0.00  0.00    +0.295 HD
ENDBRANCH  33  34
ENDBRANCH  31  33
ENDBRANCH  30  31
ENDBRANCH  27  30
ENDBRANCH  23  24
ENDBRANCH   1  23
TORSDOF 11
ENDMDL
MODEL 8
REMARK VINA RESULT:      -8.8      3.520      7.698
REMARK  Name = 18376177
REMARK  11 active torsions:
REMARK  status: ('A' for Active; 'I' for Inactive)
REMARK    1  A    between atoms: N_1  and  S_2
REMARK    2  A    between atoms: N_1  and  C_11
REMARK    3  A    between atoms: N_1  and  C_23
REMARK    4  A    between atoms: S_2  and  C_6
REMARK    5  A    between atoms: C_11  and  C_12
REMARK    6  A    between atoms: C_15  and  N_18
REMARK    7  A    between atoms: C_23  and  C_24
REMARK    8  A    between atoms: C_27  and  O_30
REMARK    9  A    between atoms: O_30  and  C_31
REMARK   10  A    between atoms: C_31  and  C_33
REMARK   11  A    between atoms: C_33  and  O_34
REMARK                            x       y       z     vdW  Elec       q    Type
REMARK                         _______ _______ _______ _____ _____    ______ ____
ROOT
ATOM      1  N   UNL     1      34.488 -23.129 -15.857  0.00  0.00    -0.147 NA
ENDROOT
BRANCH   1   2
ATOM      2  S   UNL     1      36.106 -22.804 -15.357  0.00  0.00    +0.065 S 
ATOM      3  O   UNL     1      36.123 -21.627 -14.509  0.00  0.00    -0.153 OA
ATOM      4  O   UNL     1      36.989 -22.868 -16.508  0.00  0.00    -0.153 OA
BRANCH   2   6
ATOM      5  N   UNL     1      37.056 -25.056 -12.145  0.00  0.00    -0.241 NA
ATOM      6  C   UNL     1      36.480 -24.198 -14.331  0.00  0.00    +0.141 C 
ATOM      7  C   UNL     1      36.499 -25.487 -14.851  0.00  0.00    +0.023 C 
ATOM      8  C   UNL     1      36.763 -24.038 -12.983  0.00  0.00    +0.119 C 
ATOM      9  C   UNL     1      36.796 -26.561 -14.020  0.00  0.00    +0.022 C 
ATOM     10  C   UNL     1      37.065 -26.295 -12.686  0.00  0.00    +0.099 C 
ENDBRANCH   2   6
ENDBRANCH   1   2
BRANCH   1  11
ATOM     11  C   UNL     1      33.579 -23.786 -14.884  0.00  0.00    +0.122 C 
BRANCH  11  12
ATOM     12  C   UNL     1      32.139 -23.423 -15.114  0.00  0.00    -0.004 C 
ATOM     13  C   UNL     1      31.425 -22.745 -14.127  0.00  0.00    -0.002 C 
ATOM     14  C   UNL     1      31.517 -23.765 -16.315  0.00  0.00    -0.002 C 
ATOM     15  C   UNL     1      29.465 -22.753 -15.540  0.00  0.00    +0.074 C 
ATOM     16  C   UNL     1      30.087 -22.410 -14.340  0.00  0.00    +0.016 C 
ATOM     17  C   UNL     1      30.180 -23.430 -16.528  0.00  0.00    +0.016 C 
BRANCH  15  18
ATOM     18  N   UNL     1      28.140 -22.419 -15.752  0.00  0.00    -0.189 N 
ATOM     19  N   UNL     1      27.714 -22.069 -16.978  0.00  0.00    -0.172 NA
ATOM     20  C   UNL     1      27.161 -22.407 -14.803  0.00  0.00    +0.091 C 
ATOM     21  C   UNL     1      26.014 -22.021 -15.453  0.00  0.00    +0.040 C 
ATOM     22  C   UNL     1      26.413 -21.827 -16.788  0.00  0.00    +0.120 C 
ENDBRANCH  15  18
ENDBRANCH  11  12
ENDBRANCH   1  11
BRANCH   1  23
ATOM     23  C   UNL     1      34.277 -23.630 -17.239  0.00  0.00    +0.123 C 
BRANCH  23  24
ATOM     24  C   UNL     1      34.227 -22.517 -18.247  0.00  0.00    -0.001 C 
ATOM     25  C   UNL     1      35.409 -22.017 -18.794  0.00  0.00    +0.034 C 
ATOM     26  C   UNL     1      32.998 -21.983 -18.637  0.00  0.00    -0.003 C 
ATOM     27  C   UNL     1      35.362 -20.984 -19.729  0.00  0.00    +0.139 C 
ATOM     28  C   UNL     1      32.952 -20.950 -19.573  0.00  0.00    +0.003 C 
ATOM     29  C   UNL     1      34.134 -20.450 -20.119  0.00  0.00    +0.037 C 
BRANCH  27  30
ATOM     30  O   UNL     1      36.516 -20.494 -20.261  0.00  0.00    -0.464 OA
BRANCH  30  31
ATOM     31  C   UNL     1      36.625 -19.076 -20.382  0.00  0.00    +0.314 C 
BRANCH  31  33
ATOM     32  O   UNL     1      35.987 -18.606 -22.678  0.00  0.00    -0.246 OA
ATOM     33  C   UNL     1      36.852 -18.704 -21.820  0.00  0.00    +0.359 C 
BRANCH  33  34
ATOM     34  O   UNL     1      38.171 -18.486 -22.045  0.00  0.00    -0.478 OA
ATOM     35  H   UNL     1      38.459 -18.164 -22.877  0.00  0.00    +0.295 HD
ENDBRANCH  33  34
ENDBRANCH  31  33
ENDBRANCH  30  31
ENDBRANCH  27  30
ENDBRANCH  23  24
ENDBRANCH   1  23
TORSDOF 11
ENDMDL
MODEL 9
REMARK VINA RESULT:      -8.7      3.479      6.725
REMARK  Name = 18376177
REMARK  11 active torsions:
REMARK  status: ('A' for Active; 'I' for Inactive)
REMARK    1  A    between atoms: N_1  and  S_2
REMARK    2  A    between atoms: N_1  and  C_11
REMARK    3  A    between atoms: N_1  and  C_23
REMARK    4  A    between atoms: S_2  and  C_6
REMARK    5  A    between atoms: C_11  and  C_12
REMARK    6  A    between atoms: C_15  and  N_18
REMARK    7  A    between atoms: C_23  and  C_24
REMARK    8  A    between atoms: C_27  and  O_30
REMARK    9  A    between atoms: O_30  and  C_31
REMARK   10  A    between atoms: C_31  and  C_33
REMARK   11  A    between atoms: C_33  and  O_34
REMARK                            x       y       z     vdW  Elec       q    Type
REMARK                         _______ _______ _______ _____ _____    ______ ____
ROOT
ATOM      1  N   UNL     1      31.892 -23.417 -15.556  0.00  0.00    -0.147 NA
ENDROOT
BRANCH   1   2
ATOM      2  S   UNL     1      30.693 -24.337 -14.725  0.00  0.00    +0.065 S 
ATOM      3  O   UNL     1      30.699 -23.979 -13.318  0.00  0.00    -0.153 OA
ATOM      4  O   UNL     1      30.804 -25.733 -15.107  0.00  0.00    -0.153 OA
BRANCH   2   6
ATOM      5  N   UNL     1      27.448 -23.918 -17.089  0.00  0.00    -0.241 NA
ATOM      6  C   UNL     1      29.184 -23.721 -15.417  0.00  0.00    +0.141 C 
ATOM      7  C   UNL     1      28.551 -22.607 -14.880  0.00  0.00    +0.023 C 
ATOM      8  C   UNL     1      28.597 -24.335 -16.512  0.00  0.00    +0.119 C 
ATOM      9  C   UNL     1      27.367 -22.147 -15.445  0.00  0.00    +0.022 C 
ATOM     10  C   UNL     1      26.861 -22.832 -16.539  0.00  0.00    +0.099 C 
ENDBRANCH   2   6
ENDBRANCH   1   2
BRANCH   1  11
ATOM     11  C   UNL     1      32.826 -22.598 -14.743  0.00  0.00    +0.122 C 
BRANCH  11  12
ATOM     12  C   UNL     1      34.194 -23.212 -14.656  0.00  0.00    -0.004 C 
ATOM     13  C   UNL     1      35.325 -22.429 -14.889  0.00  0.00    -0.002 C 
ATOM     14  C   UNL     1      34.334 -24.564 -14.344  0.00  0.00    -0.002 C 
ATOM     15  C   UNL     1      36.736 -24.352 -14.499  0.00  0.00    +0.074 C 
ATOM     16  C   UNL     1      36.596 -23.000 -14.810  0.00  0.00    +0.016 C 
ATOM     17  C   UNL     1      35.605 -25.134 -14.265  0.00  0.00    +0.016 C 
BRANCH  15  18
ATOM     18  N   UNL     1      37.996 -24.916 -14.419  0.00  0.00    -0.189 N 
ATOM     19  N   UNL     1      39.068 -24.255 -14.888  0.00  0.00    -0.172 NA
ATOM     20  C   UNL     1      38.290 -26.136 -13.884  0.00  0.00    +0.091 C 
ATOM     21  C   UNL     1      39.649 -26.284 -14.013  0.00  0.00    +0.040 C 
ATOM     22  C   UNL     1      40.076 -25.098 -14.637  0.00  0.00    +0.120 C 
ENDBRANCH  15  18
ENDBRANCH  11  12
ENDBRANCH   1  11
BRANCH   1  23
ATOM     23  C   UNL     1      31.489 -22.723 -16.806  0.00  0.00    +0.123 C 
BRANCH  23  24
ATOM     24  C   UNL     1      32.652 -22.493 -17.729  0.00  0.00    -0.001 C 
ATOM     25  C   UNL     1      32.638 -21.415 -18.615  0.00  0.00    +0.034 C 
ATOM     26  C   UNL     1      33.747 -23.357 -17.700  0.00  0.00    -0.003 C 
ATOM     27  C   UNL     1      33.717 -21.202 -19.471  0.00  0.00    +0.139 C 
ATOM     28  C   UNL     1      34.826 -23.144 -18.557  0.00  0.00    +0.003 C 
ATOM     29  C   UNL     1      34.812 -22.066 -19.443  0.00  0.00    +0.037 C 
BRANCH  27  30
ATOM     30  O   UNL     1      33.702 -20.152 -20.338  0.00  0.00    -0.464 OA
BRANCH  30  31
ATOM     31  C   UNL     1      34.905 -19.886 -21.057  0.00  0.00    +0.314 C 
BRANCH  31  33
ATOM     32  O   UNL     1      35.381 -17.564 -20.525  0.00  0.00    -0.246 OA
ATOM     33  C   UNL     1      35.020 -18.412 -21.328  0.00  0.00    +0.359 C 
BRANCH  33  34
ATOM     34  O   UNL     1      34.664 -18.142 -22.608  0.00  0.00    -0.478 OA
ATOM     35  H   UNL     1      33.987 -18.640 -23.022  0.00  0.00    +0.295 HD
ENDBRANCH  33  34
ENDBRANCH  31  33
ENDBRANCH  30  31
ENDBRANCH  27  30
ENDBRANCH  23  24
ENDBRANCH   1  23
TORSDOF 11
ENDMDL
