MODEL 1
REMARK VINA RESULT:     -12.5      0.000      0.000
REMARK  Name = 11581936
REMARK  5 active torsions:
REMARK  status: ('A' for Active; 'I' for Inactive)
REMARK    1  A    between atoms: C_1  and  C_9
REMARK    2  A    between atoms: C_4  and  O_19
REMARK    3  A    between atoms: C_10  and  C_14
REMARK    4  A    between atoms: O_19  and  C_20
REMARK    5  A    between atoms: C_20  and  C_22
REMARK                            x       y       z     vdW  Elec       q    Type
REMARK                         _______ _______ _______ _____ _____    ______ ____
ROOT
ATOM      1  C   UNL     1      33.568 -22.212 -17.900  0.00  0.00    +0.019 C 
ATOM      2  C   UNL     1      32.880 -21.465 -18.856  0.00  0.00    +0.005 C 
ATOM      3  C   UNL     1      34.953 -22.354 -17.990  0.00  0.00    +0.005 C 
ATOM      4  C   UNL     1      34.957 -21.005 -19.984  0.00  0.00    +0.139 C 
ATOM      5  C   UNL     1      33.577 -20.860 -19.902  0.00  0.00    +0.037 C 
ATOM      6  C   UNL     1      35.650 -21.748 -19.035  0.00  0.00    +0.037 C 
ENDROOT
BRANCH   1   9
ATOM      7  N   UNL     1      31.210 -23.520 -15.698  0.00  0.00    -0.208 N 
ATOM      8  N   UNL     1      31.512 -22.877 -16.839  0.00  0.00    -0.178 NA
ATOM      9  C   UNL     1      32.850 -22.835 -16.824  0.00  0.00    +0.100 C 
ATOM     10  C   UNL     1      33.393 -23.450 -15.676  0.00  0.00    +0.036 C 
ATOM     11  C   UNL     1      32.301 -23.885 -14.965  0.00  0.00    +0.086 C 
ATOM     12  C   UNL     1      29.829 -23.760 -15.356  0.00  0.00    +0.140 C 
BRANCH  10  14
ATOM     13  N   UNL     1      37.385 -24.004 -14.388  0.00  0.00    -0.242 NA
ATOM     14  C   UNL     1      34.744 -23.638 -15.241  0.00  0.00    +0.006 C 
ATOM     15  C   UNL     1      35.550 -22.538 -14.959  0.00  0.00    +0.021 C 
ATOM     16  C   UNL     1      35.262 -24.921 -15.095  0.00  0.00    +0.021 C 
ATOM     17  C   UNL     1      36.849 -22.772 -14.541  0.00  0.00    +0.099 C 
ATOM     18  C   UNL     1      36.575 -25.050 -14.671  0.00  0.00    +0.099 C 
ENDBRANCH  10  14
ENDBRANCH   1   9
BRANCH   4  19
ATOM     19  O   UNL     1      35.643 -20.409 -21.011  0.00  0.00    -0.468 OA
BRANCH  19  20
ATOM     20  C   UNL     1      35.882 -19.013 -20.896  0.00  0.00    +0.264 C 
BRANCH  20  22
ATOM     21  N   UNL     1      35.170 -16.958 -21.960  0.00  0.00    -0.406 NA
ATOM     22  C   UNL     1      35.245 -18.306 -22.046  0.00  0.00    +0.152 C 
ATOM     23  C   UNL     1      34.091 -16.947 -24.114  0.00  0.00    +0.026 C 
ATOM     24  C   UNL     1      34.602 -16.285 -22.979  0.00  0.00    +0.113 C 
ATOM     25  C   UNL     1      34.774 -19.040 -23.116  0.00  0.00    +0.031 C 
ATOM     26  C   UNL     1      34.189 -18.344 -24.164  0.00  0.00    +0.005 C 
ATOM     27  C   UNL     1      33.503 -16.214 -25.159  0.00  0.00    +0.002 C 
ATOM     28  C   UNL     1      34.505 -14.897 -22.930  0.00  0.00    +0.085 C 
ATOM     29  C   UNL     1      33.418 -14.826 -25.085  0.00  0.00    -0.004 C 
ATOM     30  C   UNL     1      33.920 -14.167 -23.969  0.00  0.00    -0.019 C 
ENDBRANCH  20  22
ENDBRANCH  19  20
ENDBRANCH   4  19
TORSDOF 5
ENDMDL
MODEL 2
REMARK VINA RESULT:     -12.4      0.940      1.053
REMARK  Name = 11581936
REMARK  5 active torsions:
REMARK  status: ('A' for Active; 'I' for Inactive)
REMARK    1  A    between atoms: C_1  and  C_9
REMARK    2  A    between atoms: C_4  and  O_19
REMARK    3  A    between atoms: C_10  and  C_14
REMARK    4  A    between atoms: O_19  and  C_20
REMARK    5  A    between atoms: C_20  and  C_22
REMARK                            x       y       z     vdW  Elec       q    Type
REMARK                         _______ _______ _______ _____ _____    ______ ____
ROOT
ATOM      1  C   UNL     1      33.819 -22.720 -17.004  0.00  0.00    +0.019 C 
ATOM      2  C   UNL     1      33.076 -22.378 -18.134  0.00  0.00    +0.005 C 
ATOM      3  C   UNL     1      35.196 -22.501 -16.982  0.00  0.00    +0.005 C 
ATOM      4  C   UNL     1      35.085 -21.602 -19.212  0.00  0.00    +0.139 C 
ATOM      5  C   UNL     1      33.712 -21.817 -19.242  0.00  0.00    +0.037 C 
ATOM      6  C   UNL     1      35.832 -21.940 -18.089  0.00  0.00    +0.037 C 
ENDROOT
BRANCH   1   9
ATOM      7  N   UNL     1      31.593 -23.880 -14.591  0.00  0.00    -0.208 N 
ATOM      8  N   UNL     1      31.830 -23.259 -15.759  0.00  0.00    -0.178 NA
ATOM      9  C   UNL     1      33.164 -23.297 -15.863  0.00  0.00    +0.100 C 
ATOM     10  C   UNL     1      33.770 -23.940 -14.763  0.00  0.00    +0.036 C 
ATOM     11  C   UNL     1      32.722 -24.308 -13.955  0.00  0.00    +0.086 C 
ATOM     12  C   UNL     1      30.236 -24.037 -14.126  0.00  0.00    +0.140 C 
BRANCH  10  14
ATOM     13  N   UNL     1      37.821 -24.730 -13.833  0.00  0.00    -0.242 NA
ATOM     14  C   UNL     1      35.141 -24.207 -14.449  0.00  0.00    +0.006 C 
ATOM     15  C   UNL     1      35.894 -23.272 -13.745  0.00  0.00    +0.021 C 
ATOM     16  C   UNL     1      35.731 -25.404 -14.844  0.00  0.00    +0.021 C 
ATOM     17  C   UNL     1      37.216 -23.578 -13.465  0.00  0.00    +0.099 C 
ATOM     18  C   UNL     1      37.060 -25.615 -14.515  0.00  0.00    +0.099 C 
ENDBRANCH  10  14
ENDBRANCH   1   9
BRANCH   4  19
ATOM     19  O   UNL     1      35.710 -21.050 -20.301  0.00  0.00    -0.468 OA
BRANCH  19  20
ATOM     20  C   UNL     1      35.991 -19.658 -20.240  0.00  0.00    +0.264 C 
BRANCH  20  22
ATOM     21  N   UNL     1      35.388 -17.638 -21.430  0.00  0.00    -0.406 NA
ATOM     22  C   UNL     1      35.439 -18.989 -21.455  0.00  0.00    +0.152 C 
ATOM     23  C   UNL     1      34.441 -17.699 -23.645  0.00  0.00    +0.026 C 
ATOM     24  C   UNL     1      34.897 -16.999 -22.509  0.00  0.00    +0.113 C 
ATOM     25  C   UNL     1      35.017 -19.759 -22.520  0.00  0.00    +0.031 C 
ATOM     26  C   UNL     1      34.511 -19.099 -23.630  0.00  0.00    +0.005 C 
ATOM     27  C   UNL     1      33.933 -17.000 -24.753  0.00  0.00    +0.002 C 
ATOM     28  C   UNL     1      34.827 -15.608 -22.525  0.00  0.00    +0.085 C 
ATOM     29  C   UNL     1      33.874 -15.609 -24.743  0.00  0.00    -0.004 C 
ATOM     30  C   UNL     1      34.322 -14.913 -23.627  0.00  0.00    -0.019 C 
ENDBRANCH  20  22
ENDBRANCH  19  20
ENDBRANCH   4  19
TORSDOF 5
ENDMDL
MODEL 3
REMARK VINA RESULT:     -11.7      1.669      3.964
REMARK  Name = 11581936
REMARK  5 active torsions:
REMARK  status: ('A' for Active; 'I' for Inactive)
REMARK    1  A    between atoms: C_1  and  C_9
REMARK    2  A    between atoms: C_4  and  O_19
REMARK    3  A    between atoms: C_10  and  C_14
REMARK    4  A    between atoms: O_19  and  C_20
REMARK    5  A    between atoms: C_20  and  C_22
REMARK                            x       y       z     vdW  Elec       q    Type
REMARK                         _______ _______ _______ _____ _____    ______ ____
ROOT
ATOM      1  C   UNL     1      34.046 -23.049 -16.105  0.00  0.00    +0.019 C 
ATOM      2  C   UNL     1      32.931 -22.945 -16.937  0.00  0.00    +0.005 C 
ATOM      3  C   UNL     1      35.290 -22.598 -16.545  0.00  0.00    +0.005 C 
ATOM      4  C   UNL     1      34.305 -21.941 -18.641  0.00  0.00    +0.139 C 
ATOM      5  C   UNL     1      33.062 -22.388 -18.209  0.00  0.00    +0.037 C 
ATOM      6  C   UNL     1      35.420 -22.041 -17.817  0.00  0.00    +0.037 C 
ENDROOT
BRANCH   1   9
ATOM      7  N   UNL     1      34.488 -24.391 -12.923  0.00  0.00    -0.208 N 
ATOM      8  N   UNL     1      34.998 -23.871 -14.052  0.00  0.00    -0.178 NA
ATOM      9  C   UNL     1      33.912 -23.622 -14.795  0.00  0.00    +0.100 C 
ATOM     10  C   UNL     1      32.718 -23.984 -14.136  0.00  0.00    +0.036 C 
ATOM     11  C   UNL     1      33.127 -24.479 -12.922  0.00  0.00    +0.086 C 
ATOM     12  C   UNL     1      35.373 -24.794 -11.857  0.00  0.00    +0.140 C 
BRANCH  10  14
ATOM     13  N   UNL     1      28.660 -23.747 -15.311  0.00  0.00    -0.242 NA
ATOM     14  C   UNL     1      31.345 -23.903 -14.535  0.00  0.00    +0.006 C 
ATOM     15  C   UNL     1      30.674 -25.041 -14.975  0.00  0.00    +0.021 C 
ATOM     16  C   UNL     1      30.669 -22.687 -14.484  0.00  0.00    +0.021 C 
ATOM     17  C   UNL     1      29.346 -24.911 -15.348  0.00  0.00    +0.099 C 
ATOM     18  C   UNL     1      29.342 -22.662 -14.879  0.00  0.00    +0.099 C 
ENDBRANCH  10  14
ENDBRANCH   1   9
BRANCH   4  19
ATOM     19  O   UNL     1      34.433 -21.393 -19.891  0.00  0.00    -0.468 OA
BRANCH  19  20
ATOM     20  C   UNL     1      35.678 -20.779 -20.197  0.00  0.00    +0.264 C 
BRANCH  20  22
ATOM     21  N   UNL     1      34.774 -19.757 -22.197  0.00  0.00    -0.406 NA
ATOM     22  C   UNL     1      35.439 -19.567 -21.034  0.00  0.00    +0.152 C 
ATOM     23  C   UNL     1      34.967 -17.392 -22.616  0.00  0.00    +0.026 C 
ATOM     24  C   UNL     1      34.540 -18.686 -22.979  0.00  0.00    +0.113 C 
ATOM     25  C   UNL     1      35.895 -18.340 -20.596  0.00  0.00    +0.031 C 
ATOM     26  C   UNL     1      35.652 -17.238 -21.404  0.00  0.00    +0.005 C 
ATOM     27  C   UNL     1      34.706 -16.297 -23.458  0.00  0.00    +0.002 C 
ATOM     28  C   UNL     1      33.859 -18.838 -24.184  0.00  0.00    +0.085 C 
ATOM     29  C   UNL     1      34.023 -16.477 -24.658  0.00  0.00    -0.004 C 
ATOM     30  C   UNL     1      33.599 -17.749 -25.021  0.00  0.00    -0.019 C 
ENDBRANCH  20  22
ENDBRANCH  19  20
ENDBRANCH   4  19
TORSDOF 5
ENDMDL
MODEL 4
REMARK VINA RESULT:     -11.7      1.097      3.241
REMARK  Name = 11581936
REMARK  5 active torsions:
REMARK  status: ('A' for Active; 'I' for Inactive)
REMARK    1  A    between atoms: C_1  and  C_9
REMARK    2  A    between atoms: C_4  and  O_19
REMARK    3  A    between atoms: C_10  and  C_14
REMARK    4  A    between atoms: O_19  and  C_20
REMARK    5  A    between atoms: C_20  and  C_22
REMARK                            x       y       z     vdW  Elec       q    Type
REMARK                         _______ _______ _______ _____ _____    ______ ____
ROOT
ATOM      1  C   UNL     1      34.830 -22.732 -17.073  0.00  0.00    +0.019 C 
ATOM      2  C   UNL     1      33.634 -22.713 -17.791  0.00  0.00    +0.005 C 
ATOM      3  C   UNL     1      35.945 -22.047 -17.556  0.00  0.00    +0.005 C 
ATOM      4  C   UNL     1      34.669 -21.327 -19.466  0.00  0.00    +0.139 C 
ATOM      5  C   UNL     1      33.554 -22.008 -18.991  0.00  0.00    +0.037 C 
ATOM      6  C   UNL     1      35.865 -21.341 -18.756  0.00  0.00    +0.037 C 
ENDROOT
BRANCH   1   9
ATOM      7  N   UNL     1      35.773 -24.560 -14.264  0.00  0.00    -0.208 N 
ATOM      8  N   UNL     1      36.083 -23.967 -15.429  0.00  0.00    -0.178 NA
ATOM      9  C   UNL     1      34.913 -23.458 -15.837  0.00  0.00    +0.100 C 
ATOM     10  C   UNL     1      33.866 -23.730 -14.931  0.00  0.00    +0.036 C 
ATOM     11  C   UNL     1      34.459 -24.446 -13.920  0.00  0.00    +0.086 C 
ATOM     12  C   UNL     1      36.801 -25.235 -13.509  0.00  0.00    +0.140 C 
BRANCH  10  14
ATOM     13  N   UNL     1      29.755 -22.736 -14.988  0.00  0.00    -0.242 NA
ATOM     14  C   UNL     1      32.475 -23.392 -14.950  0.00  0.00    +0.006 C 
ATOM     15  C   UNL     1      31.742 -23.506 -16.128  0.00  0.00    +0.021 C 
ATOM     16  C   UNL     1      31.844 -22.950 -13.791  0.00  0.00    +0.021 C 
ATOM     17  C   UNL     1      30.399 -23.168 -16.094  0.00  0.00    +0.099 C 
ATOM     18  C   UNL     1      30.496 -22.637 -13.861  0.00  0.00    +0.099 C 
ENDBRANCH  10  14
ENDBRANCH   1   9
BRANCH   4  19
ATOM     19  O   UNL     1      34.590 -20.633 -20.646  0.00  0.00    -0.468 OA
BRANCH  19  20
ATOM     20  C   UNL     1      35.491 -19.546 -20.811  0.00  0.00    +0.264 C 
BRANCH  20  22
ATOM     21  N   UNL     1      35.051 -17.352 -21.735  0.00  0.00    -0.406 NA
ATOM     22  C   UNL     1      35.029 -18.689 -21.942  0.00  0.00    +0.152 C 
ATOM     23  C   UNL     1      34.196 -17.060 -23.969  0.00  0.00    +0.026 C 
ATOM     24  C   UNL     1      34.641 -16.547 -22.734  0.00  0.00    +0.113 C 
ATOM     25  C   UNL     1      34.610 -19.283 -23.116  0.00  0.00    +0.031 C 
ATOM     26  C   UNL     1      34.188 -18.450 -24.142  0.00  0.00    +0.005 C 
ATOM     27  C   UNL     1      33.774 -16.190 -24.989  0.00  0.00    +0.002 C 
ATOM     28  C   UNL     1      34.649 -15.165 -22.563  0.00  0.00    +0.085 C 
ATOM     29  C   UNL     1      33.791 -14.812 -24.791  0.00  0.00    -0.004 C 
ATOM     30  C   UNL     1      34.229 -14.299 -23.577  0.00  0.00    -0.019 C 
ENDBRANCH  20  22
ENDBRANCH  19  20
ENDBRANCH   4  19
TORSDOF 5
ENDMDL
MODEL 5
REMARK VINA RESULT:     -11.1      8.298     15.224
REMARK  Name = 11581936
REMARK  5 active torsions:
REMARK  status: ('A' for Active; 'I' for Inactive)
REMARK    1  A    between atoms: C_1  and  C_9
REMARK    2  A    between atoms: C_4  and  O_19
REMARK    3  A    between atoms: C_10  and  C_14
REMARK    4  A    between atoms: O_19  and  C_20
REMARK    5  A    between atoms: C_20  and  C_22
REMARK                            x       y       z     vdW  Elec       q    Type
REMARK                         _______ _______ _______ _____ _____    ______ ____
ROOT
ATOM      1  C   UNL     1      31.397  -6.515 -21.911  0.00  0.00    +0.019 C 
ATOM      2  C   UNL     1      31.971  -6.774 -20.667  0.00  0.00    +0.005 C 
ATOM      3  C   UNL     1      30.991  -7.572 -22.726  0.00  0.00    +0.005 C 
ATOM      4  C   UNL     1      31.729  -9.139 -21.054  0.00  0.00    +0.139 C 
ATOM      5  C   UNL     1      32.137  -8.091 -20.237  0.00  0.00    +0.037 C 
ATOM      6  C   UNL     1      31.157  -8.888 -22.296  0.00  0.00    +0.037 C 
ENDROOT
BRANCH   1   9
ATOM      7  N   UNL     1      30.440  -3.210 -22.440  0.00  0.00    -0.208 N 
ATOM      8  N   UNL     1      30.311  -4.371 -21.776  0.00  0.00    -0.178 NA
ATOM      9  C   UNL     1      31.226  -5.160 -22.354  0.00  0.00    +0.100 C 
ATOM     10  C   UNL     1      31.931  -4.499 -23.381  0.00  0.00    +0.036 C 
ATOM     11  C   UNL     1      31.397  -3.234 -23.411  0.00  0.00    +0.086 C 
ATOM     12  C   UNL     1      29.601  -2.089 -22.091  0.00  0.00    +0.140 C 
BRANCH  10  14
ATOM     13  N   UNL     1      35.021  -5.789 -25.968  0.00  0.00    -0.242 NA
ATOM     14  C   UNL     1      32.976  -4.936 -24.257  0.00  0.00    +0.006 C 
ATOM     15  C   UNL     1      33.059  -4.438 -25.554  0.00  0.00    +0.021 C 
ATOM     16  C   UNL     1      33.919  -5.861 -23.817  0.00  0.00    +0.021 C 
ATOM     17  C   UNL     1      34.089  -4.892 -26.362  0.00  0.00    +0.099 C 
ATOM     18  C   UNL     1      34.911  -6.252 -24.702  0.00  0.00    +0.099 C 
ENDBRANCH  10  14
ENDBRANCH   1   9
BRANCH   4  19
ATOM     19  O   UNL     1      31.893 -10.433 -20.631  0.00  0.00    -0.468 OA
BRANCH  19  20
ATOM     20  C   UNL     1      31.241 -11.442 -21.392  0.00  0.00    +0.264 C 
BRANCH  20  22
ATOM     21  N   UNL     1      32.348 -12.983 -22.896  0.00  0.00    -0.406 NA
ATOM     22  C   UNL     1      32.183 -12.578 -21.615  0.00  0.00    +0.152 C 
ATOM     23  C   UNL     1      33.892 -14.653 -22.097  0.00  0.00    +0.026 C 
ATOM     24  C   UNL     1      33.191 -14.006 -23.136  0.00  0.00    +0.113 C 
ATOM     25  C   UNL     1      32.825 -13.148 -20.535  0.00  0.00    +0.031 C 
ATOM     26  C   UNL     1      33.692 -14.202 -20.785  0.00  0.00    +0.005 C 
ATOM     27  C   UNL     1      34.762 -15.718 -22.384  0.00  0.00    +0.002 C 
ATOM     28  C   UNL     1      33.390 -14.454 -24.439  0.00  0.00    +0.085 C 
ATOM     29  C   UNL     1      34.943 -16.147 -23.696  0.00  0.00    -0.004 C 
ATOM     30  C   UNL     1      34.256 -15.514 -24.725  0.00  0.00    -0.019 C 
ENDBRANCH  20  22
ENDBRANCH  19  20
ENDBRANCH   4  19
TORSDOF 5
ENDMDL
MODEL 6
REMARK VINA RESULT:     -10.9      1.681      4.005
REMARK  Name = 11581936
REMARK  5 active torsions:
REMARK  status: ('A' for Active; 'I' for Inactive)
REMARK    1  A    between atoms: C_1  and  C_9
REMARK    2  A    between atoms: C_4  and  O_19
REMARK    3  A    between atoms: C_10  and  C_14
REMARK    4  A    between atoms: O_19  and  C_20
REMARK    5  A    between atoms: C_20  and  C_22
REMARK                            x       y       z     vdW  Elec       q    Type
REMARK                         _______ _______ _______ _____ _____    ______ ____
ROOT
ATOM      1  C   UNL     1      35.524 -22.892 -15.275  0.00  0.00    +0.019 C 
ATOM      2  C   UNL     1      34.569 -23.077 -16.275  0.00  0.00    +0.005 C 
ATOM      3  C   UNL     1      36.673 -22.147 -15.537  0.00  0.00    +0.005 C 
ATOM      4  C   UNL     1      35.912 -21.774 -17.790  0.00  0.00    +0.139 C 
ATOM      5  C   UNL     1      34.765 -22.516 -17.537  0.00  0.00    +0.037 C 
ATOM      6  C   UNL     1      36.868 -21.585 -16.798  0.00  0.00    +0.037 C 
ENDROOT
BRANCH   1   9
ATOM      7  N   UNL     1      35.798 -24.211 -12.065  0.00  0.00    -0.208 N 
ATOM      8  N   UNL     1      36.363 -23.669 -13.157  0.00  0.00    -0.178 NA
ATOM      9  C   UNL     1      35.323 -23.470 -13.976  0.00  0.00    +0.100 C 
ATOM     10  C   UNL     1      34.102 -23.886 -13.403  0.00  0.00    +0.036 C 
ATOM     11  C   UNL     1      34.446 -24.362 -12.161  0.00  0.00    +0.086 C 
ATOM     12  C   UNL     1      36.622 -24.572 -10.937  0.00  0.00    +0.140 C 
BRANCH  10  14
ATOM     13  N   UNL     1      30.135 -23.834 -14.871  0.00  0.00    -0.242 NA
ATOM     14  C   UNL     1      32.760 -23.869 -13.899  0.00  0.00    +0.006 C 
ATOM     15  C   UNL     1      32.186 -22.675 -14.328  0.00  0.00    +0.021 C 
ATOM     16  C   UNL     1      32.017 -25.045 -13.957  0.00  0.00    +0.021 C 
ATOM     17  C   UNL     1      30.884 -22.711 -14.801  0.00  0.00    +0.099 C 
ATOM     18  C   UNL     1      30.723 -24.976 -14.445  0.00  0.00    +0.099 C 
ENDBRANCH  10  14
ENDBRANCH   1   9
BRANCH   4  19
ATOM     19  O   UNL     1      36.104 -21.222 -19.030  0.00  0.00    -0.468 OA
BRANCH  19  20
ATOM     20  C   UNL     1      34.968 -21.153 -19.883  0.00  0.00    +0.264 C 
BRANCH  20  22
ATOM     21  N   UNL     1      34.393 -19.981 -21.922  0.00  0.00    -0.406 NA
ATOM     22  C   UNL     1      35.078 -19.947 -20.756  0.00  0.00    +0.152 C 
ATOM     23  C   UNL     1      35.236 -17.775 -22.403  0.00  0.00    +0.026 C 
ATOM     24  C   UNL     1      34.469 -18.910 -22.736  0.00  0.00    +0.113 C 
ATOM     25  C   UNL     1      35.854 -18.881 -20.346  0.00  0.00    +0.031 C 
ATOM     26  C   UNL     1      35.930 -17.780 -21.186  0.00  0.00    +0.005 C 
ATOM     27  C   UNL     1      35.292 -16.676 -23.277  0.00  0.00    +0.002 C 
ATOM     28  C   UNL     1      33.778 -18.904 -23.945  0.00  0.00    +0.085 C 
ATOM     29  C   UNL     1      34.592 -16.695 -24.481  0.00  0.00    -0.004 C 
ATOM     30  C   UNL     1      33.835 -17.811 -24.815  0.00  0.00    -0.019 C 
ENDBRANCH  20  22
ENDBRANCH  19  20
ENDBRANCH   4  19
TORSDOF 5
ENDMDL
MODEL 7
REMARK VINA RESULT:     -10.7      3.373     10.922
REMARK  Name = 11581936
REMARK  5 active torsions:
REMARK  status: ('A' for Active; 'I' for Inactive)
REMARK    1  A    between atoms: C_1  and  C_9
REMARK    2  A    between atoms: C_4  and  O_19
REMARK    3  A    between atoms: C_10  and  C_14
REMARK    4  A    between atoms: O_19  and  C_20
REMARK    5  A    between atoms: C_20  and  C_22
REMARK                            x       y       z     vdW  Elec       q    Type
REMARK                         _______ _______ _______ _____ _____    ______ ____
ROOT
ATOM      1  C   UNL     1      33.379 -13.782 -22.523  0.00  0.00    +0.019 C 
ATOM      2  C   UNL     1      33.211 -14.333 -23.793  0.00  0.00    +0.005 C 
ATOM      3  C   UNL     1      34.168 -14.436 -21.577  0.00  0.00    +0.005 C 
ATOM      4  C   UNL     1      34.616 -16.186 -23.168  0.00  0.00    +0.139 C 
ATOM      5  C   UNL     1      33.832 -15.540 -24.116  0.00  0.00    +0.037 C 
ATOM      6  C   UNL     1      34.789 -15.642 -21.900  0.00  0.00    +0.037 C 
ENDROOT
BRANCH   1   9
ATOM      7  N   UNL     1      31.428 -11.206 -21.227  0.00  0.00    -0.208 N 
ATOM      8  N   UNL     1      31.774 -12.504 -21.263  0.00  0.00    -0.178 NA
ATOM      9  C   UNL     1      32.740 -12.540 -22.190  0.00  0.00    +0.100 C 
ATOM     10  C   UNL     1      33.004 -11.267 -22.739  0.00  0.00    +0.036 C 
ATOM     11  C   UNL     1      32.136 -10.423 -22.091  0.00  0.00    +0.086 C 
ATOM     12  C   UNL     1      30.391 -10.766 -20.325  0.00  0.00    +0.140 C 
BRANCH  10  14
ATOM     13  N   UNL     1      35.747  -9.981 -25.692  0.00  0.00    -0.242 NA
ATOM     14  C   UNL     1      33.931 -10.831 -23.739  0.00  0.00    +0.006 C 
ATOM     15  C   UNL     1      34.636  -9.642 -23.572  0.00  0.00    +0.021 C 
ATOM     16  C   UNL     1      34.138 -11.594 -24.885  0.00  0.00    +0.021 C 
ATOM     17  C   UNL     1      35.522  -9.265 -24.568  0.00  0.00    +0.099 C 
ATOM     18  C   UNL     1      35.046 -11.130 -25.822  0.00  0.00    +0.099 C 
ENDBRANCH  10  14
ENDBRANCH   1   9
BRANCH   4  19
ATOM     19  O   UNL     1      35.227 -17.372 -23.486  0.00  0.00    -0.468 OA
BRANCH  19  20
ATOM     20  C   UNL     1      34.476 -18.559 -23.263  0.00  0.00    +0.264 C 
BRANCH  20  22
ATOM     21  N   UNL     1      34.129 -20.020 -21.364  0.00  0.00    -0.406 NA
ATOM     22  C   UNL     1      35.008 -19.260 -22.058  0.00  0.00    +0.152 C 
ATOM     23  C   UNL     1      35.913 -20.571 -19.840  0.00  0.00    +0.026 C 
ATOM     24  C   UNL     1      34.574 -20.668 -20.270  0.00  0.00    +0.113 C 
ATOM     25  C   UNL     1      36.336 -19.105 -21.714  0.00  0.00    +0.031 C 
ATOM     26  C   UNL     1      36.790 -19.774 -20.586  0.00  0.00    +0.005 C 
ATOM     27  C   UNL     1      36.341 -21.261 -18.693  0.00  0.00    +0.002 C 
ATOM     28  C   UNL     1      33.702 -21.462 -19.528  0.00  0.00    +0.085 C 
ATOM     29  C   UNL     1      35.449 -22.047 -17.968  0.00  0.00    -0.004 C 
ATOM     30  C   UNL     1      34.128 -22.147 -18.387  0.00  0.00    -0.019 C 
ENDBRANCH  20  22
ENDBRANCH  19  20
ENDBRANCH   4  19
TORSDOF 5
ENDMDL
MODEL 8
REMARK VINA RESULT:     -10.5      6.782     14.259
REMARK  Name = 11581936
REMARK  5 active torsions:
REMARK  status: ('A' for Active; 'I' for Inactive)
REMARK    1  A    between atoms: C_1  and  C_9
REMARK    2  A    between atoms: C_4  and  O_19
REMARK    3  A    between atoms: C_10  and  C_14
REMARK    4  A    between atoms: O_19  and  C_20
REMARK    5  A    between atoms: C_20  and  C_22
REMARK                            x       y       z     vdW  Elec       q    Type
REMARK                         _______ _______ _______ _____ _____    ______ ____
ROOT
ATOM      1  C   UNL     1      32.782  -8.383 -22.976  0.00  0.00    +0.019 C 
ATOM      2  C   UNL     1      32.031  -9.510 -22.643  0.00  0.00    +0.005 C 
ATOM      3  C   UNL     1      34.040  -8.530 -23.560  0.00  0.00    +0.005 C 
ATOM      4  C   UNL     1      33.793 -10.924 -23.478  0.00  0.00    +0.139 C 
ATOM      5  C   UNL     1      32.539 -10.785 -22.895  0.00  0.00    +0.037 C 
ATOM      6  C   UNL     1      34.547  -9.805 -23.812  0.00  0.00    +0.037 C 
ENDROOT
BRANCH   1   9
ATOM      7  N   UNL     1      31.112  -5.562 -21.803  0.00  0.00    -0.208 N 
ATOM      8  N   UNL     1      31.356  -6.883 -21.746  0.00  0.00    -0.178 NA
ATOM      9  C   UNL     1      32.260  -7.071 -22.716  0.00  0.00    +0.100 C 
ATOM     10  C   UNL     1      32.585  -5.872 -23.385  0.00  0.00    +0.036 C 
ATOM     11  C   UNL     1      31.823  -4.911 -22.767  0.00  0.00    +0.086 C 
ATOM     12  C   UNL     1      30.167  -4.969 -20.888  0.00  0.00    +0.140 C 
BRANCH  10  14
ATOM     13  N   UNL     1      35.234  -5.056 -26.582  0.00  0.00    -0.242 NA
ATOM     14  C   UNL     1      33.482  -5.595 -24.467  0.00  0.00    +0.006 C 
ATOM     15  C   UNL     1      34.840  -5.871 -24.341  0.00  0.00    +0.021 C 
ATOM     16  C   UNL     1      33.001  -5.049 -25.654  0.00  0.00    +0.021 C 
ATOM     17  C   UNL     1      35.666  -5.586 -25.416  0.00  0.00    +0.099 C 
ATOM     18  C   UNL     1      33.909  -4.800 -26.671  0.00  0.00    +0.099 C 
ENDBRANCH  10  14
ENDBRANCH   1   9
BRANCH   4  19
ATOM     19  O   UNL     1      34.291 -12.177 -23.726  0.00  0.00    -0.468 OA
BRANCH  19  20
ATOM     20  C   UNL     1      34.240 -13.110 -22.654  0.00  0.00    +0.264 C 
BRANCH  20  22
ATOM     21  N   UNL     1      34.724 -15.474 -22.461  0.00  0.00    -0.406 NA
ATOM     22  C   UNL     1      34.165 -14.494 -23.208  0.00  0.00    +0.152 C 
ATOM     23  C   UNL     1      34.067 -17.051 -24.161  0.00  0.00    +0.026 C 
ATOM     24  C   UNL     1      34.676 -16.736 -22.929  0.00  0.00    +0.113 C 
ATOM     25  C   UNL     1      33.547 -14.705 -24.424  0.00  0.00    +0.031 C 
ATOM     26  C   UNL     1      33.500 -16.006 -24.903  0.00  0.00    +0.005 C 
ATOM     27  C   UNL     1      34.036 -18.379 -24.618  0.00  0.00    +0.002 C 
ATOM     28  C   UNL     1      35.239 -17.775 -22.191  0.00  0.00    +0.085 C 
ATOM     29  C   UNL     1      34.607 -19.399 -23.861  0.00  0.00    -0.004 C 
ATOM     30  C   UNL     1      35.209 -19.096 -22.647  0.00  0.00    -0.019 C 
ENDBRANCH  20  22
ENDBRANCH  19  20
ENDBRANCH   4  19
TORSDOF 5
ENDMDL
MODEL 9
REMARK VINA RESULT:     -10.5      2.293     10.071
REMARK  Name = 11581936
REMARK  5 active torsions:
REMARK  status: ('A' for Active; 'I' for Inactive)
REMARK    1  A    between atoms: C_1  and  C_9
REMARK    2  A    between atoms: C_4  and  O_19
REMARK    3  A    between atoms: C_10  and  C_14
REMARK    4  A    between atoms: O_19  and  C_20
REMARK    5  A    between atoms: C_20  and  C_22
REMARK                            x       y       z     vdW  Elec       q    Type
REMARK                         _______ _______ _______ _____ _____    ______ ____
ROOT
ATOM      1  C   UNL     1      34.364 -16.636 -23.801  0.00  0.00    +0.019 C 
ATOM      2  C   UNL     1      33.801 -17.844 -24.210  0.00  0.00    +0.005 C 
ATOM      3  C   UNL     1      35.279 -16.613 -22.749  0.00  0.00    +0.005 C 
ATOM      4  C   UNL     1      35.066 -19.000 -22.518  0.00  0.00    +0.139 C 
ATOM      5  C   UNL     1      34.153 -19.031 -23.566  0.00  0.00    +0.037 C 
ATOM      6  C   UNL     1      35.632 -17.800 -22.105  0.00  0.00    +0.037 C 
ENDROOT
BRANCH   1   9
ATOM      7  N   UNL     1      33.710 -14.050 -26.039  0.00  0.00    -0.208 N 
ATOM      8  N   UNL     1      34.137 -15.300 -25.791  0.00  0.00    -0.178 NA
ATOM      9  C   UNL     1      34.001 -15.415 -24.464  0.00  0.00    +0.100 C 
ATOM     10  C   UNL     1      33.489 -14.240 -23.874  0.00  0.00    +0.036 C 
ATOM     11  C   UNL     1      33.309 -13.373 -24.924  0.00  0.00    +0.086 C 
ATOM     12  C   UNL     1      33.707 -13.550 -27.392  0.00  0.00    +0.140 C 
BRANCH  10  14
ATOM     13  N   UNL     1      32.589 -13.260 -19.858  0.00  0.00    -0.242 NA
ATOM     14  C   UNL     1      33.185 -13.907 -22.515  0.00  0.00    +0.006 C 
ATOM     15  C   UNL     1      32.124 -13.055 -22.221  0.00  0.00    +0.021 C 
ATOM     16  C   UNL     1      33.947 -14.435 -21.476  0.00  0.00    +0.021 C 
ATOM     17  C   UNL     1      31.871 -12.765 -20.890  0.00  0.00    +0.099 C 
ATOM     18  C   UNL     1      33.612 -14.084 -20.179  0.00  0.00    +0.099 C 
ENDBRANCH  10  14
ENDBRANCH   1   9
BRANCH   4  19
ATOM     19  O   UNL     1      35.412 -20.166 -21.886  0.00  0.00    -0.468 OA
BRANCH  19  20
ATOM     20  C   UNL     1      36.105 -20.043 -20.650  0.00  0.00    +0.264 C 
BRANCH  20  22
ATOM     21  N   UNL     1      36.181 -21.262 -18.560  0.00  0.00    -0.406 NA
ATOM     22  C   UNL     1      35.428 -20.883 -19.619  0.00  0.00    +0.152 C 
ATOM     23  C   UNL     1      34.255 -22.424 -17.694  0.00  0.00    +0.026 C 
ATOM     24  C   UNL     1      35.604 -22.021 -17.609  0.00  0.00    +0.113 C 
ATOM     25  C   UNL     1      34.103 -21.228 -19.789  0.00  0.00    +0.031 C 
ATOM     26  C   UNL     1      33.512 -22.011 -18.807  0.00  0.00    +0.005 C 
ATOM     27  C   UNL     1      33.687 -23.218 -16.683  0.00  0.00    +0.002 C 
ATOM     28  C   UNL     1      36.343 -22.432 -16.502  0.00  0.00    +0.085 C 
ATOM     29  C   UNL     1      34.448 -23.616 -15.587  0.00  0.00    -0.004 C 
ATOM     30  C   UNL     1      35.777 -23.222 -15.497  0.00  0.00    -0.019 C 
ENDBRANCH  20  22
ENDBRANCH  19  20
ENDBRANCH   4  19
TORSDOF 5
ENDMDL
