MODEL 1
REMARK VINA RESULT:     -11.4      0.000      0.000
REMARK  Name = 9909438
REMARK  10 active torsions:
REMARK  status: ('A' for Active; 'I' for Inactive)
REMARK    1  A    between atoms: C_1  and  C_2
REMARK    2  A    between atoms: C_1  and  C_18
REMARK    3  A    between atoms: C_2  and  C_7
REMARK    4  A    between atoms: N_4  and  C_10
REMARK    5  A    between atoms: C_10  and  C_11
REMARK    6  A    between atoms: C_18  and  C_19
REMARK    7  A    between atoms: C_22  and  O_25
REMARK    8  A    between atoms: O_25  and  C_26
REMARK    9  A    between atoms: C_26  and  C_30
REMARK   10  A    between atoms: C_30  and  O_31
REMARK                            x       y       z     vdW  Elec       q    Type
REMARK                         _______ _______ _______ _____ _____    ______ ____
ROOT
ATOM      1  C   UNL     1      34.828 -21.939 -18.950  0.00  0.00    +0.014 C 
ENDROOT
BRANCH   1   2
ATOM      2  C   UNL     1      33.970 -20.915 -19.688  0.00  0.00    +0.078 C 
BRANCH   2   7
ATOM      3  O   UNL     1      37.562 -18.500 -21.575  0.00  0.00    -0.191 OA
ATOM      4  N   UNL     1      35.380 -18.874 -22.291  0.00  0.00    -0.151 N 
ATOM      5  N   UNL     1      34.330 -19.556 -21.758  0.00  0.00    -0.229 N 
ATOM      6  N   UNL     1      36.055 -19.769 -20.334  0.00  0.00    -0.308 NA
ATOM      7  C   UNL     1      34.802 -20.065 -20.586  0.00  0.00    +0.187 C 
ATOM      8  C   UNL     1      36.450 -18.991 -21.422  0.00  0.00    +0.286 C 
ATOM      9  H   UNL     1      33.427 -19.659 -22.137  0.00  0.00    +0.173 HD
BRANCH   4  10
ATOM     10  C   UNL     1      35.253 -18.183 -23.544  0.00  0.00    +0.152 C 
BRANCH  10  11
ATOM     11  C   UNL     1      34.744 -16.782 -23.365  0.00  0.00    +0.000 C 
ATOM     12  C   UNL     1      34.135 -16.132 -24.431  0.00  0.00    -0.003 C 
ATOM     13  C   UNL     1      34.889 -16.150 -22.135  0.00  0.00    -0.003 C 
ATOM     14  C   UNL     1      33.802 -14.189 -23.034  0.00  0.00    -0.022 C 
ATOM     15  C   UNL     1      33.661 -14.829 -24.264  0.00  0.00    -0.005 C 
ATOM     16  C   UNL     1      34.415 -14.849 -21.969  0.00  0.00    -0.005 C 
ATOM     17  C   UNL     1      33.296 -12.797 -22.857  0.00  0.00    +0.031 C 
ENDBRANCH  10  11
ENDBRANCH   4  10
ENDBRANCH   2   7
ENDBRANCH   1   2
BRANCH   1  18
ATOM     18  C   UNL     1      34.198 -22.385 -17.626  0.00  0.00    +0.027 C 
BRANCH  18  19
ATOM     19  C   UNL     1      35.246 -22.778 -16.617  0.00  0.00    -0.022 C 
ATOM     20  C   UNL     1      36.557 -22.364 -16.801  0.00  0.00    -0.001 C 
ATOM     21  C   UNL     1      34.883 -23.545 -15.521  0.00  0.00    -0.001 C 
ATOM     22  C   UNL     1      37.175 -23.498 -14.759  0.00  0.00    +0.139 C 
ATOM     23  C   UNL     1      37.528 -22.726 -15.867  0.00  0.00    +0.037 C 
ATOM     24  C   UNL     1      35.853 -23.909 -14.586  0.00  0.00    +0.037 C 
BRANCH  22  25
ATOM     25  O   UNL     1      38.121 -23.853 -13.848  0.00  0.00    -0.472 OA
BRANCH  25  26
ATOM     26  C   UNL     1      38.565 -25.209 -13.868  0.00  0.00    +0.221 C 
ATOM     27  C   UNL     1      38.584 -25.721 -12.431  0.00  0.00    +0.055 C 
ATOM     28  C   UNL     1      37.612 -26.005 -14.754  0.00  0.00    +0.055 C 
BRANCH  26  30
ATOM     29  O   UNL     1      40.925 -24.612 -13.938  0.00  0.00    -0.246 OA
ATOM     30  C   UNL     1      39.968 -25.173 -14.459  0.00  0.00    +0.350 C 
BRANCH  30  31
ATOM     31  O   UNL     1      40.070 -25.830 -15.643  0.00  0.00    -0.478 OA
ATOM     32  H   UNL     1      40.674 -26.540 -15.734  0.00  0.00    +0.295 HD
ENDBRANCH  30  31
ENDBRANCH  26  30
ENDBRANCH  25  26
ENDBRANCH  22  25
ENDBRANCH  18  19
ENDBRANCH   1  18
TORSDOF 10
ENDMDL
MODEL 2
REMARK VINA RESULT:     -11.3      1.351      2.088
REMARK  Name = 9909438
REMARK  10 active torsions:
REMARK  status: ('A' for Active; 'I' for Inactive)
REMARK    1  A    between atoms: C_1  and  C_2
REMARK    2  A    between atoms: C_1  and  C_18
REMARK    3  A    between atoms: C_2  and  C_7
REMARK    4  A    between atoms: N_4  and  C_10
REMARK    5  A    between atoms: C_10  and  C_11
REMARK    6  A    between atoms: C_18  and  C_19
REMARK    7  A    between atoms: C_22  and  O_25
REMARK    8  A    between atoms: O_25  and  C_26
REMARK    9  A    between atoms: C_26  and  C_30
REMARK   10  A    between atoms: C_30  and  O_31
REMARK                            x       y       z     vdW  Elec       q    Type
REMARK                         _______ _______ _______ _____ _____    ______ ____
ROOT
ATOM      1  C   UNL     1      34.164 -22.036 -19.112  0.00  0.00    +0.014 C 
ENDROOT
BRANCH   1   2
ATOM      2  C   UNL     1      33.489 -20.873 -19.834  0.00  0.00    +0.078 C 
BRANCH   2   7
ATOM      3  O   UNL     1      37.466 -18.713 -21.181  0.00  0.00    -0.191 OA
ATOM      4  N   UNL     1      35.346 -18.825 -22.134  0.00  0.00    -0.151 N 
ATOM      5  N   UNL     1      34.188 -19.431 -21.757  0.00  0.00    -0.229 N 
ATOM      6  N   UNL     1      35.727 -19.901 -20.188  0.00  0.00    -0.308 NA
ATOM      7  C   UNL     1      34.485 -20.056 -20.583  0.00  0.00    +0.187 C 
ATOM      8  C   UNL     1      36.304 -19.100 -21.174  0.00  0.00    +0.286 C 
ATOM      9  H   UNL     1      33.323 -19.421 -22.228  0.00  0.00    +0.173 HD
BRANCH   4  10
ATOM     10  C   UNL     1      35.416 -18.049 -23.341  0.00  0.00    +0.152 C 
BRANCH  10  11
ATOM     11  C   UNL     1      34.816 -16.684 -23.167  0.00  0.00    +0.000 C 
ATOM     12  C   UNL     1      34.875 -16.062 -21.926  0.00  0.00    -0.003 C 
ATOM     13  C   UNL     1      34.209 -16.057 -24.248  0.00  0.00    -0.003 C 
ATOM     14  C   UNL     1      33.707 -14.157 -22.843  0.00  0.00    -0.022 C 
ATOM     15  C   UNL     1      34.318 -14.792 -21.764  0.00  0.00    -0.005 C 
ATOM     16  C   UNL     1      33.653 -14.788 -24.086  0.00  0.00    -0.005 C 
ATOM     17  C   UNL     1      33.111 -12.800 -22.670  0.00  0.00    +0.031 C 
ENDBRANCH  10  11
ENDBRANCH   4  10
ENDBRANCH   2   7
ENDBRANCH   1   2
BRANCH   1  18
ATOM     18  C   UNL     1      33.343 -22.539 -17.919  0.00  0.00    +0.027 C 
BRANCH  18  19
ATOM     19  C   UNL     1      34.225 -22.895 -16.750  0.00  0.00    -0.022 C 
ATOM     20  C   UNL     1      33.679 -23.564 -15.664  0.00  0.00    -0.001 C 
ATOM     21  C   UNL     1      35.567 -22.548 -16.778  0.00  0.00    -0.001 C 
ATOM     22  C   UNL     1      35.846 -23.551 -14.598  0.00  0.00    +0.139 C 
ATOM     23  C   UNL     1      34.494 -23.894 -14.582  0.00  0.00    +0.037 C 
ATOM     24  C   UNL     1      36.383 -22.878 -15.695  0.00  0.00    +0.037 C 
BRANCH  22  25
ATOM     25  O   UNL     1      36.642 -23.872 -13.541  0.00  0.00    -0.472 OA
BRANCH  25  26
ATOM     26  C   UNL     1      37.279 -25.149 -13.572  0.00  0.00    +0.221 C 
ATOM     27  C   UNL     1      36.487 -26.049 -14.516  0.00  0.00    +0.055 C 
ATOM     28  C   UNL     1      38.719 -24.948 -14.035  0.00  0.00    +0.055 C 
BRANCH  26  30
ATOM     29  O   UNL     1      37.552 -25.015 -11.156  0.00  0.00    -0.246 OA
ATOM     30  C   UNL     1      37.227 -25.667 -12.141  0.00  0.00    +0.350 C 
BRANCH  30  31
ATOM     31  O   UNL     1      36.777 -26.945 -12.047  0.00  0.00    -0.478 OA
ATOM     32  H   UNL     1      36.189 -27.283 -12.693  0.00  0.00    +0.295 HD
ENDBRANCH  30  31
ENDBRANCH  26  30
ENDBRANCH  25  26
ENDBRANCH  22  25
ENDBRANCH  18  19
ENDBRANCH   1  18
TORSDOF 10
ENDMDL
MODEL 3
REMARK VINA RESULT:     -11.2      1.593      2.109
REMARK  Name = 9909438
REMARK  10 active torsions:
REMARK  status: ('A' for Active; 'I' for Inactive)
REMARK    1  A    between atoms: C_1  and  C_2
REMARK    2  A    between atoms: C_1  and  C_18
REMARK    3  A    between atoms: C_2  and  C_7
REMARK    4  A    between atoms: N_4  and  C_10
REMARK    5  A    between atoms: C_10  and  C_11
REMARK    6  A    between atoms: C_18  and  C_19
REMARK    7  A    between atoms: C_22  and  O_25
REMARK    8  A    between atoms: O_25  and  C_26
REMARK    9  A    between atoms: C_26  and  C_30
REMARK   10  A    between atoms: C_30  and  O_31
REMARK                            x       y       z     vdW  Elec       q    Type
REMARK                         _______ _______ _______ _____ _____    ______ ____
ROOT
ATOM      1  C   UNL     1      34.269 -22.098 -19.137  0.00  0.00    +0.014 C 
ENDROOT
BRANCH   1   2
ATOM      2  C   UNL     1      33.600 -20.870 -19.748  0.00  0.00    +0.078 C 
BRANCH   2   7
ATOM      3  O   UNL     1      37.530 -18.708 -21.222  0.00  0.00    -0.191 OA
ATOM      4  N   UNL     1      35.396 -18.869 -22.135  0.00  0.00    -0.151 N 
ATOM      5  N   UNL     1      34.251 -19.476 -21.722  0.00  0.00    -0.229 N 
ATOM      6  N   UNL     1      35.821 -19.885 -20.167  0.00  0.00    -0.308 NA
ATOM      7  C   UNL     1      34.574 -20.064 -20.536  0.00  0.00    +0.187 C 
ATOM      8  C   UNL     1      36.373 -19.106 -21.184  0.00  0.00    +0.286 C 
ATOM      9  H   UNL     1      33.379 -19.488 -22.179  0.00  0.00    +0.173 HD
BRANCH   4  10
ATOM     10  C   UNL     1      35.437 -18.127 -23.364  0.00  0.00    +0.152 C 
BRANCH  10  11
ATOM     11  C   UNL     1      34.839 -16.758 -23.215  0.00  0.00    +0.000 C 
ATOM     12  C   UNL     1      34.216 -16.159 -24.303  0.00  0.00    -0.003 C 
ATOM     13  C   UNL     1      34.915 -16.104 -21.992  0.00  0.00    -0.003 C 
ATOM     14  C   UNL     1      33.732 -14.224 -22.941  0.00  0.00    -0.022 C 
ATOM     15  C   UNL     1      33.660 -14.887 -24.165  0.00  0.00    -0.005 C 
ATOM     16  C   UNL     1      34.359 -14.832 -21.854  0.00  0.00    -0.005 C 
ATOM     17  C   UNL     1      33.137 -12.864 -22.793  0.00  0.00    +0.031 C 
ENDBRANCH  10  11
ENDBRANCH   4  10
ENDBRANCH   2   7
ENDBRANCH   1   2
BRANCH   1  18
ATOM     18  C   UNL     1      33.405 -22.760 -18.058  0.00  0.00    +0.027 C 
BRANCH  18  19
ATOM     19  C   UNL     1      34.162 -22.929 -16.766  0.00  0.00    -0.022 C 
ATOM     20  C   UNL     1      35.488 -22.527 -16.697  0.00  0.00    -0.001 C 
ATOM     21  C   UNL     1      33.521 -23.481 -15.668  0.00  0.00    -0.001 C 
ATOM     22  C   UNL     1      35.555 -23.236 -14.388  0.00  0.00    +0.139 C 
ATOM     23  C   UNL     1      36.189 -22.682 -15.501  0.00  0.00    +0.037 C 
ATOM     24  C   UNL     1      34.222 -23.636 -14.472  0.00  0.00    +0.037 C 
BRANCH  22  25
ATOM     25  O   UNL     1      36.239 -23.389 -13.222  0.00  0.00    -0.472 OA
BRANCH  25  26
ATOM     26  C   UNL     1      36.779 -24.681 -12.950  0.00  0.00    +0.221 C 
ATOM     27  C   UNL     1      36.497 -25.574 -14.155  0.00  0.00    +0.055 C 
ATOM     28  C   UNL     1      38.273 -24.523 -12.684  0.00  0.00    +0.055 C 
BRANCH  26  30
ATOM     29  O   UNL     1      35.087 -24.616 -11.201  0.00  0.00    -0.246 OA
ATOM     30  C   UNL     1      36.048 -25.179 -11.711  0.00  0.00    +0.350 C 
BRANCH  30  31
ATOM     31  O   UNL     1      36.565 -26.328 -11.205  0.00  0.00    -0.478 OA
ATOM     32  H   UNL     1      37.490 -26.473 -11.222  0.00  0.00    +0.295 HD
ENDBRANCH  30  31
ENDBRANCH  26  30
ENDBRANCH  25  26
ENDBRANCH  22  25
ENDBRANCH  18  19
ENDBRANCH   1  18
TORSDOF 10
ENDMDL
MODEL 4
REMARK VINA RESULT:     -11.1      2.205      3.099
REMARK  Name = 9909438
REMARK  10 active torsions:
REMARK  status: ('A' for Active; 'I' for Inactive)
REMARK    1  A    between atoms: C_1  and  C_2
REMARK    2  A    between atoms: C_1  and  C_18
REMARK    3  A    between atoms: C_2  and  C_7
REMARK    4  A    between atoms: N_4  and  C_10
REMARK    5  A    between atoms: C_10  and  C_11
REMARK    6  A    between atoms: C_18  and  C_19
REMARK    7  A    between atoms: C_22  and  O_25
REMARK    8  A    between atoms: O_25  and  C_26
REMARK    9  A    between atoms: C_26  and  C_30
REMARK   10  A    between atoms: C_30  and  O_31
REMARK                            x       y       z     vdW  Elec       q    Type
REMARK                         _______ _______ _______ _____ _____    ______ ____
ROOT
ATOM      1  C   UNL     1      34.632 -20.647 -19.863  0.00  0.00    +0.014 C 
ENDROOT
BRANCH   1   2
ATOM      2  C   UNL     1      35.799 -19.988 -20.594  0.00  0.00    +0.078 C 
BRANCH   2   7
ATOM      3  O   UNL     1      33.519 -18.336 -24.384  0.00  0.00    -0.191 OA
ATOM      4  N   UNL     1      35.040 -17.354 -22.922  0.00  0.00    -0.151 N 
ATOM      5  N   UNL     1      35.714 -17.816 -21.834  0.00  0.00    -0.229 N 
ATOM      6  N   UNL     1      34.447 -19.506 -22.598  0.00  0.00    -0.308 NA
ATOM      7  C   UNL     1      35.314 -19.111 -21.697  0.00  0.00    +0.187 C 
ATOM      8  C   UNL     1      34.258 -18.387 -23.409  0.00  0.00    +0.286 C 
ATOM      9  H   UNL     1      36.352 -17.322 -21.268  0.00  0.00    +0.173 HD
BRANCH   4  10
ATOM     10  C   UNL     1      35.218 -16.007 -23.385  0.00  0.00    +0.152 C 
BRANCH  10  11
ATOM     11  C   UNL     1      34.324 -15.041 -22.662  0.00  0.00    +0.000 C 
ATOM     12  C   UNL     1      33.487 -14.204 -23.390  0.00  0.00    -0.003 C 
ATOM     13  C   UNL     1      34.342 -14.994 -21.273  0.00  0.00    -0.003 C 
ATOM     14  C   UNL     1      32.668 -13.254 -21.326  0.00  0.00    -0.022 C 
ATOM     15  C   UNL     1      32.655 -13.307 -22.719  0.00  0.00    -0.005 C 
ATOM     16  C   UNL     1      33.511 -14.097 -20.603  0.00  0.00    -0.005 C 
ATOM     17  C   UNL     1      31.779 -12.294 -20.609  0.00  0.00    +0.031 C 
ENDBRANCH  10  11
ENDBRANCH   4  10
ENDBRANCH   2   7
ENDBRANCH   1   2
BRANCH   1  18
ATOM     18  C   UNL     1      34.901 -22.122 -19.543  0.00  0.00    +0.027 C 
BRANCH  18  19
ATOM     19  C   UNL     1      35.051 -22.350 -18.061  0.00  0.00    -0.022 C 
ATOM     20  C   UNL     1      33.995 -22.893 -17.345  0.00  0.00    -0.001 C 
ATOM     21  C   UNL     1      36.244 -22.015 -17.438  0.00  0.00    -0.001 C 
ATOM     22  C   UNL     1      35.328 -22.773 -15.334  0.00  0.00    +0.139 C 
ATOM     23  C   UNL     1      34.133 -23.106 -15.973  0.00  0.00    +0.037 C 
ATOM     24  C   UNL     1      36.383 -22.227 -16.065  0.00  0.00    +0.037 C 
BRANCH  22  25
ATOM     25  O   UNL     1      35.464 -22.979 -13.996  0.00  0.00    -0.472 OA
BRANCH  25  26
ATOM     26  C   UNL     1      35.944 -24.257 -13.581  0.00  0.00    +0.221 C 
ATOM     27  C   UNL     1      35.628 -25.261 -14.684  0.00  0.00    +0.055 C 
ATOM     28  C   UNL     1      37.443 -24.136 -13.319  0.00  0.00    +0.055 C 
BRANCH  26  30
ATOM     29  O   UNL     1      34.126 -24.064 -11.973  0.00  0.00    -0.246 OA
ATOM     30  C   UNL     1      35.185 -24.584 -12.302  0.00  0.00    +0.350 C 
BRANCH  30  31
ATOM     31  O   UNL     1      35.798 -25.526 -11.538  0.00  0.00    -0.478 OA
ATOM     32  H   UNL     1      35.319 -26.277 -11.248  0.00  0.00    +0.295 HD
ENDBRANCH  30  31
ENDBRANCH  26  30
ENDBRANCH  25  26
ENDBRANCH  22  25
ENDBRANCH  18  19
ENDBRANCH   1  18
TORSDOF 10
ENDMDL
MODEL 5
REMARK VINA RESULT:     -11.1      5.525     13.079
REMARK  Name = 9909438
REMARK  10 active torsions:
REMARK  status: ('A' for Active; 'I' for Inactive)
REMARK    1  A    between atoms: C_1  and  C_2
REMARK    2  A    between atoms: C_1  and  C_18
REMARK    3  A    between atoms: C_2  and  C_7
REMARK    4  A    between atoms: N_4  and  C_10
REMARK    5  A    between atoms: C_10  and  C_11
REMARK    6  A    between atoms: C_18  and  C_19
REMARK    7  A    between atoms: C_22  and  O_25
REMARK    8  A    between atoms: O_25  and  C_26
REMARK    9  A    between atoms: C_26  and  C_30
REMARK   10  A    between atoms: C_30  and  O_31
REMARK                            x       y       z     vdW  Elec       q    Type
REMARK                         _______ _______ _______ _____ _____    ______ ____
ROOT
ATOM      1  C   UNL     1      32.965 -13.863 -21.316  0.00  0.00    +0.014 C 
ENDROOT
BRANCH   1   2
ATOM      2  C   UNL     1      34.229 -14.534 -20.784  0.00  0.00    +0.078 C 
BRANCH   2   7
ATOM      3  O   UNL     1      34.818 -17.553 -24.366  0.00  0.00    -0.191 OA
ATOM      4  N   UNL     1      35.381 -17.671 -22.112  0.00  0.00    -0.151 N 
ATOM      5  N   UNL     1      35.210 -16.819 -21.065  0.00  0.00    -0.229 N 
ATOM      6  N   UNL     1      34.344 -15.822 -22.883  0.00  0.00    -0.308 NA
ATOM      7  C   UNL     1      34.582 -15.733 -21.596  0.00  0.00    +0.187 C 
ATOM      8  C   UNL     1      34.847 -17.074 -23.240  0.00  0.00    +0.286 C 
ATOM      9  H   UNL     1      35.481 -16.956 -20.128  0.00  0.00    +0.173 HD
BRANCH   4  10
ATOM     10  C   UNL     1      36.011 -18.949 -21.930  0.00  0.00    +0.152 C 
BRANCH  10  11
ATOM     11  C   UNL     1      35.249 -19.820 -20.974  0.00  0.00    +0.000 C 
ATOM     12  C   UNL     1      33.860 -19.807 -20.992  0.00  0.00    -0.003 C 
ATOM     13  C   UNL     1      35.941 -20.631 -20.082  0.00  0.00    -0.003 C 
ATOM     14  C   UNL     1      33.838 -21.434 -19.206  0.00  0.00    -0.022 C 
ATOM     15  C   UNL     1      33.151 -20.618 -20.104  0.00  0.00    -0.005 C 
ATOM     16  C   UNL     1      35.233 -21.441 -19.195  0.00  0.00    -0.005 C 
ATOM     17  C   UNL     1      33.080 -22.300 -18.256  0.00  0.00    +0.031 C 
ENDBRANCH  10  11
ENDBRANCH   4  10
ENDBRANCH   2   7
ENDBRANCH   1   2
BRANCH   1  18
ATOM     18  C   UNL     1      32.129 -13.223 -20.202  0.00  0.00    +0.027 C 
BRANCH  18  19
ATOM     19  C   UNL     1      31.913 -11.751 -20.446  0.00  0.00    -0.022 C 
ATOM     20  C   UNL     1      31.873 -11.276 -21.749  0.00  0.00    -0.001 C 
ATOM     21  C   UNL     1      31.756 -10.897 -19.366  0.00  0.00    -0.001 C 
ATOM     22  C   UNL     1      31.512  -9.045 -20.897  0.00  0.00    +0.139 C 
ATOM     23  C   UNL     1      31.671  -9.915 -21.976  0.00  0.00    +0.037 C 
ATOM     24  C   UNL     1      31.555  -9.535 -19.592  0.00  0.00    +0.037 C 
BRANCH  22  25
ATOM     25  O   UNL     1      31.317  -7.716 -21.117  0.00  0.00    -0.472 OA
BRANCH  25  26
ATOM     26  C   UNL     1      32.479  -6.892 -21.186  0.00  0.00    +0.221 C 
ATOM     27  C   UNL     1      33.008  -6.701 -19.768  0.00  0.00    +0.055 C 
ATOM     28  C   UNL     1      33.493  -7.580 -22.095  0.00  0.00    +0.055 C 
BRANCH  26  30
ATOM     29  O   UNL     1      32.354  -5.146 -22.879  0.00  0.00    -0.246 OA
ATOM     30  C   UNL     1      32.011  -5.571 -21.783  0.00  0.00    +0.350 C 
BRANCH  30  31
ATOM     31  O   UNL     1      31.158  -4.888 -20.976  0.00  0.00    -0.478 OA
ATOM     32  H   UNL     1      30.929  -5.235 -20.137  0.00  0.00    +0.295 HD
ENDBRANCH  30  31
ENDBRANCH  26  30
ENDBRANCH  25  26
ENDBRANCH  22  25
ENDBRANCH  18  19
ENDBRANCH   1  18
TORSDOF 10
ENDMDL
MODEL 6
REMARK VINA RESULT:     -11.0      5.596     13.187
REMARK  Name = 9909438
REMARK  10 active torsions:
REMARK  status: ('A' for Active; 'I' for Inactive)
REMARK    1  A    between atoms: C_1  and  C_2
REMARK    2  A    between atoms: C_1  and  C_18
REMARK    3  A    between atoms: C_2  and  C_7
REMARK    4  A    between atoms: N_4  and  C_10
REMARK    5  A    between atoms: C_10  and  C_11
REMARK    6  A    between atoms: C_18  and  C_19
REMARK    7  A    between atoms: C_22  and  O_25
REMARK    8  A    between atoms: O_25  and  C_26
REMARK    9  A    between atoms: C_26  and  C_30
REMARK   10  A    between atoms: C_30  and  O_31
REMARK                            x       y       z     vdW  Elec       q    Type
REMARK                         _______ _______ _______ _____ _____    ______ ____
ROOT
ATOM      1  C   UNL     1      32.962 -13.797 -21.167  0.00  0.00    +0.014 C 
ENDROOT
BRANCH   1   2
ATOM      2  C   UNL     1      34.189 -14.537 -20.637  0.00  0.00    +0.078 C 
BRANCH   2   7
ATOM      3  O   UNL     1      34.920 -17.225 -24.449  0.00  0.00    -0.191 OA
ATOM      4  N   UNL     1      35.364 -17.560 -22.190  0.00  0.00    -0.151 N 
ATOM      5  N   UNL     1      35.151 -16.804 -21.078  0.00  0.00    -0.229 N 
ATOM      6  N   UNL     1      34.394 -15.629 -22.838  0.00  0.00    -0.308 NA
ATOM      7  C   UNL     1      34.566 -15.662 -21.537  0.00  0.00    +0.187 C 
ATOM      8  C   UNL     1      34.897 -16.852 -23.283  0.00  0.00    +0.286 C 
ATOM      9  H   UNL     1      35.372 -17.031 -20.146  0.00  0.00    +0.173 HD
BRANCH   4  10
ATOM     10  C   UNL     1      35.966 -18.860 -22.095  0.00  0.00    +0.152 C 
BRANCH  10  11
ATOM     11  C   UNL     1      35.250 -19.741 -21.113  0.00  0.00    +0.000 C 
ATOM     12  C   UNL     1      35.985 -20.514 -20.222  0.00  0.00    -0.003 C 
ATOM     13  C   UNL     1      33.861 -19.777 -21.106  0.00  0.00    -0.003 C 
ATOM     14  C   UNL     1      33.926 -21.374 -19.295  0.00  0.00    -0.022 C 
ATOM     15  C   UNL     1      35.320 -21.333 -19.308  0.00  0.00    -0.005 C 
ATOM     16  C   UNL     1      33.197 -20.595 -20.194  0.00  0.00    -0.005 C 
ATOM     17  C   UNL     1      33.216 -22.250 -18.319  0.00  0.00    +0.031 C 
ENDBRANCH  10  11
ENDBRANCH   4  10
ENDBRANCH   2   7
ENDBRANCH   1   2
BRANCH   1  18
ATOM     18  C   UNL     1      32.195 -13.069 -20.058  0.00  0.00    +0.027 C 
BRANCH  18  19
ATOM     19  C   UNL     1      31.959 -11.621 -20.406  0.00  0.00    -0.022 C 
ATOM     20  C   UNL     1      31.781 -10.697 -19.387  0.00  0.00    -0.001 C 
ATOM     21  C   UNL     1      31.923 -11.237 -21.737  0.00  0.00    -0.001 C 
ATOM     22  C   UNL     1      31.526  -8.957 -21.043  0.00  0.00    +0.139 C 
ATOM     23  C   UNL     1      31.564  -9.357 -19.707  0.00  0.00    +0.037 C 
ATOM     24  C   UNL     1      31.705  -9.897 -22.058  0.00  0.00    +0.037 C 
BRANCH  22  25
ATOM     25  O   UNL     1      31.312  -7.650 -21.357  0.00  0.00    -0.472 OA
BRANCH  25  26
ATOM     26  C   UNL     1      32.431  -6.769 -21.265  0.00  0.00    +0.221 C 
ATOM     27  C   UNL     1      32.798  -6.624 -19.792  0.00  0.00    +0.055 C 
ATOM     28  C   UNL     1      33.569  -7.363 -22.091  0.00  0.00    +0.055 C 
BRANCH  26  30
ATOM     29  O   UNL     1      32.320  -4.996 -22.931  0.00  0.00    -0.246 OA
ATOM     30  C   UNL     1      31.958  -5.445 -21.850  0.00  0.00    +0.350 C 
BRANCH  30  31
ATOM     31  O   UNL     1      31.079  -4.787 -21.050  0.00  0.00    -0.478 OA
ATOM     32  H   UNL     1      30.484  -5.269 -20.512  0.00  0.00    +0.295 HD
ENDBRANCH  30  31
ENDBRANCH  26  30
ENDBRANCH  25  26
ENDBRANCH  22  25
ENDBRANCH  18  19
ENDBRANCH   1  18
TORSDOF 10
ENDMDL
MODEL 7
REMARK VINA RESULT:     -11.0      2.721      4.045
REMARK  Name = 9909438
REMARK  10 active torsions:
REMARK  status: ('A' for Active; 'I' for Inactive)
REMARK    1  A    between atoms: C_1  and  C_2
REMARK    2  A    between atoms: C_1  and  C_18
REMARK    3  A    between atoms: C_2  and  C_7
REMARK    4  A    between atoms: N_4  and  C_10
REMARK    5  A    between atoms: C_10  and  C_11
REMARK    6  A    between atoms: C_18  and  C_19
REMARK    7  A    between atoms: C_22  and  O_25
REMARK    8  A    between atoms: O_25  and  C_26
REMARK    9  A    between atoms: C_26  and  C_30
REMARK   10  A    between atoms: C_30  and  O_31
REMARK                            x       y       z     vdW  Elec       q    Type
REMARK                         _______ _______ _______ _____ _____    ______ ____
ROOT
ATOM      1  C   UNL     1      35.030 -19.602 -21.101  0.00  0.00    +0.014 C 
ENDROOT
BRANCH   1   2
ATOM      2  C   UNL     1      35.119 -19.817 -22.610  0.00  0.00    +0.078 C 
BRANCH   2   7
ATOM      3  O   UNL     1      32.894 -16.877 -25.558  0.00  0.00    -0.191 OA
ATOM      4  N   UNL     1      34.533 -16.530 -23.943  0.00  0.00    -0.151 N 
ATOM      5  N   UNL     1      35.192 -17.363 -23.094  0.00  0.00    -0.229 N 
ATOM      6  N   UNL     1      33.762 -18.622 -24.285  0.00  0.00    -0.308 NA
ATOM      7  C   UNL     1      34.684 -18.601 -23.352  0.00  0.00    +0.187 C 
ATOM      8  C   UNL     1      33.651 -17.291 -24.690  0.00  0.00    +0.286 C 
ATOM      9  H   UNL     1      35.885 -17.125 -22.436  0.00  0.00    +0.173 HD
BRANCH   4  10
ATOM     10  C   UNL     1      34.815 -15.122 -23.965  0.00  0.00    +0.152 C 
BRANCH  10  11
ATOM     11  C   UNL     1      34.015 -14.371 -22.941  0.00  0.00    +0.000 C 
ATOM     12  C   UNL     1      33.077 -13.434 -23.355  0.00  0.00    -0.003 C 
ATOM     13  C   UNL     1      34.221 -14.622 -21.589  0.00  0.00    -0.003 C 
ATOM     14  C   UNL     1      32.533 -12.982 -21.045  0.00  0.00    -0.022 C 
ATOM     15  C   UNL     1      32.332 -12.736 -22.402  0.00  0.00    -0.005 C 
ATOM     16  C   UNL     1      33.476 -13.925 -20.638  0.00  0.00    -0.005 C 
ATOM     17  C   UNL     1      31.737 -12.236 -20.027  0.00  0.00    +0.031 C 
ENDBRANCH  10  11
ENDBRANCH   4  10
ENDBRANCH   2   7
ENDBRANCH   1   2
BRANCH   1  18
ATOM     18  C   UNL     1      33.691 -20.071 -20.522  0.00  0.00    +0.027 C 
BRANCH  18  19
ATOM     19  C   UNL     1      33.884 -21.108 -19.446  0.00  0.00    -0.022 C 
ATOM     20  C   UNL     1      35.169 -21.500 -19.101  0.00  0.00    -0.001 C 
ATOM     21  C   UNL     1      32.775 -21.653 -18.818  0.00  0.00    -0.001 C 
ATOM     22  C   UNL     1      34.241 -23.015 -17.464  0.00  0.00    +0.139 C 
ATOM     23  C   UNL     1      35.349 -22.459 -18.104  0.00  0.00    +0.037 C 
ATOM     24  C   UNL     1      32.954 -22.613 -17.821  0.00  0.00    +0.037 C 
BRANCH  22  25
ATOM     25  O   UNL     1      34.415 -23.952 -16.493  0.00  0.00    -0.472 OA
BRANCH  25  26
ATOM     26  C   UNL     1      34.398 -23.497 -15.141  0.00  0.00    +0.221 C 
ATOM     27  C   UNL     1      35.453 -22.405 -14.997  0.00  0.00    +0.055 C 
ATOM     28  C   UNL     1      32.993 -22.990 -14.831  0.00  0.00    +0.055 C 
BRANCH  26  30
ATOM     29  O   UNL     1      35.836 -25.270 -14.294  0.00  0.00    -0.246 OA
ATOM     30  C   UNL     1      34.744 -24.714 -14.294  0.00  0.00    +0.350 C 
BRANCH  30  31
ATOM     31  O   UNL     1      33.714 -25.142 -13.520  0.00  0.00    -0.478 OA
ATOM     32  H   UNL     1      32.855 -24.793 -13.649  0.00  0.00    +0.295 HD
ENDBRANCH  30  31
ENDBRANCH  26  30
ENDBRANCH  25  26
ENDBRANCH  22  25
ENDBRANCH  18  19
ENDBRANCH   1  18
TORSDOF 10
ENDMDL
MODEL 8
REMARK VINA RESULT:     -10.6      4.168     10.738
REMARK  Name = 9909438
REMARK  10 active torsions:
REMARK  status: ('A' for Active; 'I' for Inactive)
REMARK    1  A    between atoms: C_1  and  C_2
REMARK    2  A    between atoms: C_1  and  C_18
REMARK    3  A    between atoms: C_2  and  C_7
REMARK    4  A    between atoms: N_4  and  C_10
REMARK    5  A    between atoms: C_10  and  C_11
REMARK    6  A    between atoms: C_18  and  C_19
REMARK    7  A    between atoms: C_22  and  O_25
REMARK    8  A    between atoms: O_25  and  C_26
REMARK    9  A    between atoms: C_26  and  C_30
REMARK   10  A    between atoms: C_30  and  O_31
REMARK                            x       y       z     vdW  Elec       q    Type
REMARK                         _______ _______ _______ _____ _____    ______ ____
ROOT
ATOM      1  C   UNL     1      33.268 -23.379 -17.533  0.00  0.00    +0.014 C 
ENDROOT
BRANCH   1   2
ATOM      2  C   UNL     1      32.311 -22.804 -16.491  0.00  0.00    +0.078 C 
BRANCH   2   7
ATOM      3  O   UNL     1      31.679 -25.411 -12.606  0.00  0.00    -0.191 OA
ATOM      4  N   UNL     1      33.442 -24.072 -13.322  0.00  0.00    -0.151 N 
ATOM      5  N   UNL     1      33.638 -23.306 -14.430  0.00  0.00    -0.229 N 
ATOM      6  N   UNL     1      31.610 -24.255 -14.626  0.00  0.00    -0.308 NA
ATOM      7  C   UNL     1      32.502 -23.459 -15.167  0.00  0.00    +0.187 C 
ATOM      8  C   UNL     1      32.193 -24.660 -13.425  0.00  0.00    +0.286 C 
ATOM      9  H   UNL     1      34.427 -22.761 -14.651  0.00  0.00    +0.173 HD
BRANCH   4  10
ATOM     10  C   UNL     1      34.440 -24.152 -12.293  0.00  0.00    +0.152 C 
BRANCH  10  11
ATOM     11  C   UNL     1      35.771 -24.588 -12.834  0.00  0.00    +0.000 C 
ATOM     12  C   UNL     1      35.823 -25.369 -13.982  0.00  0.00    -0.003 C 
ATOM     13  C   UNL     1      36.937 -24.207 -12.180  0.00  0.00    -0.003 C 
ATOM     14  C   UNL     1      38.234 -25.397 -13.835  0.00  0.00    -0.022 C 
ATOM     15  C   UNL     1      37.060 -25.775 -14.485  0.00  0.00    -0.005 C 
ATOM     16  C   UNL     1      38.173 -24.612 -12.683  0.00  0.00    -0.005 C 
ATOM     17  C   UNL     1      39.556 -25.831 -14.373  0.00  0.00    +0.031 C 
ENDBRANCH  10  11
ENDBRANCH   4  10
ENDBRANCH   2   7
ENDBRANCH   1   2
BRANCH   1  18
ATOM     18  C   UNL     1      34.562 -22.566 -17.650  0.00  0.00    +0.027 C 
BRANCH  18  19
ATOM     19  C   UNL     1      34.537 -21.652 -18.849  0.00  0.00    -0.022 C 
ATOM     20  C   UNL     1      35.733 -21.270 -19.438  0.00  0.00    -0.001 C 
ATOM     21  C   UNL     1      33.319 -21.210 -19.343  0.00  0.00    -0.001 C 
ATOM     22  C   UNL     1      34.492 -19.974 -21.056  0.00  0.00    +0.139 C 
ATOM     23  C   UNL     1      35.711 -20.426 -20.548  0.00  0.00    +0.037 C 
ATOM     24  C   UNL     1      33.297 -20.365 -20.453  0.00  0.00    +0.037 C 
BRANCH  22  25
ATOM     25  O   UNL     1      34.470 -19.148 -22.138  0.00  0.00    -0.472 OA
BRANCH  25  26
ATOM     26  C   UNL     1      35.340 -18.018 -22.110  0.00  0.00    +0.221 C 
ATOM     27  C   UNL     1      35.054 -17.232 -20.834  0.00  0.00    +0.055 C 
ATOM     28  C   UNL     1      36.777 -18.527 -22.167  0.00  0.00    +0.055 C 
BRANCH  26  30
ATOM     29  O   UNL     1      34.162 -17.535 -24.185  0.00  0.00    -0.246 OA
ATOM     30  C   UNL     1      34.993 -17.204 -23.349  0.00  0.00    +0.350 C 
BRANCH  30  31
ATOM     31  O   UNL     1      35.702 -16.050 -23.451  0.00  0.00    -0.478 OA
ATOM     32  H   UNL     1      36.404 -15.984 -24.068  0.00  0.00    +0.295 HD
ENDBRANCH  30  31
ENDBRANCH  26  30
ENDBRANCH  25  26
ENDBRANCH  22  25
ENDBRANCH  18  19
ENDBRANCH   1  18
TORSDOF 10
ENDMDL
MODEL 9
REMARK VINA RESULT:     -10.6      5.913     13.658
REMARK  Name = 9909438
REMARK  10 active torsions:
REMARK  status: ('A' for Active; 'I' for Inactive)
REMARK    1  A    between atoms: C_1  and  C_2
REMARK    2  A    between atoms: C_1  and  C_18
REMARK    3  A    between atoms: C_2  and  C_7
REMARK    4  A    between atoms: N_4  and  C_10
REMARK    5  A    between atoms: C_10  and  C_11
REMARK    6  A    between atoms: C_18  and  C_19
REMARK    7  A    between atoms: C_22  and  O_25
REMARK    8  A    between atoms: O_25  and  C_26
REMARK    9  A    between atoms: C_26  and  C_30
REMARK   10  A    between atoms: C_30  and  O_31
REMARK                            x       y       z     vdW  Elec       q    Type
REMARK                         _______ _______ _______ _____ _____    ______ ____
ROOT
ATOM      1  C   UNL     1      32.417 -13.327 -21.363  0.00  0.00    +0.014 C 
ENDROOT
BRANCH   1   2
ATOM      2  C   UNL     1      33.619 -14.043 -20.754  0.00  0.00    +0.078 C 
BRANCH   2   7
ATOM      3  O   UNL     1      34.862 -16.338 -24.688  0.00  0.00    -0.191 OA
ATOM      4  N   UNL     1      35.279 -16.752 -22.437  0.00  0.00    -0.151 N 
ATOM      5  N   UNL     1      34.921 -16.111 -21.292  0.00  0.00    -0.229 N 
ATOM      6  N   UNL     1      34.054 -14.946 -23.006  0.00  0.00    -0.308 NA
ATOM      7  C   UNL     1      34.188 -15.039 -21.704  0.00  0.00    +0.187 C 
ATOM      8  C   UNL     1      34.747 -16.050 -23.504  0.00  0.00    +0.286 C 
ATOM      9  H   UNL     1      35.144 -16.365 -20.367  0.00  0.00    +0.173 HD
BRANCH   4  10
ATOM     10  C   UNL     1      36.065 -17.954 -22.397  0.00  0.00    +0.152 C 
BRANCH  10  11
ATOM     11  C   UNL     1      35.459 -18.992 -21.498  0.00  0.00    +0.000 C 
ATOM     12  C   UNL     1      36.273 -19.705 -20.626  0.00  0.00    -0.003 C 
ATOM     13  C   UNL     1      34.090 -19.231 -21.547  0.00  0.00    -0.003 C 
ATOM     14  C   UNL     1      34.338 -20.915 -19.833  0.00  0.00    -0.022 C 
ATOM     15  C   UNL     1      35.710 -20.670 -19.789  0.00  0.00    -0.005 C 
ATOM     16  C   UNL     1      33.528 -20.195 -20.711  0.00  0.00    -0.005 C 
ATOM     17  C   UNL     1      33.737 -21.947 -18.939  0.00  0.00    +0.031 C 
ENDBRANCH  10  11
ENDBRANCH   4  10
ENDBRANCH   2   7
ENDBRANCH   1   2
BRANCH   1  18
ATOM     18  C   UNL     1      31.726 -12.390 -20.366  0.00  0.00    +0.027 C 
BRANCH  18  19
ATOM     19  C   UNL     1      31.947 -10.942 -20.720  0.00  0.00    -0.022 C 
ATOM     20  C   UNL     1      32.344 -10.608 -22.006  0.00  0.00    -0.001 C 
ATOM     21  C   UNL     1      31.748  -9.967 -19.754  0.00  0.00    -0.001 C 
ATOM     22  C   UNL     1      32.350  -8.277 -21.373  0.00  0.00    +0.139 C 
ATOM     23  C   UNL     1      32.547  -9.268 -22.335  0.00  0.00    +0.037 C 
ATOM     24  C   UNL     1      31.952  -8.626 -20.083  0.00  0.00    +0.037 C 
BRANCH  22  25
ATOM     25  O   UNL     1      32.550  -6.969 -21.693  0.00  0.00    -0.472 OA
BRANCH  25  26
ATOM     26  C   UNL     1      31.635  -6.379 -22.615  0.00  0.00    +0.221 C 
ATOM     27  C   UNL     1      32.426  -5.921 -23.836  0.00  0.00    +0.055 C 
ATOM     28  C   UNL     1      30.580  -7.423 -22.967  0.00  0.00    +0.055 C 
BRANCH  26  30
ATOM     29  O   UNL     1      30.148  -5.291 -21.024  0.00  0.00    -0.246 OA
ATOM     30  C   UNL     1      31.018  -5.196 -21.881  0.00  0.00    +0.350 C 
BRANCH  30  31
ATOM     31  O   UNL     1      31.528  -3.998 -22.266  0.00  0.00    -0.478 OA
ATOM     32  H   UNL     1      31.065  -3.469 -22.884  0.00  0.00    +0.295 HD
ENDBRANCH  30  31
ENDBRANCH  26  30
ENDBRANCH  25  26
ENDBRANCH  22  25
ENDBRANCH  18  19
ENDBRANCH   1  18
TORSDOF 10
ENDMDL
