MODEL 1
REMARK VINA RESULT:     -11.3      0.000      0.000
REMARK  Name = 445481
REMARK  5 active torsions:
REMARK  status: ('A' for Active; 'I' for Inactive)
REMARK    1  A    between atoms: N_2  and  C_21
REMARK    2  A    between atoms: C_3  and  N_7
REMARK    3  A    between atoms: N_7  and  S_9
REMARK    4  A    between atoms: S_9  and  C_14
REMARK    5  A    between atoms: C_21  and  C_24
REMARK                            x       y       z     vdW  Elec       q    Type
REMARK                         _______ _______ _______ _____ _____    ______ ____
ROOT
ATOM      1  O   UNL     1      36.787 -20.671 -19.546  0.00  0.00    -0.273 OA
ATOM      2  N   UNL     1      35.361 -19.571 -21.060  0.00  0.00    -0.273 N 
ATOM      3  C   UNL     1      34.455 -21.307 -19.797  0.00  0.00    +0.153 C 
ATOM      4  C   UNL     1      33.331 -20.435 -20.346  0.00  0.00    +0.048 C 
ATOM      5  C   UNL     1      33.987 -19.687 -21.490  0.00  0.00    +0.096 C 
ATOM      6  C   UNL     1      35.698 -20.499 -20.075  0.00  0.00    +0.242 C 
ENDROOT
BRANCH   3   7
ATOM      7  N   UNL     1      34.313 -21.503 -18.350  0.00  0.00    -0.171 NA
ATOM      8  H   UNL     1      35.253 -21.597 -17.964  0.00  0.00    +0.149 HD
BRANCH   7   9
ATOM      9  S   UNL     1      33.401 -22.847 -17.802  0.00  0.00    +0.066 S 
ATOM     10  O   UNL     1      33.753 -24.015 -18.585  0.00  0.00    -0.152 OA
ATOM     11  O   UNL     1      32.018 -22.444 -17.629  0.00  0.00    -0.152 OA
BRANCH   9  14
ATOM     12  S   UNL     1      35.570 -22.819 -15.849  0.00  0.00    -0.066 S 
ATOM     13  N   UNL     1      33.824 -24.317 -12.712  0.00  0.00    -0.243 NA
ATOM     14  C   UNL     1      33.946 -23.209 -16.133  0.00  0.00    +0.153 C 
ATOM     15  C   UNL     1      33.304 -23.733 -15.064  0.00  0.00    +0.046 C 
ATOM     16  C   UNL     1      34.172 -23.831 -13.934  0.00  0.00    +0.089 C 
ATOM     17  C   UNL     1      35.455 -23.363 -14.222  0.00  0.00    +0.048 C 
ATOM     18  C   UNL     1      36.447 -23.381 -13.231  0.00  0.00    +0.010 C 
ATOM     19  C   UNL     1      36.097 -23.876 -11.981  0.00  0.00    +0.021 C 
ATOM     20  C   UNL     1      34.803 -24.319 -11.784  0.00  0.00    +0.099 C 
ENDBRANCH   9  14
ENDBRANCH   7   9
ENDBRANCH   3   7
BRANCH   2  21
ATOM     21  C   UNL     1      36.282 -18.660 -21.704  0.00  0.00    +0.135 C 
BRANCH  21  24
ATOM     22  N   UNL     1      35.244 -17.462 -23.612  0.00  0.00    -0.313 N 
ATOM     23  N   UNL     1      33.432 -14.617 -25.110  0.00  0.00    -0.241 NA
ATOM     24  C   UNL     1      35.542 -17.489 -22.290  0.00  0.00    +0.046 C 
ATOM     25  C   UNL     1      35.082 -16.362 -21.689  0.00  0.00    +0.013 C 
ATOM     26  C   UNL     1      34.456 -15.582 -22.702  0.00  0.00    +0.017 C 
ATOM     27  C   UNL     1      34.572 -16.296 -23.896  0.00  0.00    +0.068 C 
ATOM     28  C   UNL     1      33.803 -14.342 -22.722  0.00  0.00    +0.022 C 
ATOM     29  C   UNL     1      34.062 -15.815 -25.095  0.00  0.00    +0.113 C 
ATOM     30  C   UNL     1      33.319 -13.924 -23.954  0.00  0.00    +0.099 C 
ATOM     31  H   UNL     1      35.472 -18.164 -24.263  0.00  0.00    +0.152 HD
ENDBRANCH  21  24
ENDBRANCH   2  21
TORSDOF 5
ENDMDL
MODEL 2
REMARK VINA RESULT:     -11.2      0.836      1.195
REMARK  Name = 445481
REMARK  5 active torsions:
REMARK  status: ('A' for Active; 'I' for Inactive)
REMARK    1  A    between atoms: N_2  and  C_21
REMARK    2  A    between atoms: C_3  and  N_7
REMARK    3  A    between atoms: N_7  and  S_9
REMARK    4  A    between atoms: S_9  and  C_14
REMARK    5  A    between atoms: C_21  and  C_24
REMARK                            x       y       z     vdW  Elec       q    Type
REMARK                         _______ _______ _______ _____ _____    ______ ____
ROOT
ATOM      1  O   UNL     1      36.731 -20.835 -19.689  0.00  0.00    -0.273 OA
ATOM      2  N   UNL     1      35.252 -19.657 -21.090  0.00  0.00    -0.273 N 
ATOM      3  C   UNL     1      34.363 -21.373 -19.789  0.00  0.00    +0.153 C 
ATOM      4  C   UNL     1      33.241 -20.449 -20.250  0.00  0.00    +0.048 C 
ATOM      5  C   UNL     1      33.849 -19.711 -21.427  0.00  0.00    +0.096 C 
ATOM      6  C   UNL     1      35.617 -20.612 -20.141  0.00  0.00    +0.242 C 
ENDROOT
BRANCH   3   7
ATOM      7  N   UNL     1      34.311 -21.584 -18.338  0.00  0.00    -0.171 NA
ATOM      8  H   UNL     1      35.270 -21.722 -18.018  0.00  0.00    +0.149 HD
BRANCH   7   9
ATOM      9  S   UNL     1      33.382 -22.898 -17.745  0.00  0.00    +0.066 S 
ATOM     10  O   UNL     1      33.697 -24.088 -18.510  0.00  0.00    -0.152 OA
ATOM     11  O   UNL     1      32.012 -22.464 -17.556  0.00  0.00    -0.152 OA
BRANCH   9  14
ATOM     12  S   UNL     1      35.567 -22.803 -15.812  0.00  0.00    -0.066 S 
ATOM     13  N   UNL     1      33.888 -24.328 -12.651  0.00  0.00    -0.243 NA
ATOM     14  C   UNL     1      33.951 -23.236 -16.079  0.00  0.00    +0.153 C 
ATOM     15  C   UNL     1      33.333 -23.771 -15.002  0.00  0.00    +0.046 C 
ATOM     16  C   UNL     1      34.213 -23.840 -13.880  0.00  0.00    +0.089 C 
ATOM     17  C   UNL     1      35.481 -23.341 -14.181  0.00  0.00    +0.048 C 
ATOM     18  C   UNL     1      36.481 -23.327 -13.199  0.00  0.00    +0.010 C 
ATOM     19  C   UNL     1      36.155 -23.824 -11.943  0.00  0.00    +0.021 C 
ATOM     20  C   UNL     1      34.875 -24.300 -11.733  0.00  0.00    +0.099 C 
ENDBRANCH   9  14
ENDBRANCH   7   9
ENDBRANCH   3   7
BRANCH   2  21
ATOM     21  C   UNL     1      36.165 -18.774 -21.783  0.00  0.00    +0.135 C 
BRANCH  21  24
ATOM     22  N   UNL     1      35.172 -16.544 -21.343  0.00  0.00    -0.313 N 
ATOM     23  N   UNL     1      33.430 -13.461 -22.383  0.00  0.00    -0.241 NA
ATOM     24  C   UNL     1      35.454 -17.527 -22.232  0.00  0.00    +0.046 C 
ATOM     25  C   UNL     1      35.005 -17.178 -23.465  0.00  0.00    +0.013 C 
ATOM     26  C   UNL     1      34.405 -15.894 -23.336  0.00  0.00    +0.017 C 
ATOM     27  C   UNL     1      34.525 -15.521 -21.996  0.00  0.00    +0.068 C 
ATOM     28  C   UNL     1      33.773 -15.013 -24.225  0.00  0.00    +0.022 C 
ATOM     29  C   UNL     1      34.039 -14.309 -21.522  0.00  0.00    +0.113 C 
ATOM     30  C   UNL     1      33.312 -13.821 -23.681  0.00  0.00    +0.099 C 
ATOM     31  H   UNL     1      35.395 -16.559 -20.384  0.00  0.00    +0.152 HD
ENDBRANCH  21  24
ENDBRANCH   2  21
TORSDOF 5
ENDMDL
MODEL 3
REMARK VINA RESULT:     -10.8      2.645     10.499
REMARK  Name = 445481
REMARK  5 active torsions:
REMARK  status: ('A' for Active; 'I' for Inactive)
REMARK    1  A    between atoms: N_2  and  C_21
REMARK    2  A    between atoms: C_3  and  N_7
REMARK    3  A    between atoms: N_7  and  S_9
REMARK    4  A    between atoms: S_9  and  C_14
REMARK    5  A    between atoms: C_21  and  C_24
REMARK                            x       y       z     vdW  Elec       q    Type
REMARK                         _______ _______ _______ _____ _____    ______ ____
ROOT
ATOM      1  O   UNL     1      36.152 -21.054 -19.633  0.00  0.00    -0.273 OA
ATOM      2  N   UNL     1      34.049 -21.913 -19.021  0.00  0.00    -0.273 N 
ATOM      3  C   UNL     1      34.086 -19.934 -20.250  0.00  0.00    +0.153 C 
ATOM      4  C   UNL     1      32.704 -20.570 -20.349  0.00  0.00    +0.048 C 
ATOM      5  C   UNL     1      32.667 -21.525 -19.172  0.00  0.00    +0.096 C 
ATOM      6  C   UNL     1      34.930 -21.016 -19.625  0.00  0.00    +0.242 C 
ENDROOT
BRANCH   3   7
ATOM      7  N   UNL     1      34.615 -19.609 -21.580  0.00  0.00    -0.171 NA
ATOM      8  H   UNL     1      35.078 -20.447 -21.934  0.00  0.00    +0.149 HD
BRANCH   7   9
ATOM      9  S   UNL     1      35.732 -18.316 -21.711  0.00  0.00    +0.066 S 
ATOM     10  O   UNL     1      36.939 -18.792 -22.360  0.00  0.00    -0.152 OA
ATOM     11  O   UNL     1      35.786 -17.604 -20.449  0.00  0.00    -0.152 OA
BRANCH   9  14
ATOM     12  S   UNL     1      34.720 -15.611 -22.131  0.00  0.00    -0.066 S 
ATOM     13  N   UNL     1      33.713 -15.721 -25.887  0.00  0.00    -0.243 NA
ATOM     14  C   UNL     1      35.023 -17.119 -22.841  0.00  0.00    +0.153 C 
ATOM     15  C   UNL     1      34.685 -17.196 -24.148  0.00  0.00    +0.046 C 
ATOM     16  C   UNL     1      34.145 -15.961 -24.619  0.00  0.00    +0.089 C 
ATOM     17  C   UNL     1      34.104 -14.995 -23.613  0.00  0.00    +0.048 C 
ATOM     18  C   UNL     1      33.603 -13.714 -23.890  0.00  0.00    +0.010 C 
ATOM     19  C   UNL     1      33.161 -13.464 -25.183  0.00  0.00    +0.021 C 
ATOM     20  C   UNL     1      33.238 -14.480 -26.117  0.00  0.00    +0.099 C 
ENDBRANCH   9  14
ENDBRANCH   7   9
ENDBRANCH   3   7
BRANCH   2  21
ATOM     21  C   UNL     1      34.433 -23.050 -18.213  0.00  0.00    +0.135 C 
BRANCH  21  24
ATOM     22  N   UNL     1      34.091 -23.516 -15.801  0.00  0.00    -0.313 N 
ATOM     23  N   UNL     1      32.000 -23.779 -12.771  0.00  0.00    -0.241 NA
ATOM     24  C   UNL     1      33.560 -23.149 -16.993  0.00  0.00    +0.046 C 
ATOM     25  C   UNL     1      32.229 -22.921 -16.856  0.00  0.00    +0.013 C 
ATOM     26  C   UNL     1      31.909 -23.161 -15.489  0.00  0.00    +0.017 C 
ATOM     27  C   UNL     1      33.095 -23.532 -14.853  0.00  0.00    +0.068 C 
ATOM     28  C   UNL     1      30.731 -23.100 -14.732  0.00  0.00    +0.022 C 
ATOM     29  C   UNL     1      33.140 -23.840 -13.499  0.00  0.00    +0.113 C 
ATOM     30  C   UNL     1      30.851 -23.420 -13.386  0.00  0.00    +0.099 C 
ATOM     31  H   UNL     1      35.037 -23.737 -15.641  0.00  0.00    +0.152 HD
ENDBRANCH  21  24
ENDBRANCH   2  21
TORSDOF 5
ENDMDL
MODEL 4
REMARK VINA RESULT:     -10.7      2.588     10.548
REMARK  Name = 445481
REMARK  5 active torsions:
REMARK  status: ('A' for Active; 'I' for Inactive)
REMARK    1  A    between atoms: N_2  and  C_21
REMARK    2  A    between atoms: C_3  and  N_7
REMARK    3  A    between atoms: N_7  and  S_9
REMARK    4  A    between atoms: S_9  and  C_14
REMARK    5  A    between atoms: C_21  and  C_24
REMARK                            x       y       z     vdW  Elec       q    Type
REMARK                         _______ _______ _______ _____ _____    ______ ____
ROOT
ATOM      1  O   UNL     1      32.447 -20.607 -20.081  0.00  0.00    -0.273 OA
ATOM      2  N   UNL     1      33.785 -21.890 -18.632  0.00  0.00    -0.273 N 
ATOM      3  C   UNL     1      34.857 -20.755 -20.363  0.00  0.00    +0.153 C 
ATOM      4  C   UNL     1      35.874 -21.126 -19.289  0.00  0.00    +0.048 C 
ATOM      5  C   UNL     1      35.184 -22.229 -18.511  0.00  0.00    +0.096 C 
ATOM      6  C   UNL     1      33.529 -21.035 -19.704  0.00  0.00    +0.242 C 
ENDROOT
BRANCH   3   7
ATOM      7  N   UNL     1      34.943 -19.330 -20.702  0.00  0.00    -0.171 NA
ATOM      8  H   UNL     1      33.993 -18.957 -20.687  0.00  0.00    +0.149 HD
BRANCH   7   9
ATOM      9  S   UNL     1      35.634 -18.899 -22.211  0.00  0.00    +0.066 S 
ATOM     10  O   UNL     1      35.105 -19.767 -23.244  0.00  0.00    -0.152 OA
ATOM     11  O   UNL     1      37.062 -18.712 -22.042  0.00  0.00    -0.152 OA
BRANCH   9  14
ATOM     12  S   UNL     1      34.446 -17.118 -24.194  0.00  0.00    -0.066 S 
ATOM     13  N   UNL     1      34.215 -13.777 -22.214  0.00  0.00    -0.243 NA
ATOM     14  C   UNL     1      35.038 -17.257 -22.613  0.00  0.00    +0.153 C 
ATOM     15  C   UNL     1      34.974 -16.114 -21.892  0.00  0.00    +0.046 C 
ATOM     16  C   UNL     1      34.411 -15.049 -22.658  0.00  0.00    +0.089 C 
ATOM     17  C   UNL     1      34.073 -15.458 -23.948  0.00  0.00    +0.048 C 
ATOM     18  C   UNL     1      33.504 -14.544 -24.848  0.00  0.00    +0.010 C 
ATOM     19  C   UNL     1      33.302 -13.244 -24.400  0.00  0.00    +0.021 C 
ATOM     20  C   UNL     1      33.667 -12.926 -23.106  0.00  0.00    +0.099 C 
ENDBRANCH   9  14
ENDBRANCH   7   9
ENDBRANCH   3   7
BRANCH   2  21
ATOM     21  C   UNL     1      32.782 -22.498 -17.786  0.00  0.00    +0.135 C 
BRANCH  21  24
ATOM     22  N   UNL     1      32.594 -23.381 -15.476  0.00  0.00    -0.313 N 
ATOM     23  N   UNL     1      34.017 -24.467 -12.249  0.00  0.00    -0.241 NA
ATOM     24  C   UNL     1      33.387 -22.934 -16.481  0.00  0.00    +0.046 C 
ATOM     25  C   UNL     1      34.687 -22.964 -16.091  0.00  0.00    +0.013 C 
ATOM     26  C   UNL     1      34.706 -23.463 -14.758  0.00  0.00    +0.017 C 
ATOM     27  C   UNL     1      33.381 -23.716 -14.399  0.00  0.00    +0.068 C 
ATOM     28  C   UNL     1      35.716 -23.724 -13.823  0.00  0.00    +0.022 C 
ATOM     29  C   UNL     1      33.038 -24.216 -13.149  0.00  0.00    +0.113 C 
ATOM     30  C   UNL     1      35.301 -24.221 -12.595  0.00  0.00    +0.099 C 
ATOM     31  H   UNL     1      31.613 -23.454 -15.512  0.00  0.00    +0.152 HD
ENDBRANCH  21  24
ENDBRANCH   2  21
TORSDOF 5
ENDMDL
MODEL 5
REMARK VINA RESULT:     -10.6      1.860      2.267
REMARK  Name = 445481
REMARK  5 active torsions:
REMARK  status: ('A' for Active; 'I' for Inactive)
REMARK    1  A    between atoms: N_2  and  C_21
REMARK    2  A    between atoms: C_3  and  N_7
REMARK    3  A    between atoms: N_7  and  S_9
REMARK    4  A    between atoms: S_9  and  C_14
REMARK    5  A    between atoms: C_21  and  C_24
REMARK                            x       y       z     vdW  Elec       q    Type
REMARK                         _______ _______ _______ _____ _____    ______ ____
ROOT
ATOM      1  O   UNL     1      36.423 -20.357 -19.682  0.00  0.00    -0.273 OA
ATOM      2  N   UNL     1      35.142 -19.271 -21.330  0.00  0.00    -0.273 N 
ATOM      3  C   UNL     1      34.158 -21.061 -20.210  0.00  0.00    +0.153 C 
ATOM      4  C   UNL     1      33.075 -20.214 -20.869  0.00  0.00    +0.048 C 
ATOM      5  C   UNL     1      33.832 -19.421 -21.916  0.00  0.00    +0.096 C 
ATOM      6  C   UNL     1      35.397 -20.209 -20.329  0.00  0.00    +0.242 C 
ENDROOT
BRANCH   3   7
ATOM      7  N   UNL     1      33.859 -21.293 -18.792  0.00  0.00    -0.171 NA
ATOM      8  H   UNL     1      34.347 -20.573 -18.259  0.00  0.00    +0.149 HD
BRANCH   7   9
ATOM      9  S   UNL     1      34.287 -22.807 -18.113  0.00  0.00    +0.066 S 
ATOM     10  O   UNL     1      35.590 -22.698 -17.487  0.00  0.00    -0.152 OA
ATOM     11  O   UNL     1      33.997 -23.857 -19.071  0.00  0.00    -0.152 OA
BRANCH   9  14
ATOM     12  S   UNL     1      33.862 -23.821 -15.409  0.00  0.00    -0.066 S 
ATOM     13  N   UNL     1      30.038 -23.270 -14.953  0.00  0.00    -0.243 NA
ATOM     14  C   UNL     1      33.139 -23.128 -16.775  0.00  0.00    +0.153 C 
ATOM     15  C   UNL     1      31.807 -22.921 -16.654  0.00  0.00    +0.046 C 
ATOM     16  C   UNL     1      31.329 -23.346 -15.378  0.00  0.00    +0.089 C 
ATOM     17  C   UNL     1      32.354 -23.865 -14.585  0.00  0.00    +0.048 C 
ATOM     18  C   UNL     1      32.074 -24.334 -13.293  0.00  0.00    +0.010 C 
ATOM     19  C   UNL     1      30.757 -24.258 -12.855  0.00  0.00    +0.021 C 
ATOM     20  C   UNL     1      29.806 -23.730 -13.707  0.00  0.00    +0.099 C 
ENDBRANCH   9  14
ENDBRANCH   7   9
ENDBRANCH   3   7
BRANCH   2  21
ATOM     21  C   UNL     1      36.099 -18.317 -21.847  0.00  0.00    +0.135 C 
BRANCH  21  24
ATOM     22  N   UNL     1      35.106 -17.152 -23.799  0.00  0.00    -0.313 N 
ATOM     23  N   UNL     1      33.373 -14.310 -25.395  0.00  0.00    -0.241 NA
ATOM     24  C   UNL     1      35.392 -17.147 -22.474  0.00  0.00    +0.046 C 
ATOM     25  C   UNL     1      34.953 -15.993 -21.910  0.00  0.00    +0.013 C 
ATOM     26  C   UNL     1      34.354 -15.228 -22.951  0.00  0.00    +0.017 C 
ATOM     27  C   UNL     1      34.464 -15.979 -24.122  0.00  0.00    +0.068 C 
ATOM     28  C   UNL     1      33.730 -13.975 -23.012  0.00  0.00    +0.022 C 
ATOM     29  C   UNL     1      33.976 -15.522 -25.340  0.00  0.00    +0.113 C 
ATOM     30  C   UNL     1      33.266 -13.582 -24.261  0.00  0.00    +0.099 C 
ATOM     31  H   UNL     1      35.323 -17.877 -24.428  0.00  0.00    +0.152 HD
ENDBRANCH  21  24
ENDBRANCH   2  21
TORSDOF 5
ENDMDL
MODEL 6
REMARK VINA RESULT:     -10.4      1.810      2.326
REMARK  Name = 445481
REMARK  5 active torsions:
REMARK  status: ('A' for Active; 'I' for Inactive)
REMARK    1  A    between atoms: N_2  and  C_21
REMARK    2  A    between atoms: C_3  and  N_7
REMARK    3  A    between atoms: N_7  and  S_9
REMARK    4  A    between atoms: S_9  and  C_14
REMARK    5  A    between atoms: C_21  and  C_24
REMARK                            x       y       z     vdW  Elec       q    Type
REMARK                         _______ _______ _______ _____ _____    ______ ____
ROOT
ATOM      1  O   UNL     1      37.193 -19.037 -20.218  0.00  0.00    -0.273 OA
ATOM      2  N   UNL     1      35.550 -18.525 -21.823  0.00  0.00    -0.273 N 
ATOM      3  C   UNL     1      35.271 -20.478 -20.582  0.00  0.00    +0.153 C 
ATOM      4  C   UNL     1      33.938 -20.073 -21.204  0.00  0.00    +0.048 C 
ATOM      5  C   UNL     1      34.339 -19.132 -22.323  0.00  0.00    +0.096 C 
ATOM      6  C   UNL     1      36.148 -19.272 -20.807  0.00  0.00    +0.242 C 
ENDROOT
BRANCH   3   7
ATOM      7  N   UNL     1      35.131 -20.719 -19.142  0.00  0.00    -0.171 NA
ATOM      8  H   UNL     1      36.072 -20.777 -18.752  0.00  0.00    +0.149 HD
BRANCH   7   9
ATOM      9  S   UNL     1      34.283 -22.120 -18.636  0.00  0.00    +0.066 S 
ATOM     10  O   UNL     1      34.637 -23.231 -19.498  0.00  0.00    -0.152 OA
ATOM     11  O   UNL     1      32.897 -21.773 -18.387  0.00  0.00    -0.152 OA
BRANCH   9  14
ATOM     12  S   UNL     1      33.772 -23.354 -16.040  0.00  0.00    -0.066 S 
ATOM     13  N   UNL     1      37.191 -22.863 -14.250  0.00  0.00    -0.243 NA
ATOM     14  C   UNL     1      34.906 -22.557 -17.013  0.00  0.00    +0.153 C 
ATOM     15  C   UNL     1      36.109 -22.367 -16.424  0.00  0.00    +0.046 C 
ATOM     16  C   UNL     1      36.127 -22.898 -15.099  0.00  0.00    +0.089 C 
ATOM     17  C   UNL     1      34.904 -23.473 -14.752  0.00  0.00    +0.048 C 
ATOM     18  C   UNL     1      34.733 -24.048 -13.484  0.00  0.00    +0.010 C 
ATOM     19  C   UNL     1      35.815 -24.015 -12.613  0.00  0.00    +0.021 C 
ATOM     20  C   UNL     1      36.990 -23.425 -13.040  0.00  0.00    +0.099 C 
ENDBRANCH   9  14
ENDBRANCH   7   9
ENDBRANCH   3   7
BRANCH   2  21
ATOM     21  C   UNL     1      36.110 -17.338 -22.430  0.00  0.00    +0.135 C 
BRANCH  21  24
ATOM     22  N   UNL     1      34.676 -15.813 -21.100  0.00  0.00    -0.313 N 
ATOM     23  N   UNL     1      32.325 -12.990 -20.746  0.00  0.00    -0.241 NA
ATOM     24  C   UNL     1      35.153 -16.184 -22.313  0.00  0.00    +0.046 C 
ATOM     25  C   UNL     1      34.637 -15.380 -23.278  0.00  0.00    +0.013 C 
ATOM     26  C   UNL     1      33.783 -14.448 -22.624  0.00  0.00    +0.017 C 
ATOM     27  C   UNL     1      33.827 -14.743 -21.260  0.00  0.00    +0.068 C 
ATOM     28  C   UNL     1      32.979 -13.384 -23.056  0.00  0.00    +0.022 C 
ATOM     29  C   UNL     1      33.100 -14.017 -20.326  0.00  0.00    +0.113 C 
ATOM     30  C   UNL     1      32.281 -12.703 -22.067  0.00  0.00    +0.099 C 
ATOM     31  H   UNL     1      34.899 -16.242 -20.243  0.00  0.00    +0.152 HD
ENDBRANCH  21  24
ENDBRANCH   2  21
TORSDOF 5
ENDMDL
MODEL 7
REMARK VINA RESULT:     -10.1      3.806      6.437
REMARK  Name = 445481
REMARK  5 active torsions:
REMARK  status: ('A' for Active; 'I' for Inactive)
REMARK    1  A    between atoms: N_2  and  C_21
REMARK    2  A    between atoms: C_3  and  N_7
REMARK    3  A    between atoms: N_7  and  S_9
REMARK    4  A    between atoms: S_9  and  C_14
REMARK    5  A    between atoms: C_21  and  C_24
REMARK                            x       y       z     vdW  Elec       q    Type
REMARK                         _______ _______ _______ _____ _____    ______ ____
ROOT
ATOM      1  O   UNL     1      33.936 -14.323 -20.703  0.00  0.00    -0.273 OA
ATOM      2  N   UNL     1      33.206 -14.135 -22.932  0.00  0.00    -0.273 N 
ATOM      3  C   UNL     1      34.912 -15.658 -22.484  0.00  0.00    +0.153 C 
ATOM      4  C   UNL     1      34.265 -15.996 -23.823  0.00  0.00    +0.048 C 
ATOM      5  C   UNL     1      33.555 -14.712 -24.208  0.00  0.00    +0.096 C 
ATOM      6  C   UNL     1      33.973 -14.642 -21.883  0.00  0.00    +0.242 C 
ENDROOT
BRANCH   3   7
ATOM      7  N   UNL     1      34.976 -16.839 -21.615  0.00  0.00    -0.171 NA
ATOM      8  H   UNL     1      35.812 -16.745 -21.039  0.00  0.00    +0.149 HD
BRANCH   7   9
ATOM      9  S   UNL     1      35.038 -18.384 -22.355  0.00  0.00    +0.066 S 
ATOM     10  O   UNL     1      36.402 -18.668 -22.753  0.00  0.00    -0.152 OA
ATOM     11  O   UNL     1      33.938 -18.506 -23.294  0.00  0.00    -0.152 OA
BRANCH   9  14
ATOM     12  S   UNL     1      36.009 -20.210 -20.297  0.00  0.00    -0.066 S 
ATOM     13  N   UNL     1      32.687 -21.730 -18.960  0.00  0.00    -0.243 NA
ATOM     14  C   UNL     1      34.647 -19.591 -21.089  0.00  0.00    +0.153 C 
ATOM     15  C   UNL     1      33.471 -20.096 -20.651  0.00  0.00    +0.046 C 
ATOM     16  C   UNL     1      33.672 -21.048 -19.606  0.00  0.00    +0.089 C 
ATOM     17  C   UNL     1      35.025 -21.213 -19.306  0.00  0.00    +0.048 C 
ATOM     18  C   UNL     1      35.417 -22.110 -18.303  0.00  0.00    +0.010 C 
ATOM     19  C   UNL     1      34.416 -22.809 -17.640  0.00  0.00    +0.021 C 
ATOM     20  C   UNL     1      33.101 -22.584 -18.002  0.00  0.00    +0.099 C 
ENDBRANCH   9  14
ENDBRANCH   7   9
ENDBRANCH   3   7
BRANCH   2  21
ATOM     21  C   UNL     1      32.247 -13.057 -22.824  0.00  0.00    +0.135 C 
BRANCH  21  24
ATOM     22  N   UNL     1      32.419 -10.613 -22.440  0.00  0.00    -0.313 N 
ATOM     23  N   UNL     1      34.030  -7.322 -22.890  0.00  0.00    -0.241 NA
ATOM     24  C   UNL     1      32.922 -11.728 -23.023  0.00  0.00    +0.046 C 
ATOM     25  C   UNL     1      34.033 -11.415 -23.738  0.00  0.00    +0.013 C 
ATOM     26  C   UNL     1      34.236 -10.014 -23.591  0.00  0.00    +0.017 C 
ATOM     27  C   UNL     1      33.210  -9.538 -22.773  0.00  0.00    +0.068 C 
ATOM     28  C   UNL     1      35.189  -9.105 -24.071  0.00  0.00    +0.022 C 
ATOM     29  C   UNL     1      33.108  -8.197 -22.424  0.00  0.00    +0.113 C 
ATOM     30  C   UNL     1      35.024  -7.782 -23.683  0.00  0.00    +0.099 C 
ATOM     31  H   UNL     1      31.617 -10.578 -21.872  0.00  0.00    +0.152 HD
ENDBRANCH  21  24
ENDBRANCH   2  21
TORSDOF 5
ENDMDL
MODEL 8
REMARK VINA RESULT:     -10.1      2.112      2.960
REMARK  Name = 445481
REMARK  5 active torsions:
REMARK  status: ('A' for Active; 'I' for Inactive)
REMARK    1  A    between atoms: N_2  and  C_21
REMARK    2  A    between atoms: C_3  and  N_7
REMARK    3  A    between atoms: N_7  and  S_9
REMARK    4  A    between atoms: S_9  and  C_14
REMARK    5  A    between atoms: C_21  and  C_24
REMARK                            x       y       z     vdW  Elec       q    Type
REMARK                         _______ _______ _______ _____ _____    ______ ____
ROOT
ATOM      1  O   UNL     1      36.614 -18.481 -20.249  0.00  0.00    -0.273 OA
ATOM      2  N   UNL     1      35.242 -18.059 -22.113  0.00  0.00    -0.273 N 
ATOM      3  C   UNL     1      34.987 -20.108 -21.032  0.00  0.00    +0.153 C 
ATOM      4  C   UNL     1      33.751 -19.819 -21.878  0.00  0.00    +0.048 C 
ATOM      5  C   UNL     1      34.229 -18.767 -22.859  0.00  0.00    +0.096 C 
ATOM      6  C   UNL     1      35.732 -18.796 -21.035  0.00  0.00    +0.242 C 
ENDROOT
BRANCH   3   7
ATOM      7  N   UNL     1      34.617 -20.457 -19.656  0.00  0.00    -0.171 NA
ATOM      8  H   UNL     1      34.802 -19.638 -19.076  0.00  0.00    +0.149 HD
BRANCH   7   9
ATOM      9  S   UNL     1      35.404 -21.790 -18.921  0.00  0.00    +0.066 S 
ATOM     10  O   UNL     1      36.570 -21.318 -18.201  0.00  0.00    -0.152 OA
ATOM     11  O   UNL     1      35.499 -22.874 -19.880  0.00  0.00    -0.152 OA
BRANCH   9  14
ATOM     12  S   UNL     1      35.077 -22.889 -16.237  0.00  0.00    -0.066 S 
ATOM     13  N   UNL     1      31.233 -23.467 -16.085  0.00  0.00    -0.243 NA
ATOM     14  C   UNL     1      34.295 -22.432 -17.668  0.00  0.00    +0.153 C 
ATOM     15  C   UNL     1      32.955 -22.618 -17.653  0.00  0.00    +0.046 C 
ATOM     16  C   UNL     1      32.521 -23.166 -16.409  0.00  0.00    +0.089 C 
ATOM     17  C   UNL     1      33.586 -23.368 -15.530  0.00  0.00    +0.048 C 
ATOM     18  C   UNL     1      33.351 -23.901 -14.254  0.00  0.00    +0.010 C 
ATOM     19  C   UNL     1      32.039 -24.210 -13.918  0.00  0.00    +0.021 C 
ATOM     20  C   UNL     1      31.046 -23.977 -14.851  0.00  0.00    +0.099 C 
ENDBRANCH   9  14
ENDBRANCH   7   9
ENDBRANCH   3   7
BRANCH   2  21
ATOM     21  C   UNL     1      35.750 -16.778 -22.552  0.00  0.00    +0.135 C 
BRANCH  21  24
ATOM     22  N   UNL     1      34.489 -14.689 -23.000  0.00  0.00    -0.313 N 
ATOM     23  N   UNL     1      32.227 -11.943 -22.016  0.00  0.00    -0.241 NA
ATOM     24  C   UNL     1      34.826 -15.670 -22.127  0.00  0.00    +0.046 C 
ATOM     25  C   UNL     1      34.219 -15.454 -20.932  0.00  0.00    +0.013 C 
ATOM     26  C   UNL     1      33.454 -14.262 -21.069  0.00  0.00    +0.017 C 
ATOM     27  C   UNL     1      33.642 -13.804 -22.374  0.00  0.00    +0.068 C 
ATOM     28  C   UNL     1      32.621 -13.527 -20.213  0.00  0.00    +0.022 C 
ATOM     29  C   UNL     1      33.031 -12.650 -22.846  0.00  0.00    +0.113 C 
ATOM     30  C   UNL     1      32.045 -12.384 -20.751  0.00  0.00    +0.099 C 
ATOM     31  H   UNL     1      34.801 -14.620 -23.930  0.00  0.00    +0.152 HD
ENDBRANCH  21  24
ENDBRANCH   2  21
TORSDOF 5
ENDMDL
MODEL 9
REMARK VINA RESULT:     -10.1      2.477     10.525
REMARK  Name = 445481
REMARK  5 active torsions:
REMARK  status: ('A' for Active; 'I' for Inactive)
REMARK    1  A    between atoms: N_2  and  C_21
REMARK    2  A    between atoms: C_3  and  N_7
REMARK    3  A    between atoms: N_7  and  S_9
REMARK    4  A    between atoms: S_9  and  C_14
REMARK    5  A    between atoms: C_21  and  C_24
REMARK                            x       y       z     vdW  Elec       q    Type
REMARK                         _______ _______ _______ _____ _____    ______ ____
ROOT
ATOM      1  O   UNL     1      32.815 -21.183 -19.690  0.00  0.00    -0.273 OA
ATOM      2  N   UNL     1      34.510 -21.965 -18.258  0.00  0.00    -0.273 N 
ATOM      3  C   UNL     1      35.169 -20.872 -20.208  0.00  0.00    +0.153 C 
ATOM      4  C   UNL     1      36.325 -20.884 -19.214  0.00  0.00    +0.048 C 
ATOM      5  C   UNL     1      35.953 -21.993 -18.249  0.00  0.00    +0.096 C 
ATOM      6  C   UNL     1      33.990 -21.328 -19.385  0.00  0.00    +0.242 C 
ENDROOT
BRANCH   3   7
ATOM      7  N   UNL     1      34.918 -19.517 -20.710  0.00  0.00    -0.171 NA
ATOM      8  H   UNL     1      33.908 -19.410 -20.802  0.00  0.00    +0.149 HD
BRANCH   7   9
ATOM      9  S   UNL     1      35.616 -19.070 -22.212  0.00  0.00    +0.066 S 
ATOM     10  O   UNL     1      35.096 -19.932 -23.255  0.00  0.00    -0.152 OA
ATOM     11  O   UNL     1      37.042 -18.877 -22.034  0.00  0.00    -0.152 OA
BRANCH   9  14
ATOM     12  S   UNL     1      34.917 -16.400 -21.262  0.00  0.00    -0.066 S 
ATOM     13  N   UNL     1      33.772 -14.668 -24.552  0.00  0.00    -0.243 NA
ATOM     14  C   UNL     1      35.013 -17.428 -22.604  0.00  0.00    +0.153 C 
ATOM     15  C   UNL     1      34.623 -16.860 -23.769  0.00  0.00    +0.046 C 
ATOM     16  C   UNL     1      34.217 -15.505 -23.575  0.00  0.00    +0.089 C 
ATOM     17  C   UNL     1      34.327 -15.115 -22.240  0.00  0.00    +0.048 C 
ATOM     18  C   UNL     1      33.972 -13.813 -21.857  0.00  0.00    +0.010 C 
ATOM     19  C   UNL     1      33.517 -12.954 -22.850  0.00  0.00    +0.021 C 
ATOM     20  C   UNL     1      33.440 -13.425 -24.148  0.00  0.00    +0.099 C 
ENDBRANCH   9  14
ENDBRANCH   7   9
ENDBRANCH   3   7
BRANCH   2  21
ATOM     21  C   UNL     1      33.732 -22.649 -17.248  0.00  0.00    +0.135 C 
BRANCH  21  24
ATOM     22  N   UNL     1      34.772 -24.428 -15.869  0.00  0.00    -0.313 N 
ATOM     23  N   UNL     1      36.928 -25.613 -13.117  0.00  0.00    -0.241 NA
ATOM     24  C   UNL     1      34.616 -23.106 -16.121  0.00  0.00    +0.046 C 
ATOM     25  C   UNL     1      35.345 -22.377 -15.237  0.00  0.00    +0.013 C 
ATOM     26  C   UNL     1      35.999 -23.306 -14.379  0.00  0.00    +0.017 C 
ATOM     27  C   UNL     1      35.621 -24.583 -14.798  0.00  0.00    +0.068 C 
ATOM     28  C   UNL     1      36.872 -23.187 -13.289  0.00  0.00    +0.022 C 
ATOM     29  C   UNL     1      36.084 -25.732 -14.169  0.00  0.00    +0.113 C 
ATOM     30  C   UNL     1      37.294 -24.377 -12.710  0.00  0.00    +0.099 C 
ATOM     31  H   UNL     1      34.345 -25.160 -16.370  0.00  0.00    +0.152 HD
ENDBRANCH  21  24
ENDBRANCH   2  21
TORSDOF 5
ENDMDL
