MODEL 1
REMARK VINA RESULT:     -12.4      0.000      0.000
REMARK  Name = 5288710
REMARK  3 active torsions:
REMARK  status: ('A' for Active; 'I' for Inactive)
REMARK    1  A    between atoms: C_6  and  N_18
REMARK    2  A    between atoms: C_9  and  C_15
REMARK    3  A    between atoms: N_18  and  C_29
REMARK                            x       y       z     vdW  Elec       q    Type
REMARK                         _______ _______ _______ _____ _____    ______ ____
ROOT
ATOM      1  O   UNL     1      34.932 -23.916 -15.720  0.00  0.00    -0.270 OA
ATOM      2  N   UNL     1      32.968 -24.073 -14.417  0.00  0.00    -0.280 N 
ATOM      3  C   UNL     1      31.441 -23.155 -15.870  0.00  0.00    +0.019 C 
ATOM      4  C   UNL     1      32.757 -23.152 -16.500  0.00  0.00    +0.069 C 
ATOM      5  C   UNL     1      31.626 -23.726 -14.608  0.00  0.00    +0.051 C 
ATOM      6  C   UNL     1      33.099 -22.707 -17.713  0.00  0.00    +0.066 C 
ATOM      7  C   UNL     1      33.739 -23.754 -15.538  0.00  0.00    +0.251 C 
ATOM      8  C   UNL     1      30.189 -22.735 -16.278  0.00  0.00    +0.005 C 
ATOM      9  C   UNL     1      29.123 -22.898 -15.388  0.00  0.00    +0.036 C 
ATOM     10  C   UNL     1      30.588 -23.897 -13.713  0.00  0.00    +0.015 C 
ATOM     11  C   UNL     1      29.320 -23.473 -14.118  0.00  0.00    +0.004 C 
ATOM     12  H   UNL     1      33.323 -24.490 -13.598  0.00  0.00    +0.155 HD
ENDROOT
BRANCH   9  15
ATOM     13  O   UNL     1      27.662 -22.052 -17.059  0.00  0.00    -0.431 OA
ATOM     14  N   UNL     1      25.654 -21.889 -16.031  0.00  0.00    -0.203 NA
ATOM     15  C   UNL     1      27.800 -22.469 -15.775  0.00  0.00    +0.166 C 
ATOM     16  C   UNL     1      26.590 -22.372 -15.152  0.00  0.00    +0.140 C 
ATOM     17  C   UNL     1      26.344 -21.720 -17.136  0.00  0.00    +0.285 C 
ENDBRANCH   9  15
BRANCH   6  18
ATOM     18  N   UNL     1      34.323 -22.711 -18.283  0.00  0.00    -0.311 N 
ATOM     19  H   UNL     1      34.858 -23.525 -18.140  0.00  0.00    +0.152 HD
BRANCH  18  29
ATOM     20  S   UNL     1      35.341 -18.127 -22.420  0.00  0.00    -0.002 S 
ATOM     21  O   UNL     1      35.529 -18.669 -23.752  0.00  0.00    -0.172 OA
ATOM     22  O   UNL     1      35.102 -16.715 -22.201  0.00  0.00    -0.172 OA
ATOM     23  C   UNL     1      34.036 -19.051 -21.626  0.00  0.00    +0.177 C 
ATOM     24  C   UNL     1      36.733 -18.625 -21.418  0.00  0.00    +0.177 C 
ATOM     25  C   UNL     1      34.782 -19.934 -20.686  0.00  0.00    +0.000 C 
ATOM     26  C   UNL     1      36.161 -19.717 -20.579  0.00  0.00    -0.001 C 
ATOM     27  C   UNL     1      34.168 -20.926 -19.923  0.00  0.00    +0.012 C 
ATOM     28  C   UNL     1      36.928 -20.491 -19.711  0.00  0.00    -0.002 C 
ATOM     29  C   UNL     1      34.936 -21.703 -19.056  0.00  0.00    +0.048 C 
ATOM     30  C   UNL     1      36.313 -21.486 -18.950  0.00  0.00    +0.014 C 
ENDBRANCH  18  29
ENDBRANCH   6  18
TORSDOF 3
ENDMDL
MODEL 2
REMARK VINA RESULT:     -11.8      2.131      3.221
REMARK  Name = 5288710
REMARK  3 active torsions:
REMARK  status: ('A' for Active; 'I' for Inactive)
REMARK    1  A    between atoms: C_6  and  N_18
REMARK    2  A    between atoms: C_9  and  C_15
REMARK    3  A    between atoms: N_18  and  C_29
REMARK                            x       y       z     vdW  Elec       q    Type
REMARK                         _______ _______ _______ _____ _____    ______ ____
ROOT
ATOM      1  O   UNL     1      36.981 -21.612 -18.459  0.00  0.00    -0.270 OA
ATOM      2  N   UNL     1      35.848 -22.557 -16.615  0.00  0.00    -0.280 N 
ATOM      3  C   UNL     1      33.679 -22.457 -17.375  0.00  0.00    +0.019 C 
ATOM      4  C   UNL     1      34.566 -21.906 -18.395  0.00  0.00    +0.069 C 
ATOM      5  C   UNL     1      34.510 -22.837 -16.316  0.00  0.00    +0.051 C 
ATOM      6  C   UNL     1      34.248 -21.406 -19.592  0.00  0.00    +0.066 C 
ATOM      7  C   UNL     1      35.974 -21.979 -17.881  0.00  0.00    +0.251 C 
ATOM      8  C   UNL     1      32.312 -22.641 -17.301  0.00  0.00    +0.005 C 
ATOM      9  C   UNL     1      31.792 -23.217 -16.137  0.00  0.00    +0.036 C 
ATOM     10  C   UNL     1      34.018 -23.408 -15.159  0.00  0.00    +0.015 C 
ATOM     11  C   UNL     1      32.636 -23.596 -15.076  0.00  0.00    +0.004 C 
ATOM     12  H   UNL     1      36.602 -22.743 -16.010  0.00  0.00    +0.155 HD
ENDROOT
BRANCH   9  15
ATOM     13  O   UNL     1      29.581 -22.518 -16.654  0.00  0.00    -0.431 OA
ATOM     14  N   UNL     1      28.251 -24.041 -15.639  0.00  0.00    -0.203 NA
ATOM     15  C   UNL     1      30.368 -23.424 -16.020  0.00  0.00    +0.166 C 
ATOM     16  C   UNL     1      29.569 -24.344 -15.407  0.00  0.00    +0.140 C 
ATOM     17  C   UNL     1      28.322 -22.957 -16.378  0.00  0.00    +0.285 C 
ENDBRANCH   9  15
BRANCH   6  18
ATOM     18  N   UNL     1      35.081 -20.898 -20.526  0.00  0.00    -0.311 N 
ATOM     19  H   UNL     1      35.826 -21.483 -20.796  0.00  0.00    +0.152 HD
BRANCH  18  29
ATOM     20  S   UNL     1      34.186 -16.367 -24.749  0.00  0.00    -0.002 S 
ATOM     21  O   UNL     1      35.283 -16.323 -25.697  0.00  0.00    -0.172 OA
ATOM     22  O   UNL     1      32.942 -15.667 -24.994  0.00  0.00    -0.172 OA
ATOM     23  C   UNL     1      33.813 -18.080 -24.413  0.00  0.00    +0.177 C 
ATOM     24  C   UNL     1      34.812 -15.862 -23.154  0.00  0.00    +0.177 C 
ATOM     25  C   UNL     1      34.410 -18.289 -23.063  0.00  0.00    +0.000 C 
ATOM     26  C   UNL     1      34.921 -17.156 -22.419  0.00  0.00    -0.001 C 
ATOM     27  C   UNL     1      34.459 -19.533 -22.437  0.00  0.00    +0.012 C 
ATOM     28  C   UNL     1      35.482 -17.264 -21.149  0.00  0.00    -0.002 C 
ATOM     29  C   UNL     1      35.025 -19.642 -21.166  0.00  0.00    +0.048 C 
ATOM     30  C   UNL     1      35.535 -18.511 -20.524  0.00  0.00    +0.014 C 
ENDBRANCH  18  29
ENDBRANCH   6  18
TORSDOF 3
ENDMDL
MODEL 3
REMARK VINA RESULT:     -11.4      3.525      8.945
REMARK  Name = 5288710
REMARK  3 active torsions:
REMARK  status: ('A' for Active; 'I' for Inactive)
REMARK    1  A    between atoms: C_6  and  N_18
REMARK    2  A    between atoms: C_9  and  C_15
REMARK    3  A    between atoms: N_18  and  C_29
REMARK                            x       y       z     vdW  Elec       q    Type
REMARK                         _______ _______ _______ _____ _____    ______ ____
ROOT
ATOM      1  O   UNL     1      36.244 -22.286 -17.582  0.00  0.00    -0.270 OA
ATOM      2  N   UNL     1      37.053 -20.540 -18.952  0.00  0.00    -0.280 N 
ATOM      3  C   UNL     1      35.301 -20.336 -20.428  0.00  0.00    +0.019 C 
ATOM      4  C   UNL     1      34.993 -21.392 -19.470  0.00  0.00    +0.069 C 
ATOM      5  C   UNL     1      36.562 -19.852 -20.068  0.00  0.00    +0.051 C 
ATOM      6  C   UNL     1      33.902 -22.159 -19.397  0.00  0.00    +0.066 C 
ATOM      7  C   UNL     1      36.147 -21.512 -18.516  0.00  0.00    +0.251 C 
ATOM      8  C   UNL     1      34.621 -19.801 -21.507  0.00  0.00    +0.005 C 
ATOM      9  C   UNL     1      35.237 -18.768 -22.219  0.00  0.00    +0.036 C 
ATOM     10  C   UNL     1      37.188 -18.832 -20.757  0.00  0.00    +0.015 C 
ATOM     11  C   UNL     1      36.507 -18.287 -21.849  0.00  0.00    +0.004 C 
ATOM     12  H   UNL     1      37.924 -20.362 -18.529  0.00  0.00    +0.155 HD
ENDROOT
BRANCH   9  15
ATOM     13  O   UNL     1      34.683 -16.838 -23.490  0.00  0.00    -0.431 OA
ATOM     14  N   UNL     1      33.410 -17.621 -25.188  0.00  0.00    -0.203 NA
ATOM     15  C   UNL     1      34.561 -18.184 -23.353  0.00  0.00    +0.166 C 
ATOM     16  C   UNL     1      33.794 -18.659 -24.377  0.00  0.00    +0.140 C 
ATOM     17  C   UNL     1      33.964 -16.577 -24.617  0.00  0.00    +0.285 C 
ENDBRANCH   9  15
BRANCH   6  18
ATOM     18  N   UNL     1      33.632 -23.134 -18.503  0.00  0.00    -0.311 N 
ATOM     19  H   UNL     1      34.050 -24.007 -18.685  0.00  0.00    +0.152 HD
BRANCH  18  29
ATOM     20  S   UNL     1      31.547 -23.689 -12.628  0.00  0.00    -0.002 S 
ATOM     21  O   UNL     1      31.038 -25.025 -12.387  0.00  0.00    -0.172 OA
ATOM     22  O   UNL     1      31.816 -22.771 -11.540  0.00  0.00    -0.172 OA
ATOM     23  C   UNL     1      33.023 -23.830 -13.625  0.00  0.00    +0.177 C 
ATOM     24  C   UNL     1      30.459 -22.882 -13.791  0.00  0.00    +0.177 C 
ATOM     25  C   UNL     1      32.548 -23.419 -14.976  0.00  0.00    +0.000 C 
ATOM     26  C   UNL     1      31.237 -22.934 -15.062  0.00  0.00    -0.001 C 
ATOM     27  C   UNL     1      33.347 -23.485 -16.116  0.00  0.00    +0.012 C 
ATOM     28  C   UNL     1      30.723 -22.514 -16.287  0.00  0.00    -0.002 C 
ATOM     29  C   UNL     1      32.830 -23.068 -17.344  0.00  0.00    +0.048 C 
ATOM     30  C   UNL     1      31.522 -22.584 -17.429  0.00  0.00    +0.014 C 
ENDBRANCH  18  29
ENDBRANCH   6  18
TORSDOF 3
ENDMDL
MODEL 4
REMARK VINA RESULT:     -11.4      7.100     11.267
REMARK  Name = 5288710
REMARK  3 active torsions:
REMARK  status: ('A' for Active; 'I' for Inactive)
REMARK    1  A    between atoms: C_6  and  N_18
REMARK    2  A    between atoms: C_9  and  C_15
REMARK    3  A    between atoms: N_18  and  C_29
REMARK                            x       y       z     vdW  Elec       q    Type
REMARK                         _______ _______ _______ _____ _____    ______ ____
ROOT
ATOM      1  O   UNL     1      33.025 -14.261 -25.916  0.00  0.00    -0.270 OA
ATOM      2  N   UNL     1      33.249 -16.590 -25.585  0.00  0.00    -0.280 N 
ATOM      3  C   UNL     1      34.372 -16.610 -23.579  0.00  0.00    +0.019 C 
ATOM      4  C   UNL     1      34.129 -15.226 -23.973  0.00  0.00    +0.069 C 
ATOM      5  C   UNL     1      33.817 -17.396 -24.593  0.00  0.00    +0.051 C 
ATOM      6  C   UNL     1      34.472 -14.105 -23.332  0.00  0.00    +0.066 C 
ATOM      7  C   UNL     1      33.397 -15.233 -25.283  0.00  0.00    +0.251 C 
ATOM      8  C   UNL     1      34.990 -17.195 -22.490  0.00  0.00    +0.005 C 
ATOM      9  C   UNL     1      35.041 -18.592 -22.440  0.00  0.00    +0.036 C 
ATOM     10  C   UNL     1      33.855 -18.776 -24.563  0.00  0.00    +0.015 C 
ATOM     11  C   UNL     1      34.479 -19.375 -23.466  0.00  0.00    +0.004 C 
ATOM     12  H   UNL     1      32.803 -16.934 -26.393  0.00  0.00    +0.155 HD
ENDROOT
BRANCH   9  15
ATOM     13  O   UNL     1      35.001 -20.281 -20.770  0.00  0.00    -0.431 OA
ATOM     14  N   UNL     1      36.938 -20.007 -19.636  0.00  0.00    -0.203 NA
ATOM     15  C   UNL     1      35.679 -19.242 -21.320  0.00  0.00    +0.166 C 
ATOM     16  C   UNL     1      36.849 -19.074 -20.638  0.00  0.00    +0.140 C 
ATOM     17  C   UNL     1      35.823 -20.688 -19.764  0.00  0.00    +0.285 C 
ENDBRANCH   9  15
BRANCH   6  18
ATOM     18  N   UNL     1      34.239 -12.830 -23.710  0.00  0.00    -0.311 N 
ATOM     19  H   UNL     1      34.666 -12.550 -24.552  0.00  0.00    +0.152 HD
BRANCH  18  29
ATOM     20  S   UNL     1      31.858  -7.348 -21.854  0.00  0.00    -0.002 S 
ATOM     21  O   UNL     1      32.710  -6.727 -20.859  0.00  0.00    -0.172 OA
ATOM     22  O   UNL     1      30.806  -6.608 -22.522  0.00  0.00    -0.172 OA
ATOM     23  C   UNL     1      32.905  -8.086 -23.098  0.00  0.00    +0.177 C 
ATOM     24  C   UNL     1      31.143  -8.816 -21.132  0.00  0.00    +0.177 C 
ATOM     25  C   UNL     1      32.835  -9.538 -22.768  0.00  0.00    +0.000 C 
ATOM     26  C   UNL     1      31.934  -9.912 -21.763  0.00  0.00    -0.001 C 
ATOM     27  C   UNL     1      33.600 -10.504 -23.418  0.00  0.00    +0.012 C 
ATOM     28  C   UNL     1      31.798 -11.252 -21.407  0.00  0.00    -0.002 C 
ATOM     29  C   UNL     1      33.466 -11.846 -23.058  0.00  0.00    +0.048 C 
ATOM     30  C   UNL     1      32.567 -12.218 -22.055  0.00  0.00    +0.014 C 
ENDBRANCH  18  29
ENDBRANCH   6  18
TORSDOF 3
ENDMDL
MODEL 5
REMARK VINA RESULT:     -11.2      3.399      5.758
REMARK  Name = 5288710
REMARK  3 active torsions:
REMARK  status: ('A' for Active; 'I' for Inactive)
REMARK    1  A    between atoms: C_6  and  N_18
REMARK    2  A    between atoms: C_9  and  C_15
REMARK    3  A    between atoms: N_18  and  C_29
REMARK                            x       y       z     vdW  Elec       q    Type
REMARK                         _______ _______ _______ _____ _____    ______ ____
ROOT
ATOM      1  O   UNL     1      32.567 -21.612 -20.177  0.00  0.00    -0.270 OA
ATOM      2  N   UNL     1      32.342 -22.390 -17.959  0.00  0.00    -0.280 N 
ATOM      3  C   UNL     1      34.552 -22.471 -17.329  0.00  0.00    +0.019 C 
ATOM      4  C   UNL     1      34.468 -22.001 -18.708  0.00  0.00    +0.069 C 
ATOM      5  C   UNL     1      33.233 -22.692 -16.923  0.00  0.00    +0.051 C 
ATOM      6  C   UNL     1      35.461 -21.657 -19.533  0.00  0.00    +0.066 C 
ATOM      7  C   UNL     1      33.020 -21.956 -19.101  0.00  0.00    +0.251 C 
ATOM      8  C   UNL     1      35.606 -22.703 -16.465  0.00  0.00    +0.005 C 
ATOM      9  C   UNL     1      35.307 -23.164 -15.180  0.00  0.00    +0.036 C 
ATOM     10  C   UNL     1      32.915 -23.146 -15.658  0.00  0.00    +0.015 C 
ATOM     11  C   UNL     1      33.975 -23.383 -14.779  0.00  0.00    +0.004 C 
ATOM     12  H   UNL     1      31.363 -22.474 -17.891  0.00  0.00    +0.155 HD
ENDROOT
BRANCH   9  15
ATOM     13  O   UNL     1      36.115 -23.140 -12.946  0.00  0.00    -0.431 OA
ATOM     14  N   UNL     1      38.229 -23.929 -13.096  0.00  0.00    -0.203 NA
ATOM     15  C   UNL     1      36.379 -23.420 -14.248  0.00  0.00    +0.166 C 
ATOM     16  C   UNL     1      37.654 -23.896 -14.341  0.00  0.00    +0.140 C 
ATOM     17  C   UNL     1      37.276 -23.473 -12.317  0.00  0.00    +0.285 C 
ENDBRANCH   9  15
BRANCH   6  18
ATOM     18  N   UNL     1      35.367 -21.224 -20.809  0.00  0.00    -0.311 N 
ATOM     19  H   UNL     1      35.375 -21.926 -21.500  0.00  0.00    +0.152 HD
BRANCH  18  29
ATOM     20  S   UNL     1      34.280 -16.229 -24.420  0.00  0.00    -0.002 S 
ATOM     21  O   UNL     1      35.373 -16.018 -25.348  0.00  0.00    -0.172 OA
ATOM     22  O   UNL     1      33.007 -15.557 -24.580  0.00  0.00    -0.172 OA
ATOM     23  C   UNL     1      33.979 -17.986 -24.309  0.00  0.00    +0.177 C 
ATOM     24  C   UNL     1      34.883 -15.908 -22.770  0.00  0.00    +0.177 C 
ATOM     25  C   UNL     1      34.585 -18.341 -22.994  0.00  0.00    +0.000 C 
ATOM     26  C   UNL     1      35.047 -17.280 -22.207  0.00  0.00    -0.001 C 
ATOM     27  C   UNL     1      34.687 -19.652 -22.532  0.00  0.00    +0.012 C 
ATOM     28  C   UNL     1      35.613 -17.526 -20.958  0.00  0.00    -0.002 C 
ATOM     29  C   UNL     1      35.257 -19.900 -21.283  0.00  0.00    +0.048 C 
ATOM     30  C   UNL     1      35.718 -18.840 -20.498  0.00  0.00    +0.014 C 
ENDBRANCH  18  29
ENDBRANCH   6  18
TORSDOF 3
ENDMDL
MODEL 6
REMARK VINA RESULT:     -11.0      7.990     12.299
REMARK  Name = 5288710
REMARK  3 active torsions:
REMARK  status: ('A' for Active; 'I' for Inactive)
REMARK    1  A    between atoms: C_6  and  N_18
REMARK    2  A    between atoms: C_9  and  C_15
REMARK    3  A    between atoms: N_18  and  C_29
REMARK                            x       y       z     vdW  Elec       q    Type
REMARK                         _______ _______ _______ _____ _____    ______ ____
ROOT
ATOM      1  O   UNL     1      32.404 -13.128 -26.571  0.00  0.00    -0.270 OA
ATOM      2  N   UNL     1      32.645 -15.436 -26.126  0.00  0.00    -0.280 N 
ATOM      3  C   UNL     1      34.047 -15.355 -24.306  0.00  0.00    +0.019 C 
ATOM      4  C   UNL     1      33.766 -13.993 -24.749  0.00  0.00    +0.069 C 
ATOM      5  C   UNL     1      33.341 -16.190 -25.176  0.00  0.00    +0.051 C 
ATOM      6  C   UNL     1      34.211 -12.842 -24.238  0.00  0.00    +0.066 C 
ATOM      7  C   UNL     1      32.851 -14.066 -25.937  0.00  0.00    +0.251 C 
ATOM      8  C   UNL     1      34.810 -15.884 -23.281  0.00  0.00    +0.005 C 
ATOM      9  C   UNL     1      34.850 -17.275 -23.149  0.00  0.00    +0.036 C 
ATOM     10  C   UNL     1      33.366 -17.567 -25.062  0.00  0.00    +0.015 C 
ATOM     11  C   UNL     1      34.135 -18.109 -24.030  0.00  0.00    +0.004 C 
ATOM     12  H   UNL     1      32.082 -15.820 -26.837  0.00  0.00    +0.155 HD
ENDROOT
BRANCH   9  15
ATOM     13  O   UNL     1      36.707 -18.602 -22.489  0.00  0.00    -0.431 OA
ATOM     14  N   UNL     1      36.616 -18.624 -20.229  0.00  0.00    -0.203 NA
ATOM     15  C   UNL     1      35.636 -17.867 -22.093  0.00  0.00    +0.166 C 
ATOM     16  C   UNL     1      35.579 -17.879 -20.730  0.00  0.00    +0.140 C 
ATOM     17  C   UNL     1      37.245 -19.022 -21.311  0.00  0.00    +0.285 C 
ENDBRANCH   9  15
BRANCH   6  18
ATOM     18  N   UNL     1      33.942 -11.588 -24.661  0.00  0.00    -0.311 N 
ATOM     19  H   UNL     1      33.783 -11.488 -25.627  0.00  0.00    +0.152 HD
BRANCH  18  29
ATOM     20  S   UNL     1      32.023  -7.143 -20.695  0.00  0.00    -0.002 S 
ATOM     21  O   UNL     1      30.994  -6.321 -21.302  0.00  0.00    -0.172 OA
ATOM     22  O   UNL     1      32.284  -7.104 -19.270  0.00  0.00    -0.172 OA
ATOM     23  C   UNL     1      31.728  -8.840 -21.168  0.00  0.00    +0.177 C 
ATOM     24  C   UNL     1      33.557  -6.839 -21.557  0.00  0.00    +0.177 C 
ATOM     25  C   UNL     1      32.768  -9.077 -22.209  0.00  0.00    +0.000 C 
ATOM     26  C   UNL     1      33.703  -8.055 -22.408  0.00  0.00    -0.001 C 
ATOM     27  C   UNL     1      32.845 -10.253 -22.953  0.00  0.00    +0.012 C 
ATOM     28  C   UNL     1      34.717  -8.205 -23.352  0.00  0.00    -0.002 C 
ATOM     29  C   UNL     1      33.858 -10.402 -23.901  0.00  0.00    +0.048 C 
ATOM     30  C   UNL     1      34.792  -9.381 -24.100  0.00  0.00    +0.014 C 
ENDBRANCH  18  29
ENDBRANCH   6  18
TORSDOF 3
ENDMDL
MODEL 7
REMARK VINA RESULT:     -10.9      3.427      6.832
REMARK  Name = 5288710
REMARK  3 active torsions:
REMARK  status: ('A' for Active; 'I' for Inactive)
REMARK    1  A    between atoms: C_6  and  N_18
REMARK    2  A    between atoms: C_9  and  C_15
REMARK    3  A    between atoms: N_18  and  C_29
REMARK                            x       y       z     vdW  Elec       q    Type
REMARK                         _______ _______ _______ _____ _____    ______ ____
ROOT
ATOM      1  O   UNL     1      32.076 -22.822 -15.104  0.00  0.00    -0.270 OA
ATOM      2  N   UNL     1      33.487 -23.692 -13.422  0.00  0.00    -0.280 N 
ATOM      3  C   UNL     1      35.402 -24.053 -14.643  0.00  0.00    +0.019 C 
ATOM      4  C   UNL     1      34.376 -23.502 -15.521  0.00  0.00    +0.069 C 
ATOM      5  C   UNL     1      34.809 -24.148 -13.380  0.00  0.00    +0.051 C 
ATOM      6  C   UNL     1      34.456 -23.226 -16.826  0.00  0.00    +0.066 C 
ATOM      7  C   UNL     1      33.135 -23.274 -14.708  0.00  0.00    +0.251 C 
ATOM      8  C   UNL     1      36.712 -24.448 -14.840  0.00  0.00    +0.005 C 
ATOM      9  C   UNL     1      37.417 -24.943 -13.738  0.00  0.00    +0.036 C 
ATOM     10  C   UNL     1      35.488 -24.633 -12.279  0.00  0.00    +0.015 C 
ATOM     11  C   UNL     1      36.812 -25.035 -12.470  0.00  0.00    +0.004 C 
ATOM     12  H   UNL     1      32.883 -23.670 -12.645  0.00  0.00    +0.155 HD
ENDROOT
BRANCH   9  15
ATOM     13  O   UNL     1      39.213 -26.341 -13.056  0.00  0.00    -0.431 OA
ATOM     14  N   UNL     1      40.922 -25.781 -14.429  0.00  0.00    -0.203 NA
ATOM     15  C   UNL     1      38.787 -25.368 -13.902  0.00  0.00    +0.166 C 
ATOM     16  C   UNL     1      39.816 -25.029 -14.732  0.00  0.00    +0.140 C 
ATOM     17  C   UNL     1      40.506 -26.534 -13.436  0.00  0.00    +0.285 C 
ENDBRANCH   9  15
BRANCH   6  18
ATOM     18  N   UNL     1      33.496 -22.715 -17.626  0.00  0.00    -0.311 N 
ATOM     19  H   UNL     1      32.578 -23.016 -17.437  0.00  0.00    +0.152 HD
BRANCH  18  29
ATOM     20  S   UNL     1      35.874 -18.735 -21.831  0.00  0.00    -0.002 S 
ATOM     21  O   UNL     1      36.045 -17.417 -21.252  0.00  0.00    -0.172 OA
ATOM     22  O   UNL     1      36.491 -19.097 -23.091  0.00  0.00    -0.172 OA
ATOM     23  C   UNL     1      36.345 -19.944 -20.604  0.00  0.00    +0.177 C 
ATOM     24  C   UNL     1      34.123 -19.068 -21.944  0.00  0.00    +0.177 C 
ATOM     25  C   UNL     1      35.030 -20.462 -20.130  0.00  0.00    +0.000 C 
ATOM     26  C   UNL     1      33.894 -20.014 -20.815  0.00  0.00    -0.001 C 
ATOM     27  C   UNL     1      34.902 -21.361 -19.072  0.00  0.00    +0.012 C 
ATOM     28  C   UNL     1      32.629 -20.464 -20.443  0.00  0.00    -0.002 C 
ATOM     29  C   UNL     1      33.635 -21.808 -18.698  0.00  0.00    +0.048 C 
ATOM     30  C   UNL     1      32.501 -21.360 -19.381  0.00  0.00    +0.014 C 
ENDBRANCH  18  29
ENDBRANCH   6  18
TORSDOF 3
ENDMDL
MODEL 8
REMARK VINA RESULT:     -10.9      3.201      8.702
REMARK  Name = 5288710
REMARK  3 active torsions:
REMARK  status: ('A' for Active; 'I' for Inactive)
REMARK    1  A    between atoms: C_6  and  N_18
REMARK    2  A    between atoms: C_9  and  C_15
REMARK    3  A    between atoms: N_18  and  C_29
REMARK                            x       y       z     vdW  Elec       q    Type
REMARK                         _______ _______ _______ _____ _____    ______ ____
ROOT
ATOM      1  O   UNL     1      36.788 -21.979 -17.454  0.00  0.00    -0.270 OA
ATOM      2  N   UNL     1      37.349 -20.238 -18.949  0.00  0.00    -0.280 N 
ATOM      3  C   UNL     1      35.517 -20.290 -20.339  0.00  0.00    +0.019 C 
ATOM      4  C   UNL     1      35.365 -21.319 -19.315  0.00  0.00    +0.069 C 
ATOM      5  C   UNL     1      36.738 -19.665 -20.070  0.00  0.00    +0.051 C 
ATOM      6  C   UNL     1      34.362 -22.185 -19.147  0.00  0.00    +0.066 C 
ATOM      7  C   UNL     1      36.568 -21.270 -18.419  0.00  0.00    +0.251 C 
ATOM      8  C   UNL     1      34.736 -19.886 -21.406  0.00  0.00    +0.005 C 
ATOM      9  C   UNL     1      35.209 -18.836 -22.200  0.00  0.00    +0.036 C 
ATOM     10  C   UNL     1      37.223 -18.626 -20.840  0.00  0.00    +0.015 C 
ATOM     11  C   UNL     1      36.440 -18.212 -21.921  0.00  0.00    +0.004 C 
ATOM     12  H   UNL     1      38.216 -19.952 -18.582  0.00  0.00    +0.155 HD
ENDROOT
BRANCH   9  15
ATOM     13  O   UNL     1      34.510 -17.062 -23.617  0.00  0.00    -0.431 OA
ATOM     14  N   UNL     1      33.103 -18.036 -25.097  0.00  0.00    -0.203 NA
ATOM     15  C   UNL     1      34.424 -18.385 -23.324  0.00  0.00    +0.166 C 
ATOM     16  C   UNL     1      33.576 -18.975 -24.216  0.00  0.00    +0.140 C 
ATOM     17  C   UNL     1      33.688 -16.931 -24.695  0.00  0.00    +0.285 C 
ENDBRANCH   9  15
BRANCH   6  18
ATOM     18  N   UNL     1      34.236 -23.132 -18.193  0.00  0.00    -0.311 N 
ATOM     19  H   UNL     1      34.841 -23.904 -18.276  0.00  0.00    +0.152 HD
BRANCH  18  29
ATOM     20  S   UNL     1      29.066 -23.073 -14.665  0.00  0.00    -0.002 S 
ATOM     21  O   UNL     1      28.601 -21.716 -14.458  0.00  0.00    -0.172 OA
ATOM     22  O   UNL     1      28.232 -24.218 -14.360  0.00  0.00    -0.172 OA
ATOM     23  C   UNL     1      29.623 -23.216 -16.356  0.00  0.00    +0.177 C 
ATOM     24  C   UNL     1      30.620 -23.264 -13.806  0.00  0.00    +0.177 C 
ATOM     25  C   UNL     1      31.107 -23.194 -16.218  0.00  0.00    +0.000 C 
ATOM     26  C   UNL     1      31.617 -23.219 -14.914  0.00  0.00    -0.001 C 
ATOM     27  C   UNL     1      31.973 -23.168 -17.309  0.00  0.00    +0.012 C 
ATOM     28  C   UNL     1      32.994 -23.217 -14.700  0.00  0.00    -0.002 C 
ATOM     29  C   UNL     1      33.352 -23.162 -17.094  0.00  0.00    +0.048 C 
ATOM     30  C   UNL     1      33.860 -23.186 -15.793  0.00  0.00    +0.014 C 
ENDBRANCH  18  29
ENDBRANCH   6  18
TORSDOF 3
ENDMDL
MODEL 9
REMARK VINA RESULT:     -10.7      2.649      5.403
REMARK  Name = 5288710
REMARK  3 active torsions:
REMARK  status: ('A' for Active; 'I' for Inactive)
REMARK    1  A    between atoms: C_6  and  N_18
REMARK    2  A    between atoms: C_9  and  C_15
REMARK    3  A    between atoms: N_18  and  C_29
REMARK                            x       y       z     vdW  Elec       q    Type
REMARK                         _______ _______ _______ _____ _____    ______ ____
ROOT
ATOM      1  O   UNL     1      31.551 -22.468 -17.521  0.00  0.00    -0.270 OA
ATOM      2  N   UNL     1      31.630 -23.161 -15.264  0.00  0.00    -0.280 N 
ATOM      3  C   UNL     1      33.887 -23.540 -15.034  0.00  0.00    +0.019 C 
ATOM      4  C   UNL     1      33.618 -23.091 -16.396  0.00  0.00    +0.069 C 
ATOM      5  C   UNL     1      32.646 -23.563 -14.390  0.00  0.00    +0.051 C 
ATOM      6  C   UNL     1      34.481 -22.909 -17.398  0.00  0.00    +0.066 C 
ATOM      7  C   UNL     1      32.142 -22.850 -16.528  0.00  0.00    +0.251 C 
ATOM      8  C   UNL     1      35.039 -23.900 -14.360  0.00  0.00    +0.005 C 
ATOM      9  C   UNL     1      34.918 -24.287 -13.022  0.00  0.00    +0.036 C 
ATOM     10  C   UNL     1      32.505 -23.942 -13.069  0.00  0.00    +0.015 C 
ATOM     11  C   UNL     1      33.664 -24.308 -12.382  0.00  0.00    +0.004 C 
ATOM     12  H   UNL     1      30.678 -23.104 -15.021  0.00  0.00    +0.155 HD
ENDROOT
BRANCH   9  15
ATOM     13  O   UNL     1      36.815 -25.701 -12.803  0.00  0.00    -0.431 OA
ATOM     14  N   UNL     1      37.833 -25.000 -10.909  0.00  0.00    -0.203 NA
ATOM     15  C   UNL     1      36.097 -24.673 -12.283  0.00  0.00    +0.166 C 
ATOM     16  C   UNL     1      36.710 -24.247 -11.141  0.00  0.00    +0.140 C 
ATOM     17  C   UNL     1      37.843 -25.838 -11.921  0.00  0.00    +0.285 C 
ENDBRANCH   9  15
BRANCH   6  18
ATOM     18  N   UNL     1      34.216 -22.493 -18.656  0.00  0.00    -0.311 N 
ATOM     19  H   UNL     1      33.489 -22.968 -19.118  0.00  0.00    +0.152 HD
BRANCH  18  29
ATOM     20  S   UNL     1      35.280 -17.732 -22.577  0.00  0.00    -0.002 S 
ATOM     21  O   UNL     1      35.410 -18.208 -23.941  0.00  0.00    -0.172 OA
ATOM     22  O   UNL     1      35.098 -16.327 -22.277  0.00  0.00    -0.172 OA
ATOM     23  C   UNL     1      33.965 -18.651 -21.792  0.00  0.00    +0.177 C 
ATOM     24  C   UNL     1      36.681 -18.331 -21.646  0.00  0.00    +0.177 C 
ATOM     25  C   UNL     1      34.706 -19.610 -20.923  0.00  0.00    +0.000 C 
ATOM     26  C   UNL     1      36.095 -19.446 -20.848  0.00  0.00    -0.001 C 
ATOM     27  C   UNL     1      34.079 -20.618 -20.195  0.00  0.00    +0.012 C 
ATOM     28  C   UNL     1      36.858 -20.291 -20.045  0.00  0.00    -0.002 C 
ATOM     29  C   UNL     1      34.844 -21.467 -19.394  0.00  0.00    +0.048 C 
ATOM     30  C   UNL     1      36.229 -21.304 -19.319  0.00  0.00    +0.014 C 
ENDBRANCH  18  29
ENDBRANCH   6  18
TORSDOF 3
ENDMDL
