MODEL 1
REMARK VINA RESULT:     -11.5      0.000      0.000
REMARK  Name = 24878044
REMARK  6 active torsions:
REMARK  status: ('A' for Active; 'I' for Inactive)
REMARK    1  A    between atoms: N_2  and  C_6
REMARK    2  A    between atoms: C_3  and  C_18
REMARK    3  A    between atoms: C_7  and  S_12
REMARK    4  A    between atoms: S_12  and  N_15
REMARK    5  A    between atoms: C_18  and  S_19
REMARK    6  A    between atoms: S_19  and  C_31
REMARK                            x       y       z     vdW  Elec       q    Type
REMARK                         _______ _______ _______ _____ _____    ______ ____
ROOT
ATOM      1  O   UNL     1      33.838 -18.893 -24.111  0.00  0.00    -0.274 OA
ATOM      2  N   UNL     1      35.024 -18.226 -22.195  0.00  0.00    -0.283 N 
ATOM      3  C   UNL     1      34.559 -18.109 -23.501  0.00  0.00    +0.238 C 
ATOM      4  H   UNL     1      35.608 -17.502 -21.875  0.00  0.00    +0.155 HD
ENDROOT
BRANCH   2   6
ATOM      5 CL   UNL     1      37.422 -19.395 -20.723  0.00  0.00    -0.081 Cl
ATOM      6  C   UNL     1      34.753 -19.267 -21.275  0.00  0.00    +0.061 C 
ATOM      7  C   UNL     1      34.149 -21.312 -19.477  0.00  0.00    +0.123 C 
ATOM      8  C   UNL     1      35.773 -19.876 -20.545  0.00  0.00    +0.072 C 
ATOM      9  C   UNL     1      33.431 -19.681 -21.107  0.00  0.00    +0.017 C 
ATOM     10  C   UNL     1      35.471 -20.898 -19.645  0.00  0.00    +0.033 C 
ATOM     11  C   UNL     1      33.129 -20.703 -20.207  0.00  0.00    +0.021 C 
BRANCH   7  12
ATOM     12  S   UNL     1      33.771 -22.592 -18.351  0.00  0.00    +0.057 S 
ATOM     13  O   UNL     1      34.824 -22.648 -17.348  0.00  0.00    -0.153 OA
ATOM     14  O   UNL     1      32.382 -22.448 -17.937  0.00  0.00    -0.153 OA
BRANCH  12  15
ATOM     15  N   UNL     1      33.902 -23.964 -19.363  0.00  0.00    -0.203 NA
ATOM     16  H   UNL     1      33.044 -24.067 -19.907  0.00  0.00    +0.144 HD
ATOM     17  H   UNL     1      34.045 -24.796 -18.792  0.00  0.00    +0.144 HD
ENDBRANCH  12  15
ENDBRANCH   7  12
ENDBRANCH   2   6
BRANCH   3  18
ATOM     18  C   UNL     1      35.068 -16.851 -24.172  0.00  0.00    +0.152 C 
BRANCH  18  19
ATOM     19  S   UNL     1      33.672 -15.743 -24.469  0.00  0.00    -0.047 S 
BRANCH  19  31
ATOM     20  O   UNL     1      34.103 -15.174 -21.964  0.00  0.00    -0.262 OA
ATOM     21  N   UNL     1      33.427 -13.332 -23.257  0.00  0.00    -0.250 N 
ATOM     22  C   UNL     1      34.187 -11.245 -24.381  0.00  0.00    +0.027 C 
ATOM     23  C   UNL     1      33.171 -10.413 -23.628  0.00  0.00    +0.029 C 
ATOM     24  C   UNL     1      33.659 -12.659 -24.553  0.00  0.00    +0.099 C 
ATOM     25  C   UNL     1      32.710 -11.117 -22.380  0.00  0.00    -0.009 C 
ATOM     26  C   UNL     1      32.830 -12.517 -22.214  0.00  0.00    +0.051 C 
ATOM     27  C   UNL     1      32.106 -10.332 -21.379  0.00  0.00    -0.007 C 
ATOM     28  C   UNL     1      32.310 -13.078 -21.033  0.00  0.00    +0.014 C 
ATOM     29  C   UNL     1      31.625 -10.911 -20.212  0.00  0.00    -0.022 C 
ATOM     30  C   UNL     1      31.723 -12.285 -20.042  0.00  0.00    -0.003 C 
ATOM     31  C   UNL     1      33.769 -14.687 -23.039  0.00  0.00    +0.280 C 
ATOM     32  C   UNL     1      31.022 -10.063 -19.145  0.00  0.00    +0.031 C 
ENDBRANCH  19  31
ENDBRANCH  18  19
ENDBRANCH   3  18
TORSDOF 6
ENDMDL
MODEL 2
REMARK VINA RESULT:     -11.3      1.215      2.337
REMARK  Name = 24878044
REMARK  6 active torsions:
REMARK  status: ('A' for Active; 'I' for Inactive)
REMARK    1  A    between atoms: N_2  and  C_6
REMARK    2  A    between atoms: C_3  and  C_18
REMARK    3  A    between atoms: C_7  and  S_12
REMARK    4  A    between atoms: S_12  and  N_15
REMARK    5  A    between atoms: C_18  and  S_19
REMARK    6  A    between atoms: S_19  and  C_31
REMARK                            x       y       z     vdW  Elec       q    Type
REMARK                         _______ _______ _______ _____ _____    ______ ____
ROOT
ATOM      1  O   UNL     1      33.858 -19.041 -24.115  0.00  0.00    -0.274 OA
ATOM      2  N   UNL     1      34.725 -18.208 -22.096  0.00  0.00    -0.283 N 
ATOM      3  C   UNL     1      34.366 -18.151 -23.438  0.00  0.00    +0.238 C 
ATOM      4  H   UNL     1      35.135 -17.395 -21.720  0.00  0.00    +0.155 HD
ENDROOT
BRANCH   2   6
ATOM      5 CL   UNL     1      37.273 -19.312 -20.840  0.00  0.00    -0.081 Cl
ATOM      6  C   UNL     1      34.569 -19.300 -21.208  0.00  0.00    +0.061 C 
ATOM      7  C   UNL     1      34.191 -21.448 -19.470  0.00  0.00    +0.123 C 
ATOM      8  C   UNL     1      35.665 -19.885 -20.576  0.00  0.00    +0.072 C 
ATOM      9  C   UNL     1      33.284 -19.789 -20.972  0.00  0.00    +0.017 C 
ATOM     10  C   UNL     1      35.476 -20.959 -19.706  0.00  0.00    +0.033 C 
ATOM     11  C   UNL     1      33.094 -20.862 -20.103  0.00  0.00    +0.021 C 
BRANCH   7  12
ATOM     12  S   UNL     1      33.954 -22.792 -18.381  0.00  0.00    +0.057 S 
ATOM     13  O   UNL     1      33.867 -24.012 -19.170  0.00  0.00    -0.153 OA
ATOM     14  O   UNL     1      34.930 -22.694 -17.305  0.00  0.00    -0.153 OA
BRANCH  12  15
ATOM     15  N   UNL     1      32.406 -22.432 -17.752  0.00  0.00    -0.203 NA
ATOM     16  H   UNL     1      31.941 -23.298 -17.478  0.00  0.00    +0.144 HD
ATOM     17  H   UNL     1      31.851 -21.958 -18.464  0.00  0.00    +0.144 HD
ENDBRANCH  12  15
ENDBRANCH   7  12
ENDBRANCH   2   6
BRANCH   3  18
ATOM     18  C   UNL     1      34.692 -16.808 -24.055  0.00  0.00    +0.152 C 
BRANCH  18  19
ATOM     19  S   UNL     1      34.955 -15.606 -22.732  0.00  0.00    -0.047 S 
BRANCH  19  31
ATOM     20  O   UNL     1      33.657 -14.146 -24.456  0.00  0.00    -0.262 OA
ATOM     21  N   UNL     1      33.377 -13.463 -22.224  0.00  0.00    -0.250 N 
ATOM     22  C   UNL     1      31.821 -13.445 -20.281  0.00  0.00    +0.027 C 
ATOM     23  C   UNL     1      31.896 -11.936 -20.175  0.00  0.00    +0.029 C 
ATOM     24  C   UNL     1      33.119 -13.978 -20.863  0.00  0.00    +0.099 C 
ATOM     25  C   UNL     1      32.357 -11.323 -21.471  0.00  0.00    -0.009 C 
ATOM     26  C   UNL     1      33.073 -12.060 -22.442  0.00  0.00    +0.051 C 
ATOM     27  C   UNL     1      32.087  -9.956 -21.672  0.00  0.00    -0.007 C 
ATOM     28  C   UNL     1      33.509 -11.371 -23.590  0.00  0.00    +0.014 C 
ATOM     29  C   UNL     1      32.509  -9.308 -22.826  0.00  0.00    -0.022 C 
ATOM     30  C   UNL     1      33.224 -10.015 -23.782  0.00  0.00    -0.003 C 
ATOM     31  C   UNL     1      33.884 -14.285 -23.258  0.00  0.00    +0.280 C 
ATOM     32  C   UNL     1      32.184  -7.870 -23.042  0.00  0.00    +0.031 C 
ENDBRANCH  19  31
ENDBRANCH  18  19
ENDBRANCH   3  18
TORSDOF 6
ENDMDL
MODEL 3
REMARK VINA RESULT:     -10.8      3.365      5.188
REMARK  Name = 24878044
REMARK  6 active torsions:
REMARK  status: ('A' for Active; 'I' for Inactive)
REMARK    1  A    between atoms: N_2  and  C_6
REMARK    2  A    between atoms: C_3  and  C_18
REMARK    3  A    between atoms: C_7  and  S_12
REMARK    4  A    between atoms: S_12  and  N_15
REMARK    5  A    between atoms: C_18  and  S_19
REMARK    6  A    between atoms: S_19  and  C_31
REMARK                            x       y       z     vdW  Elec       q    Type
REMARK                         _______ _______ _______ _____ _____    ______ ____
ROOT
ATOM      1  O   UNL     1      36.833 -20.005 -19.696  0.00  0.00    -0.274 OA
ATOM      2  N   UNL     1      35.042 -21.370 -19.027  0.00  0.00    -0.283 N 
ATOM      3  C   UNL     1      35.709 -20.473 -19.854  0.00  0.00    +0.238 C 
ATOM      4  H   UNL     1      34.134 -21.628 -19.308  0.00  0.00    +0.155 HD
ENDROOT
BRANCH   2   6
ATOM      5 CL   UNL     1      32.996 -22.881 -17.348  0.00  0.00    -0.081 Cl
ATOM      6  C   UNL     1      35.517 -21.956 -17.829  0.00  0.00    +0.061 C 
ATOM      7  C   UNL     1      36.521 -23.085 -15.485  0.00  0.00    +0.123 C 
ATOM      8  C   UNL     1      34.671 -22.671 -16.983  0.00  0.00    +0.072 C 
ATOM      9  C   UNL     1      36.866 -21.805 -17.504  0.00  0.00    +0.017 C 
ATOM     10  C   UNL     1      35.173 -23.236 -15.811  0.00  0.00    +0.033 C 
ATOM     11  C   UNL     1      37.368 -22.370 -16.331  0.00  0.00    +0.021 C 
BRANCH   7  12
ATOM     12  S   UNL     1      37.149 -23.792 -14.017  0.00  0.00    +0.057 S 
ATOM     13  O   UNL     1      37.488 -22.716 -13.097  0.00  0.00    -0.153 OA
ATOM     14  O   UNL     1      36.246 -24.852 -13.590  0.00  0.00    -0.153 OA
BRANCH  12  15
ATOM     15  N   UNL     1      38.595 -24.501 -14.591  0.00  0.00    -0.203 NA
ATOM     16  H   UNL     1      39.355 -23.825 -14.523  0.00  0.00    +0.144 HD
ATOM     17  H   UNL     1      38.473 -24.782 -15.564  0.00  0.00    +0.144 HD
ENDBRANCH  12  15
ENDBRANCH   7  12
ENDBRANCH   2   6
BRANCH   3  18
ATOM     18  C   UNL     1      34.870 -20.071 -21.048  0.00  0.00    +0.152 C 
BRANCH  18  19
ATOM     19  S   UNL     1      35.864 -19.021 -22.131  0.00  0.00    -0.047 S 
BRANCH  19  31
ATOM     20  O   UNL     1      33.801 -18.661 -23.681  0.00  0.00    -0.262 OA
ATOM     21  N   UNL     1      34.605 -16.687 -22.690  0.00  0.00    -0.250 N 
ATOM     22  C   UNL     1      34.200 -14.989 -20.915  0.00  0.00    +0.027 C 
ATOM     23  C   UNL     1      34.223 -13.860 -21.924  0.00  0.00    +0.029 C 
ATOM     24  C   UNL     1      35.079 -16.127 -21.406  0.00  0.00    +0.099 C 
ATOM     25  C   UNL     1      33.953 -14.369 -23.315  0.00  0.00    -0.009 C 
ATOM     26  C   UNL     1      34.147 -15.723 -23.674  0.00  0.00    +0.051 C 
ATOM     27  C   UNL     1      33.535 -13.431 -24.278  0.00  0.00    -0.007 C 
ATOM     28  C   UNL     1      33.922 -16.078 -25.018  0.00  0.00    +0.014 C 
ATOM     29  C   UNL     1      33.297 -13.815 -25.592  0.00  0.00    -0.022 C 
ATOM     30  C   UNL     1      33.496 -15.138 -25.961  0.00  0.00    -0.003 C 
ATOM     31  C   UNL     1      34.592 -18.078 -22.946  0.00  0.00    +0.280 C 
ATOM     32  C   UNL     1      32.819 -12.819 -26.591  0.00  0.00    +0.031 C 
ENDBRANCH  19  31
ENDBRANCH  18  19
ENDBRANCH   3  18
TORSDOF 6
ENDMDL
MODEL 4
REMARK VINA RESULT:     -10.8      5.732     11.942
REMARK  Name = 24878044
REMARK  6 active torsions:
REMARK  status: ('A' for Active; 'I' for Inactive)
REMARK    1  A    between atoms: N_2  and  C_6
REMARK    2  A    between atoms: C_3  and  C_18
REMARK    3  A    between atoms: C_7  and  S_12
REMARK    4  A    between atoms: S_12  and  N_15
REMARK    5  A    between atoms: C_18  and  S_19
REMARK    6  A    between atoms: S_19  and  C_31
REMARK                            x       y       z     vdW  Elec       q    Type
REMARK                         _______ _______ _______ _____ _____    ______ ____
ROOT
ATOM      1  O   UNL     1      31.763 -22.177 -17.566  0.00  0.00    -0.274 OA
ATOM      2  N   UNL     1      34.030 -22.598 -18.020  0.00  0.00    -0.283 N 
ATOM      3  C   UNL     1      32.802 -22.812 -17.404  0.00  0.00    +0.238 C 
ATOM      4  H   UNL     1      34.760 -23.203 -17.755  0.00  0.00    +0.155 HD
ENDROOT
BRANCH   2   6
ATOM      5 CL   UNL     1      36.961 -21.788 -18.213  0.00  0.00    -0.081 Cl
ATOM      6  C   UNL     1      34.350 -21.612 -18.984  0.00  0.00    +0.061 C 
ATOM      7  C   UNL     1      34.912 -19.668 -20.904  0.00  0.00    +0.123 C 
ATOM      8  C   UNL     1      35.658 -21.165 -19.161  0.00  0.00    +0.072 C 
ATOM      9  C   UNL     1      33.321 -21.087 -19.768  0.00  0.00    +0.017 C 
ATOM     10  C   UNL     1      35.939 -20.193 -20.121  0.00  0.00    +0.033 C 
ATOM     11  C   UNL     1      33.602 -20.115 -20.728  0.00  0.00    +0.021 C 
BRANCH   7  12
ATOM     12  S   UNL     1      35.263 -18.451 -22.105  0.00  0.00    +0.057 S 
ATOM     13  O   UNL     1      34.615 -18.834 -23.351  0.00  0.00    -0.153 OA
ATOM     14  O   UNL     1      35.001 -17.140 -21.527  0.00  0.00    -0.153 OA
BRANCH  12  15
ATOM     15  N   UNL     1      36.952 -18.645 -22.280  0.00  0.00    -0.203 NA
ATOM     16  H   UNL     1      37.142 -19.288 -23.049  0.00  0.00    +0.144 HD
ATOM     17  H   UNL     1      37.343 -19.021 -21.417  0.00  0.00    +0.144 HD
ENDBRANCH  12  15
ENDBRANCH   7  12
ENDBRANCH   2   6
BRANCH   3  18
ATOM     18  C   UNL     1      32.851 -23.966 -16.426  0.00  0.00    +0.152 C 
BRANCH  18  19
ATOM     19  S   UNL     1      32.946 -23.303 -14.748  0.00  0.00    -0.047 S 
BRANCH  19  31
ATOM     20  O   UNL     1      35.336 -22.416 -15.281  0.00  0.00    -0.262 OA
ATOM     21  N   UNL     1      35.266 -23.964 -13.514  0.00  0.00    -0.250 N 
ATOM     22  C   UNL     1      35.375 -24.239 -11.042  0.00  0.00    +0.027 C 
ATOM     23  C   UNL     1      36.520 -25.223 -11.154  0.00  0.00    +0.029 C 
ATOM     24  C   UNL     1      34.514 -24.317 -12.291  0.00  0.00    +0.099 C 
ATOM     25  C   UNL     1      37.231 -25.082 -12.474  0.00  0.00    -0.009 C 
ATOM     26  C   UNL     1      36.619 -24.484 -13.600  0.00  0.00    +0.051 C 
ATOM     27  C   UNL     1      38.532 -25.610 -12.567  0.00  0.00    -0.007 C 
ATOM     28  C   UNL     1      37.353 -24.459 -14.801  0.00  0.00    +0.014 C 
ATOM     29  C   UNL     1      39.242 -25.549 -13.760  0.00  0.00    -0.022 C 
ATOM     30  C   UNL     1      38.650 -24.977 -14.878  0.00  0.00    -0.003 C 
ATOM     31  C   UNL     1      34.709 -23.164 -14.538  0.00  0.00    +0.280 C 
ATOM     32  C   UNL     1      40.634 -26.078 -13.834  0.00  0.00    +0.031 C 
ENDBRANCH  19  31
ENDBRANCH  18  19
ENDBRANCH   3  18
TORSDOF 6
ENDMDL
MODEL 5
REMARK VINA RESULT:     -10.5      4.250     10.888
REMARK  Name = 24878044
REMARK  6 active torsions:
REMARK  status: ('A' for Active; 'I' for Inactive)
REMARK    1  A    between atoms: N_2  and  C_6
REMARK    2  A    between atoms: C_3  and  C_18
REMARK    3  A    between atoms: C_7  and  S_12
REMARK    4  A    between atoms: S_12  and  N_15
REMARK    5  A    between atoms: C_18  and  S_19
REMARK    6  A    between atoms: S_19  and  C_31
REMARK                            x       y       z     vdW  Elec       q    Type
REMARK                         _______ _______ _______ _____ _____    ______ ____
ROOT
ATOM      1  O   UNL     1      33.890 -20.150 -20.637  0.00  0.00    -0.274 OA
ATOM      2  N   UNL     1      35.770 -18.971 -21.409  0.00  0.00    -0.283 N 
ATOM      3  C   UNL     1      35.096 -19.920 -20.648  0.00  0.00    +0.238 C 
ATOM      4  H   UNL     1      36.744 -18.919 -21.276  0.00  0.00    +0.155 HD
ENDROOT
BRANCH   2   6
ATOM      5 CL   UNL     1      34.816 -20.181 -24.038  0.00  0.00    -0.081 Cl
ATOM      6  C   UNL     1      35.217 -18.073 -22.353  0.00  0.00    +0.061 C 
ATOM      7  C   UNL     1      34.138 -16.249 -24.166  0.00  0.00    +0.123 C 
ATOM      8  C   UNL     1      34.748 -18.514 -23.589  0.00  0.00    +0.072 C 
ATOM      9  C   UNL     1      35.147 -16.718 -22.023  0.00  0.00    +0.017 C 
ATOM     10  C   UNL     1      34.208 -17.602 -24.496  0.00  0.00    +0.033 C 
ATOM     11  C   UNL     1      34.607 -15.806 -22.929  0.00  0.00    +0.021 C 
BRANCH   7  12
ATOM     12  S   UNL     1      33.463 -15.107 -25.301  0.00  0.00    +0.057 S 
ATOM     13  O   UNL     1      32.841 -14.025 -24.551  0.00  0.00    -0.153 OA
ATOM     14  O   UNL     1      34.471 -14.804 -26.308  0.00  0.00    -0.153 OA
BRANCH  12  15
ATOM     15  N   UNL     1      32.235 -16.053 -26.023  0.00  0.00    -0.203 NA
ATOM     16  H   UNL     1      32.190 -16.961 -25.559  0.00  0.00    +0.144 HD
ATOM     17  H   UNL     1      32.444 -16.185 -27.012  0.00  0.00    +0.144 HD
ENDBRANCH  12  15
ENDBRANCH   7  12
ENDBRANCH   2   6
BRANCH   3  18
ATOM     18  C   UNL     1      36.034 -20.695 -19.748  0.00  0.00    +0.152 C 
BRANCH  18  19
ATOM     19  S   UNL     1      35.126 -22.068 -19.004  0.00  0.00    -0.047 S 
BRANCH  19  31
ATOM     20  O   UNL     1      36.747 -21.339 -17.100  0.00  0.00    -0.262 OA
ATOM     21  N   UNL     1      35.097 -22.865 -16.414  0.00  0.00    -0.250 N 
ATOM     22  C   UNL     1      32.955 -23.126 -15.173  0.00  0.00    +0.027 C 
ATOM     23  C   UNL     1      33.553 -24.182 -14.268  0.00  0.00    +0.029 C 
ATOM     24  C   UNL     1      33.652 -23.159 -16.522  0.00  0.00    +0.099 C 
ATOM     25  C   UNL     1      35.056 -24.097 -14.253  0.00  0.00    -0.009 C 
ATOM     26  C   UNL     1      35.787 -23.471 -15.289  0.00  0.00    +0.051 C 
ATOM     27  C   UNL     1      35.728 -24.708 -13.177  0.00  0.00    -0.007 C 
ATOM     28  C   UNL     1      37.192 -23.503 -15.204  0.00  0.00    +0.014 C 
ATOM     29  C   UNL     1      37.116 -24.702 -13.107  0.00  0.00    -0.022 C 
ATOM     30  C   UNL     1      37.846 -24.103 -14.124  0.00  0.00    -0.003 C 
ATOM     31  C   UNL     1      35.771 -22.040 -17.344  0.00  0.00    +0.280 C 
ATOM     32  C   UNL     1      37.812 -25.319 -11.944  0.00  0.00    +0.031 C 
ENDBRANCH  19  31
ENDBRANCH  18  19
ENDBRANCH   3  18
TORSDOF 6
ENDMDL
MODEL 6
REMARK VINA RESULT:     -10.4      3.417      9.602
REMARK  Name = 24878044
REMARK  6 active torsions:
REMARK  status: ('A' for Active; 'I' for Inactive)
REMARK    1  A    between atoms: N_2  and  C_6
REMARK    2  A    between atoms: C_3  and  C_18
REMARK    3  A    between atoms: C_7  and  S_12
REMARK    4  A    between atoms: S_12  and  N_15
REMARK    5  A    between atoms: C_18  and  S_19
REMARK    6  A    between atoms: S_19  and  C_31
REMARK                            x       y       z     vdW  Elec       q    Type
REMARK                         _______ _______ _______ _____ _____    ______ ____
ROOT
ATOM      1  O   UNL     1      32.751 -13.947 -25.762  0.00  0.00    -0.274 OA
ATOM      2  N   UNL     1      33.604 -13.821 -23.576  0.00  0.00    -0.283 N 
ATOM      3  C   UNL     1      33.303 -14.442 -24.783  0.00  0.00    +0.238 C 
ATOM      4  H   UNL     1      34.040 -14.383 -22.895  0.00  0.00    +0.155 HD
ENDROOT
BRANCH   2   6
ATOM      5 CL   UNL     1      31.982 -13.375 -21.035  0.00  0.00    -0.081 Cl
ATOM      6  C   UNL     1      33.356 -12.476 -23.214  0.00  0.00    +0.061 C 
ATOM      7  C   UNL     1      32.904  -9.802 -22.558  0.00  0.00    +0.123 C 
ATOM      8  C   UNL     1      32.625 -12.152 -22.071  0.00  0.00    +0.072 C 
ATOM      9  C   UNL     1      33.861 -11.462 -24.029  0.00  0.00    +0.017 C 
ATOM     10  C   UNL     1      32.400 -10.816 -21.743  0.00  0.00    +0.033 C 
ATOM     11  C   UNL     1      33.635 -10.125 -23.701  0.00  0.00    +0.021 C 
BRANCH   7  12
ATOM     12  S   UNL     1      32.622  -8.129 -22.148  0.00  0.00    +0.057 S 
ATOM     13  O   UNL     1      33.870  -7.398 -22.312  0.00  0.00    -0.153 OA
ATOM     14  O   UNL     1      31.423  -7.679 -22.841  0.00  0.00    -0.153 OA
BRANCH  12  15
ATOM     15  N   UNL     1      32.275  -8.257 -20.479  0.00  0.00    -0.203 NA
ATOM     16  H   UNL     1      31.286  -8.062 -20.322  0.00  0.00    +0.144 HD
ATOM     17  H   UNL     1      32.841  -7.586 -19.961  0.00  0.00    +0.144 HD
ENDBRANCH  12  15
ENDBRANCH   7  12
ENDBRANCH   2   6
BRANCH   3  18
ATOM     18  C   UNL     1      33.724 -15.896 -24.793  0.00  0.00    +0.152 C 
BRANCH  18  19
ATOM     19  S   UNL     1      34.896 -16.174 -23.447  0.00  0.00    -0.047 S 
BRANCH  19  31
ATOM     20  O   UNL     1      33.657 -18.456 -23.650  0.00  0.00    -0.262 OA
ATOM     21  N   UNL     1      35.316 -18.416 -21.986  0.00  0.00    -0.250 N 
ATOM     22  C   UNL     1      37.619 -19.149 -21.389  0.00  0.00    +0.027 C 
ATOM     23  C   UNL     1      37.127 -19.835 -20.133  0.00  0.00    +0.029 C 
ATOM     24  C   UNL     1      36.705 -17.983 -21.723  0.00  0.00    +0.099 C 
ATOM     25  C   UNL     1      35.654 -20.136 -20.220  0.00  0.00    -0.009 C 
ATOM     26  C   UNL     1      34.794 -19.446 -21.105  0.00  0.00    +0.051 C 
ATOM     27  C   UNL     1      35.141 -21.115 -19.348  0.00  0.00    -0.007 C 
ATOM     28  C   UNL     1      33.423 -19.765 -21.061  0.00  0.00    +0.014 C 
ATOM     29  C   UNL     1      33.787 -21.427 -19.344  0.00  0.00    -0.022 C 
ATOM     30  C   UNL     1      32.928 -20.748 -20.197  0.00  0.00    -0.003 C 
ATOM     31  C   UNL     1      34.541 -17.869 -23.034  0.00  0.00    +0.280 C 
ATOM     32  C   UNL     1      33.263 -22.491 -18.442  0.00  0.00    +0.031 C 
ENDBRANCH  19  31
ENDBRANCH  18  19
ENDBRANCH   3  18
TORSDOF 6
ENDMDL
MODEL 7
REMARK VINA RESULT:     -10.3      3.952      6.205
REMARK  Name = 24878044
REMARK  6 active torsions:
REMARK  status: ('A' for Active; 'I' for Inactive)
REMARK    1  A    between atoms: N_2  and  C_6
REMARK    2  A    between atoms: C_3  and  C_18
REMARK    3  A    between atoms: C_7  and  S_12
REMARK    4  A    between atoms: S_12  and  N_15
REMARK    5  A    between atoms: C_18  and  S_19
REMARK    6  A    between atoms: S_19  and  C_31
REMARK                            x       y       z     vdW  Elec       q    Type
REMARK                         _______ _______ _______ _____ _____    ______ ____
ROOT
ATOM      1  O   UNL     1      37.192 -20.488 -17.741  0.00  0.00    -0.274 OA
ATOM      2  N   UNL     1      35.795 -22.377 -17.799  0.00  0.00    -0.283 N 
ATOM      3  C   UNL     1      36.508 -21.314 -18.341  0.00  0.00    +0.238 C 
ATOM      4  H   UNL     1      35.289 -22.931 -18.436  0.00  0.00    +0.155 HD
ENDROOT
BRANCH   2   6
ATOM      5 CL   UNL     1      33.022 -23.077 -16.747  0.00  0.00    -0.081 Cl
ATOM      6  C   UNL     1      35.713 -22.755 -16.437  0.00  0.00    +0.061 C 
ATOM      7  C   UNL     1      35.624 -23.491 -13.748  0.00  0.00    +0.123 C 
ATOM      8  C   UNL     1      34.497 -23.096 -15.848  0.00  0.00    +0.072 C 
ATOM      9  C   UNL     1      36.886 -22.780 -15.681  0.00  0.00    +0.017 C 
ATOM     10  C   UNL     1      34.452 -23.465 -14.504  0.00  0.00    +0.033 C 
ATOM     11  C   UNL     1      36.841 -23.149 -14.336  0.00  0.00    +0.021 C 
BRANCH   7  12
ATOM     12  S   UNL     1      35.568 -23.951 -12.065  0.00  0.00    +0.057 S 
ATOM     13  O   UNL     1      36.560 -23.169 -11.341  0.00  0.00    -0.153 OA
ATOM     14  O   UNL     1      34.179 -23.942 -11.628  0.00  0.00    -0.153 OA
BRANCH  12  15
ATOM     15  N   UNL     1      36.103 -25.572 -12.153  0.00  0.00    -0.203 NA
ATOM     16  H   UNL     1      35.391 -26.141 -12.611  0.00  0.00    +0.144 HD
ATOM     17  H   UNL     1      36.270 -25.928 -11.212  0.00  0.00    +0.144 HD
ENDBRANCH  12  15
ENDBRANCH   7  12
ENDBRANCH   2   6
BRANCH   3  18
ATOM     18  C   UNL     1      36.349 -21.232 -19.844  0.00  0.00    +0.152 C 
BRANCH  18  19
ATOM     19  S   UNL     1      34.783 -20.414 -20.221  0.00  0.00    -0.047 S 
BRANCH  19  31
ATOM     20  O   UNL     1      36.236 -18.252 -20.275  0.00  0.00    -0.262 OA
ATOM     21  N   UNL     1      34.738 -18.439 -22.076  0.00  0.00    -0.250 N 
ATOM     22  C   UNL     1      34.525 -18.958 -24.501  0.00  0.00    +0.027 C 
ATOM     23  C   UNL     1      33.857 -17.627 -24.776  0.00  0.00    +0.029 C 
ATOM     24  C   UNL     1      34.221 -19.395 -23.078  0.00  0.00    +0.099 C 
ATOM     25  C   UNL     1      34.159 -16.633 -23.686  0.00  0.00    -0.009 C 
ATOM     26  C   UNL     1      34.573 -17.032 -22.394  0.00  0.00    +0.051 C 
ATOM     27  C   UNL     1      33.973 -15.270 -23.984  0.00  0.00    -0.007 C 
ATOM     28  C   UNL     1      34.768 -16.022 -21.433  0.00  0.00    +0.014 C 
ATOM     29  C   UNL     1      34.198 -14.293 -23.022  0.00  0.00    -0.022 C 
ATOM     30  C   UNL     1      34.591 -14.670 -21.746  0.00  0.00    -0.003 C 
ATOM     31  C   UNL     1      35.362 -18.864 -20.880  0.00  0.00    +0.280 C 
ATOM     32  C   UNL     1      34.033 -12.851 -23.363  0.00  0.00    +0.031 C 
ENDBRANCH  19  31
ENDBRANCH  18  19
ENDBRANCH   3  18
TORSDOF 6
ENDMDL
MODEL 8
REMARK VINA RESULT:     -10.2      4.505      6.796
REMARK  Name = 24878044
REMARK  6 active torsions:
REMARK  status: ('A' for Active; 'I' for Inactive)
REMARK    1  A    between atoms: N_2  and  C_6
REMARK    2  A    between atoms: C_3  and  C_18
REMARK    3  A    between atoms: C_7  and  S_12
REMARK    4  A    between atoms: S_12  and  N_15
REMARK    5  A    between atoms: C_18  and  S_19
REMARK    6  A    between atoms: S_19  and  C_31
REMARK                            x       y       z     vdW  Elec       q    Type
REMARK                         _______ _______ _______ _____ _____    ______ ____
ROOT
ATOM      1  O   UNL     1      34.910 -22.637 -17.911  0.00  0.00    -0.274 OA
ATOM      2  N   UNL     1      36.824 -22.045 -16.684  0.00  0.00    -0.283 N 
ATOM      3  C   UNL     1      35.972 -22.033 -17.782  0.00  0.00    +0.238 C 
ATOM      4  H   UNL     1      37.645 -21.507 -16.764  0.00  0.00    +0.155 HD
ENDROOT
BRANCH   2   6
ATOM      5 CL   UNL     1      39.194 -23.694 -15.707  0.00  0.00    -0.081 Cl
ATOM      6  C   UNL     1      36.648 -22.742 -15.464  0.00  0.00    +0.061 C 
ATOM      7  C   UNL     1      36.235 -24.087 -13.056  0.00  0.00    +0.123 C 
ATOM      8  C   UNL     1      37.664 -23.527 -14.921  0.00  0.00    +0.072 C 
ATOM      9  C   UNL     1      35.425 -22.629 -14.803  0.00  0.00    +0.017 C 
ATOM     10  C   UNL     1      37.458 -24.199 -13.717  0.00  0.00    +0.033 C 
ATOM     11  C   UNL     1      35.218 -23.301 -13.598  0.00  0.00    +0.021 C 
BRANCH   7  12
ATOM     12  S   UNL     1      35.976 -24.929 -11.548  0.00  0.00    +0.057 S 
ATOM     13  O   UNL     1      34.549 -24.926 -11.259  0.00  0.00    -0.153 OA
ATOM     14  O   UNL     1      36.704 -26.190 -11.591  0.00  0.00    -0.153 OA
BRANCH  12  15
ATOM     15  N   UNL     1      36.762 -23.880 -10.451  0.00  0.00    -0.203 NA
ATOM     16  H   UNL     1      37.103 -24.417  -9.653  0.00  0.00    +0.144 HD
ATOM     17  H   UNL     1      36.105 -23.170 -10.128  0.00  0.00    +0.144 HD
ENDBRANCH  12  15
ENDBRANCH   7  12
ENDBRANCH   2   6
BRANCH   3  18
ATOM     18  C   UNL     1      36.504 -21.167 -18.903  0.00  0.00    +0.152 C 
BRANCH  18  19
ATOM     19  S   UNL     1      35.166 -20.838 -20.072  0.00  0.00    -0.047 S 
BRANCH  19  31
ATOM     20  O   UNL     1      36.542 -18.628 -20.148  0.00  0.00    -0.262 OA
ATOM     21  N   UNL     1      35.013 -18.861 -21.918  0.00  0.00    -0.250 N 
ATOM     22  C   UNL     1      34.766 -19.381 -24.340  0.00  0.00    +0.027 C 
ATOM     23  C   UNL     1      34.048 -18.073 -24.596  0.00  0.00    +0.029 C 
ATOM     24  C   UNL     1      34.508 -19.832 -22.913  0.00  0.00    +0.099 C 
ATOM     25  C   UNL     1      34.338 -17.072 -23.510  0.00  0.00    -0.009 C 
ATOM     26  C   UNL     1      34.793 -17.460 -22.228  0.00  0.00    +0.051 C 
ATOM     27  C   UNL     1      34.099 -15.715 -23.799  0.00  0.00    -0.007 C 
ATOM     28  C   UNL     1      34.974 -16.446 -21.268  0.00  0.00    +0.014 C 
ATOM     29  C   UNL     1      34.311 -14.733 -22.839  0.00  0.00    -0.022 C 
ATOM     30  C   UNL     1      34.743 -15.100 -21.572  0.00  0.00    -0.003 C 
ATOM     31  C   UNL     1      35.676 -19.268 -20.737  0.00  0.00    +0.280 C 
ATOM     32  C   UNL     1      34.089 -13.298 -23.171  0.00  0.00    +0.031 C 
ENDBRANCH  19  31
ENDBRANCH  18  19
ENDBRANCH   3  18
TORSDOF 6
ENDMDL
MODEL 9
REMARK VINA RESULT:     -10.2      4.121      6.021
REMARK  Name = 24878044
REMARK  6 active torsions:
REMARK  status: ('A' for Active; 'I' for Inactive)
REMARK    1  A    between atoms: N_2  and  C_6
REMARK    2  A    between atoms: C_3  and  C_18
REMARK    3  A    between atoms: C_7  and  S_12
REMARK    4  A    between atoms: S_12  and  N_15
REMARK    5  A    between atoms: C_18  and  S_19
REMARK    6  A    between atoms: S_19  and  C_31
REMARK                            x       y       z     vdW  Elec       q    Type
REMARK                         _______ _______ _______ _____ _____    ______ ____
ROOT
ATOM      1  O   UNL     1      31.598 -13.860 -19.860  0.00  0.00    -0.274 OA
ATOM      2  N   UNL     1      33.192 -13.387 -21.521  0.00  0.00    -0.283 N 
ATOM      3  C   UNL     1      32.142 -13.099 -20.656  0.00  0.00    +0.238 C 
ATOM      4  H   UNL     1      33.492 -12.651 -22.101  0.00  0.00    +0.155 HD
ENDROOT
BRANCH   2   6
ATOM      5 CL   UNL     1      33.677 -14.354 -24.370  0.00  0.00    -0.081 Cl
ATOM      6  C   UNL     1      33.879 -14.617 -21.662  0.00  0.00    +0.061 C 
ATOM      7  C   UNL     1      35.239 -17.044 -21.868  0.00  0.00    +0.123 C 
ATOM      8  C   UNL     1      34.157 -15.156 -22.917  0.00  0.00    +0.072 C 
ATOM      9  C   UNL     1      34.281 -15.292 -20.508  0.00  0.00    +0.017 C 
ATOM     10  C   UNL     1      34.837 -16.369 -23.020  0.00  0.00    +0.033 C 
ATOM     11  C   UNL     1      34.961 -16.505 -20.611  0.00  0.00    +0.021 C 
BRANCH   7  12
ATOM     12  S   UNL     1      36.090 -18.563 -21.996  0.00  0.00    +0.057 S 
ATOM     13  O   UNL     1      35.625 -19.251 -23.192  0.00  0.00    -0.153 OA
ATOM     14  O   UNL     1      37.513 -18.313 -21.811  0.00  0.00    -0.153 OA
BRANCH  12  15
ATOM     15  N   UNL     1      35.495 -19.386 -20.621  0.00  0.00    -0.203 NA
ATOM     16  H   UNL     1      35.040 -20.251 -20.914  0.00  0.00    +0.144 HD
ATOM     17  H   UNL     1      34.821 -18.795 -20.135  0.00  0.00    +0.144 HD
ENDBRANCH  12  15
ENDBRANCH   7  12
ENDBRANCH   2   6
BRANCH   3  18
ATOM     18  C   UNL     1      31.668 -11.668 -20.797  0.00  0.00    +0.152 C 
BRANCH  18  19
ATOM     19  S   UNL     1      32.534 -10.901 -22.184  0.00  0.00    -0.047 S 
BRANCH  19  31
ATOM     20  O   UNL     1      31.649  -8.863 -20.824  0.00  0.00    -0.262 OA
ATOM     21  N   UNL     1      32.961  -8.272 -22.683  0.00  0.00    -0.250 N 
ATOM     22  C   UNL     1      35.191  -7.450 -23.423  0.00  0.00    +0.027 C 
ATOM     23  C   UNL     1      34.569  -6.284 -24.161  0.00  0.00    +0.029 C 
ATOM     24  C   UNL     1      34.213  -8.612 -23.392  0.00  0.00    +0.099 C 
ATOM     25  C   UNL     1      33.186  -5.988 -23.644  0.00  0.00    -0.009 C 
ATOM     26  C   UNL     1      32.421  -6.950 -22.944  0.00  0.00    +0.051 C 
ATOM     27  C   UNL     1      32.650  -4.716 -23.920  0.00  0.00    -0.007 C 
ATOM     28  C   UNL     1      31.116  -6.587 -22.559  0.00  0.00    +0.014 C 
ATOM     29  C   UNL     1      31.368  -4.378 -23.506  0.00  0.00    -0.022 C 
ATOM     30  C   UNL     1      30.600  -5.316 -22.830  0.00  0.00    -0.003 C 
ATOM     31  C   UNL     1      32.326  -9.175 -21.799  0.00  0.00    +0.280 C 
ATOM     32  C   UNL     1      30.827  -3.015 -23.772  0.00  0.00    +0.031 C 
ENDBRANCH  19  31
ENDBRANCH  18  19
ENDBRANCH   3  18
TORSDOF 6
ENDMDL
