MODEL 1
REMARK VINA RESULT:     -12.0      0.000      0.000
REMARK  Name = 16040279
REMARK  5 active torsions:
REMARK  status: ('A' for Active; 'I' for Inactive)
REMARK    1  A    between atoms: N_2  and  C_21
REMARK    2  A    between atoms: C_3  and  C_11
REMARK    3  A    between atoms: C_4  and  N_17
REMARK    4  A    between atoms: C_21  and  C_22
REMARK    5  A    between atoms: C_22  and  C_25
REMARK                            x       y       z     vdW  Elec       q    Type
REMARK                         _______ _______ _______ _____ _____    ______ ____
ROOT
ATOM      1  O   UNL     1      34.180 -17.216 -25.213  0.00  0.00    -0.275 OA
ATOM      2  N   UNL     1      34.837 -17.153 -22.988  0.00  0.00    -0.281 N 
ATOM      3  C   UNL     1      33.612 -14.565 -22.742  0.00  0.00    +0.015 C 
ATOM      4  C   UNL     1      34.703 -14.979 -21.738  0.00  0.00    -0.041 C 
ATOM      5  C   UNL     1      34.756 -16.504 -21.681  0.00  0.00    +0.072 C 
ATOM      6  C   UNL     1      33.986 -15.119 -24.120  0.00  0.00    +0.088 C 
ATOM      7  C   UNL     1      34.310 -16.600 -24.153  0.00  0.00    +0.226 C 
ENDROOT
BRANCH   3  11
ATOM      8  F   UNL     1      31.663 -13.206 -21.190  0.00  0.00    -0.204 F 
ATOM      9  F   UNL     1      34.652 -10.178 -24.627  0.00  0.00    -0.202 F 
ATOM     10  F   UNL     1      32.737  -8.999 -23.072  0.00  0.00    -0.202 F 
ATOM     11  C   UNL     1      33.375 -13.066 -22.829  0.00  0.00    +0.006 C 
ATOM     12  C   UNL     1      32.399 -12.470 -22.035  0.00  0.00    +0.138 C 
ATOM     13  C   UNL     1      34.136 -12.298 -23.705  0.00  0.00    +0.030 C 
ATOM     14  C   UNL     1      33.921 -10.921 -23.787  0.00  0.00    +0.167 C 
ATOM     15  C   UNL     1      32.182 -11.094 -22.118  0.00  0.00    +0.061 C 
ATOM     16  C   UNL     1      32.945 -10.320 -22.993  0.00  0.00    +0.170 C 
ENDBRANCH   3  11
BRANCH   4  17
ATOM     17  N   UNL     1      34.430 -14.476 -20.390  0.00  0.00    +0.383 N 
ATOM     18  H   UNL     1      34.631 -13.476 -20.353  0.00  0.00    -0.089 HD
ATOM     19  H   UNL     1      35.021 -14.967 -19.718  0.00  0.00    -0.089 HD
ATOM     20  H   UNL     1      33.449 -14.635 -20.159  0.00  0.00    -0.089 HD
ENDBRANCH   4  17
BRANCH   2  21
ATOM     21  C   UNL     1      35.258 -18.548 -22.981  0.00  0.00    +0.098 C 
BRANCH  21  22
ATOM     22  C   UNL     1      35.907 -18.957 -21.660  0.00  0.00    +0.048 C 
BRANCH  22  25
ATOM     23  O   UNL     1      35.151 -22.452 -18.255  0.00  0.00    -0.435 OA
ATOM     24  O   UNL     1      32.757 -22.341 -18.505  0.00  0.00    -0.435 OA
ATOM     25  C   UNL     1      35.027 -19.855 -20.825  0.00  0.00    -0.017 C 
ATOM     26  C   UNL     1      35.617 -20.731 -19.924  0.00  0.00    +0.036 C 
ATOM     27  C   UNL     1      33.641 -19.781 -20.982  0.00  0.00    -0.001 C 
ATOM     28  C   UNL     1      34.771 -21.533 -19.183  0.00  0.00    +0.176 C 
ATOM     29  C   UNL     1      33.404 -21.470 -19.327  0.00  0.00    +0.176 C 
ATOM     30  C   UNL     1      32.807 -20.603 -20.219  0.00  0.00    +0.040 C 
ATOM     31  C   UNL     1      33.870 -22.959 -17.829  0.00  0.00    +0.429 C 
ENDBRANCH  22  25
ENDBRANCH  21  22
ENDBRANCH   2  21
TORSDOF 5
ENDMDL
MODEL 2
REMARK VINA RESULT:     -12.0      3.624      5.913
REMARK  Name = 16040279
REMARK  5 active torsions:
REMARK  status: ('A' for Active; 'I' for Inactive)
REMARK    1  A    between atoms: N_2  and  C_21
REMARK    2  A    between atoms: C_3  and  C_11
REMARK    3  A    between atoms: C_4  and  N_17
REMARK    4  A    between atoms: C_21  and  C_22
REMARK    5  A    between atoms: C_22  and  C_25
REMARK                            x       y       z     vdW  Elec       q    Type
REMARK                         _______ _______ _______ _____ _____    ______ ____
ROOT
ATOM      1  O   UNL     1      32.931 -21.202 -19.404  0.00  0.00    -0.275 OA
ATOM      2  N   UNL     1      35.247 -21.108 -19.520  0.00  0.00    -0.281 N 
ATOM      3  C   UNL     1      35.030 -18.752 -21.151  0.00  0.00    +0.015 C 
ATOM      4  C   UNL     1      36.324 -19.584 -21.201  0.00  0.00    -0.041 C 
ATOM      5  C   UNL     1      36.449 -20.365 -19.894  0.00  0.00    +0.072 C 
ATOM      6  C   UNL     1      33.844 -19.709 -21.008  0.00  0.00    +0.088 C 
ATOM      7  C   UNL     1      33.961 -20.717 -19.881  0.00  0.00    +0.226 C 
ENDROOT
BRANCH   3  11
ATOM      8  F   UNL     1      34.443 -19.712 -23.756  0.00  0.00    -0.204 F 
ATOM      9  F   UNL     1      34.823 -14.291 -23.134  0.00  0.00    -0.202 F 
ATOM     10  F   UNL     1      34.263 -15.353 -25.590  0.00  0.00    -0.202 F 
ATOM     11  C   UNL     1      34.823 -17.839 -22.348  0.00  0.00    +0.006 C 
ATOM     12  C   UNL     1      34.538 -18.384 -23.596  0.00  0.00    +0.138 C 
ATOM     13  C   UNL     1      34.921 -16.460 -22.187  0.00  0.00    +0.030 C 
ATOM     14  C   UNL     1      34.731 -15.618 -23.284  0.00  0.00    +0.167 C 
ATOM     15  C   UNL     1      34.349 -17.543 -24.694  0.00  0.00    +0.061 C 
ATOM     16  C   UNL     1      34.445 -16.160 -24.537  0.00  0.00    +0.170 C 
ENDBRANCH   3  11
BRANCH   4  17
ATOM     17  N   UNL     1      37.514 -18.743 -21.351  0.00  0.00    +0.383 N 
ATOM     18  H   UNL     1      37.325 -18.006 -22.030  0.00  0.00    -0.089 HD
ATOM     19  H   UNL     1      38.295 -19.314 -21.677  0.00  0.00    -0.089 HD
ATOM     20  H   UNL     1      37.751 -18.324 -20.452  0.00  0.00    -0.089 HD
ENDBRANCH   4  17
BRANCH   2  21
ATOM     21  C   UNL     1      35.428 -22.143 -18.510  0.00  0.00    +0.098 C 
BRANCH  21  22
ATOM     22  C   UNL     1      36.487 -21.771 -17.474  0.00  0.00    +0.048 C 
BRANCH  22  25
ATOM     23  O   UNL     1      38.313 -24.010 -13.470  0.00  0.00    -0.435 OA
ATOM     24  O   UNL     1      36.127 -24.661 -12.695  0.00  0.00    -0.435 OA
ATOM     25  C   UNL     1      36.353 -22.551 -16.190  0.00  0.00    -0.017 C 
ATOM     26  C   UNL     1      37.497 -22.879 -15.475  0.00  0.00    +0.036 C 
ATOM     27  C   UNL     1      35.079 -22.923 -15.753  0.00  0.00    -0.001 C 
ATOM     28  C   UNL     1      37.324 -23.593 -14.306  0.00  0.00    +0.176 C 
ATOM     29  C   UNL     1      36.075 -23.966 -13.864  0.00  0.00    +0.176 C 
ATOM     30  C   UNL     1      34.931 -23.645 -14.566  0.00  0.00    +0.040 C 
ATOM     31  C   UNL     1      37.547 -24.685 -12.451  0.00  0.00    +0.429 C 
ENDBRANCH  22  25
ENDBRANCH  21  22
ENDBRANCH   2  21
TORSDOF 5
ENDMDL
MODEL 3
REMARK VINA RESULT:     -11.7      3.331      5.646
REMARK  Name = 16040279
REMARK  5 active torsions:
REMARK  status: ('A' for Active; 'I' for Inactive)
REMARK    1  A    between atoms: N_2  and  C_21
REMARK    2  A    between atoms: C_3  and  C_11
REMARK    3  A    between atoms: C_4  and  N_17
REMARK    4  A    between atoms: C_21  and  C_22
REMARK    5  A    between atoms: C_22  and  C_25
REMARK                            x       y       z     vdW  Elec       q    Type
REMARK                         _______ _______ _______ _____ _____    ______ ____
ROOT
ATOM      1  O   UNL     1      32.984 -21.074 -19.571  0.00  0.00    -0.275 OA
ATOM      2  N   UNL     1      35.296 -20.999 -19.769  0.00  0.00    -0.281 N 
ATOM      3  C   UNL     1      35.043 -18.604 -21.337  0.00  0.00    +0.015 C 
ATOM      4  C   UNL     1      36.326 -19.447 -21.453  0.00  0.00    -0.041 C 
ATOM      5  C   UNL     1      36.490 -20.259 -20.170  0.00  0.00    +0.072 C 
ATOM      6  C   UNL     1      33.853 -19.553 -21.173  0.00  0.00    +0.088 C 
ATOM      7  C   UNL     1      34.001 -20.588 -20.074  0.00  0.00    +0.226 C 
ENDROOT
BRANCH   3  11
ATOM      8  F   UNL     1      34.414 -19.502 -23.955  0.00  0.00    -0.204 F 
ATOM      9  F   UNL     1      34.746 -14.096 -23.197  0.00  0.00    -0.202 F 
ATOM     10  F   UNL     1      34.148 -15.099 -25.669  0.00  0.00    -0.202 F 
ATOM     11  C   UNL     1      34.802 -17.662 -22.506  0.00  0.00    +0.006 C 
ATOM     12  C   UNL     1      34.498 -18.178 -23.762  0.00  0.00    +0.138 C 
ATOM     13  C   UNL     1      34.887 -16.287 -22.311  0.00  0.00    +0.030 C 
ATOM     14  C   UNL     1      34.666 -15.419 -23.381  0.00  0.00    +0.167 C 
ATOM     15  C   UNL     1      34.277 -17.311 -24.833  0.00  0.00    +0.061 C 
ATOM     16  C   UNL     1      34.361 -15.932 -24.642  0.00  0.00    +0.170 C 
ENDBRANCH   3  11
BRANCH   4  17
ATOM     17  N   UNL     1      37.518 -18.614 -21.628  0.00  0.00    +0.383 N 
ATOM     18  H   UNL     1      37.314 -17.863 -22.288  0.00  0.00    -0.089 HD
ATOM     19  H   UNL     1      38.282 -19.186 -21.990  0.00  0.00    -0.089 HD
ATOM     20  H   UNL     1      37.788 -18.213 -20.730  0.00  0.00    -0.089 HD
ENDBRANCH   4  17
BRANCH   2  21
ATOM     21  C   UNL     1      35.503 -22.058 -18.789  0.00  0.00    +0.098 C 
BRANCH  21  22
ATOM     22  C   UNL     1      36.568 -21.699 -17.755  0.00  0.00    +0.048 C 
BRANCH  22  25
ATOM     23  O   UNL     1      33.684 -23.779 -14.330  0.00  0.00    -0.435 OA
ATOM     24  O   UNL     1      35.520 -24.074 -12.797  0.00  0.00    -0.435 OA
ATOM     25  C   UNL     1      36.321 -22.336 -16.410  0.00  0.00    -0.017 C 
ATOM     26  C   UNL     1      35.036 -22.743 -16.079  0.00  0.00    +0.036 C 
ATOM     27  C   UNL     1      37.395 -22.500 -15.531  0.00  0.00    -0.001 C 
ATOM     28  C   UNL     1      34.859 -23.320 -14.838  0.00  0.00    +0.176 C 
ATOM     29  C   UNL     1      35.908 -23.487 -13.962  0.00  0.00    +0.176 C 
ATOM     30  C   UNL     1      37.190 -23.087 -14.280  0.00  0.00    +0.040 C 
ATOM     31  C   UNL     1      34.110 -24.256 -13.037  0.00  0.00    +0.429 C 
ENDBRANCH  22  25
ENDBRANCH  21  22
ENDBRANCH   2  21
TORSDOF 5
ENDMDL
MODEL 4
REMARK VINA RESULT:     -11.4      1.533      2.712
REMARK  Name = 16040279
REMARK  5 active torsions:
REMARK  status: ('A' for Active; 'I' for Inactive)
REMARK    1  A    between atoms: N_2  and  C_21
REMARK    2  A    between atoms: C_3  and  C_11
REMARK    3  A    between atoms: C_4  and  N_17
REMARK    4  A    between atoms: C_21  and  C_22
REMARK    5  A    between atoms: C_22  and  C_25
REMARK                            x       y       z     vdW  Elec       q    Type
REMARK                         _______ _______ _______ _____ _____    ______ ____
ROOT
ATOM      1  O   UNL     1      35.068 -16.406 -20.192  0.00  0.00    -0.275 OA
ATOM      2  N   UNL     1      34.671 -16.610 -22.470  0.00  0.00    -0.281 N 
ATOM      3  C   UNL     1      34.008 -13.815 -22.564  0.00  0.00    +0.015 C 
ATOM      4  C   UNL     1      33.493 -14.748 -23.674  0.00  0.00    -0.041 C 
ATOM      5  C   UNL     1      34.415 -15.962 -23.755  0.00  0.00    +0.072 C 
ATOM      6  C   UNL     1      33.973 -14.577 -21.236  0.00  0.00    +0.088 C 
ATOM      7  C   UNL     1      34.652 -15.933 -21.253  0.00  0.00    +0.226 C 
ENDROOT
BRANCH   3  11
ATOM      8  F   UNL     1      34.658 -11.481 -24.042  0.00  0.00    -0.204 F 
ATOM      9  F   UNL     1      30.426 -11.138 -20.594  0.00  0.00    -0.202 F 
ATOM     10  F   UNL     1      31.163  -8.965 -22.081  0.00  0.00    -0.202 F 
ATOM     11  C   UNL     1      33.243 -12.507 -22.436  0.00  0.00    +0.006 C 
ATOM     12  C   UNL     1      33.622 -11.404 -23.195  0.00  0.00    +0.138 C 
ATOM     13  C   UNL     1      32.167 -12.423 -21.557  0.00  0.00    +0.030 C 
ATOM     14  C   UNL     1      31.463 -11.224 -21.437  0.00  0.00    +0.167 C 
ATOM     15  C   UNL     1      32.919 -10.205 -23.075  0.00  0.00    +0.061 C 
ATOM     16  C   UNL     1      31.838 -10.116 -22.196  0.00  0.00    +0.170 C 
ENDBRANCH   3  11
BRANCH   4  17
ATOM     17  N   UNL     1      33.479 -14.091 -24.983  0.00  0.00    +0.383 N 
ATOM     18  H   UNL     1      34.186 -13.355 -25.001  0.00  0.00    -0.089 HD
ATOM     19  H   UNL     1      32.558 -13.682 -25.149  0.00  0.00    -0.089 HD
ATOM     20  H   UNL     1      33.683 -14.776 -25.711  0.00  0.00    -0.089 HD
ENDBRANCH   4  17
BRANCH   2  21
ATOM     21  C   UNL     1      35.223 -17.957 -22.535  0.00  0.00    +0.098 C 
BRANCH  21  22
ATOM     22  C   UNL     1      34.156 -19.036 -22.365  0.00  0.00    +0.048 C 
BRANCH  22  25
ATOM     23  O   UNL     1      32.702 -21.978 -18.677  0.00  0.00    -0.435 OA
ATOM     24  O   UNL     1      34.964 -22.387 -17.956  0.00  0.00    -0.435 OA
ATOM     25  C   UNL     1      34.411 -19.934 -21.180  0.00  0.00    -0.017 C 
ATOM     26  C   UNL     1      33.332 -20.512 -20.525  0.00  0.00    +0.036 C 
ATOM     27  C   UNL     1      35.728 -20.161 -20.773  0.00  0.00    -0.001 C 
ATOM     28  C   UNL     1      33.614 -21.326 -19.446  0.00  0.00    +0.176 C 
ATOM     29  C   UNL     1      34.907 -21.558 -19.034  0.00  0.00    +0.176 C 
ATOM     30  C   UNL     1      35.987 -20.990 -19.678  0.00  0.00    +0.040 C 
ATOM     31  C   UNL     1      33.564 -22.649 -17.735  0.00  0.00    +0.429 C 
ENDBRANCH  22  25
ENDBRANCH  21  22
ENDBRANCH   2  21
TORSDOF 5
ENDMDL
MODEL 5
REMARK VINA RESULT:     -11.4      4.096      6.882
REMARK  Name = 16040279
REMARK  5 active torsions:
REMARK  status: ('A' for Active; 'I' for Inactive)
REMARK    1  A    between atoms: N_2  and  C_21
REMARK    2  A    between atoms: C_3  and  C_11
REMARK    3  A    between atoms: C_4  and  N_17
REMARK    4  A    between atoms: C_21  and  C_22
REMARK    5  A    between atoms: C_22  and  C_25
REMARK                            x       y       z     vdW  Elec       q    Type
REMARK                         _______ _______ _______ _____ _____    ______ ____
ROOT
ATOM      1  O   UNL     1      32.439 -21.960 -18.717  0.00  0.00    -0.275 OA
ATOM      2  N   UNL     1      34.755 -21.909 -18.577  0.00  0.00    -0.281 N 
ATOM      3  C   UNL     1      34.773 -19.641 -20.341  0.00  0.00    +0.015 C 
ATOM      4  C   UNL     1      36.045 -20.495 -20.203  0.00  0.00    -0.041 C 
ATOM      5  C   UNL     1      36.007 -21.207 -18.852  0.00  0.00    +0.072 C 
ATOM      6  C   UNL     1      33.556 -20.569 -20.283  0.00  0.00    +0.088 C 
ATOM      7  C   UNL     1      33.525 -21.518 -19.100  0.00  0.00    +0.226 C 
ENDROOT
BRANCH   3  11
ATOM      8  F   UNL     1      35.304 -16.853 -20.358  0.00  0.00    -0.204 F 
ATOM      9  F   UNL     1      34.040 -19.169 -25.149  0.00  0.00    -0.202 F 
ATOM     10  F   UNL     1      34.575 -16.491 -25.020  0.00  0.00    -0.202 F 
ATOM     11  C   UNL     1      34.720 -18.790 -21.600  0.00  0.00    +0.006 C 
ATOM     12  C   UNL     1      34.993 -17.427 -21.529  0.00  0.00    +0.138 C 
ATOM     13  C   UNL     1      34.398 -19.381 -22.818  0.00  0.00    +0.030 C 
ATOM     14  C   UNL     1      34.349 -18.604 -23.975  0.00  0.00    +0.167 C 
ATOM     15  C   UNL     1      34.944 -16.649 -22.686  0.00  0.00    +0.061 C 
ATOM     16  C   UNL     1      34.622 -17.238 -23.909  0.00  0.00    +0.170 C 
ENDBRANCH   3  11
BRANCH   4  17
ATOM     17  N   UNL     1      37.262 -19.683 -20.262  0.00  0.00    +0.383 N 
ATOM     18  H   UNL     1      37.627 -19.547 -19.320  0.00  0.00    -0.089 HD
ATOM     19  H   UNL     1      37.046 -18.776 -20.678  0.00  0.00    -0.089 HD
ATOM     20  H   UNL     1      37.962 -20.159 -20.832  0.00  0.00    -0.089 HD
ENDBRANCH   4  17
BRANCH   2  21
ATOM     21  C   UNL     1      34.800 -22.891 -17.502  0.00  0.00    +0.098 C 
BRANCH  21  22
ATOM     22  C   UNL     1      35.734 -22.475 -16.367  0.00  0.00    +0.048 C 
BRANCH  22  25
ATOM     23  O   UNL     1      36.698 -23.775 -11.702  0.00  0.00    -0.435 OA
ATOM     24  O   UNL     1      34.539 -24.809 -11.423  0.00  0.00    -0.435 OA
ATOM     25  C   UNL     1      35.379 -23.113 -15.047  0.00  0.00    -0.017 C 
ATOM     26  C   UNL     1      36.306 -23.093 -14.014  0.00  0.00    +0.036 C 
ATOM     27  C   UNL     1      34.124 -23.710 -14.900  0.00  0.00    -0.001 C 
ATOM     28  C   UNL     1      35.935 -23.690 -12.826  0.00  0.00    +0.176 C 
ATOM     29  C   UNL     1      34.702 -24.281 -12.667  0.00  0.00    +0.176 C 
ATOM     30  C   UNL     1      33.773 -24.308 -13.686  0.00  0.00    +0.040 C 
ATOM     31  C   UNL     1      35.807 -24.485 -10.818  0.00  0.00    +0.429 C 
ENDBRANCH  22  25
ENDBRANCH  21  22
ENDBRANCH   2  21
TORSDOF 5
ENDMDL
MODEL 6
REMARK VINA RESULT:     -11.3      1.329      2.118
REMARK  Name = 16040279
REMARK  5 active torsions:
REMARK  status: ('A' for Active; 'I' for Inactive)
REMARK    1  A    between atoms: N_2  and  C_21
REMARK    2  A    between atoms: C_3  and  C_11
REMARK    3  A    between atoms: C_4  and  N_17
REMARK    4  A    between atoms: C_21  and  C_22
REMARK    5  A    between atoms: C_22  and  C_25
REMARK                            x       y       z     vdW  Elec       q    Type
REMARK                         _______ _______ _______ _____ _____    ______ ____
ROOT
ATOM      1  O   UNL     1      33.388 -15.577 -25.735  0.00  0.00    -0.275 OA
ATOM      2  N   UNL     1      34.461 -15.897 -23.703  0.00  0.00    -0.281 N 
ATOM      3  C   UNL     1      33.064 -13.615 -22.652  0.00  0.00    +0.015 C 
ATOM      4  C   UNL     1      34.366 -14.078 -21.974  0.00  0.00    -0.041 C 
ATOM      5  C   UNL     1      34.577 -15.558 -22.285  0.00  0.00    +0.072 C 
ATOM      6  C   UNL     1      33.211 -13.807 -24.164  0.00  0.00    +0.088 C 
ATOM      7  C   UNL     1      33.664 -15.188 -24.598  0.00  0.00    +0.226 C 
ENDROOT
BRANCH   3  11
ATOM      8  F   UNL     1      31.244 -12.910 -20.592  0.00  0.00    -0.204 F 
ATOM      9  F   UNL     1      33.374  -8.819 -23.530  0.00  0.00    -0.202 F 
ATOM     10  F   UNL     1      31.606  -8.283 -21.514  0.00  0.00    -0.202 F 
ATOM     11  C   UNL     1      32.670 -12.180 -22.344  0.00  0.00    +0.006 C 
ATOM     12  C   UNL     1      31.769 -11.913 -21.316  0.00  0.00    +0.138 C 
ATOM     13  C   UNL     1      33.213 -11.141 -23.093  0.00  0.00    +0.030 C 
ATOM     14  C   UNL     1      32.854  -9.822 -22.812  0.00  0.00    +0.167 C 
ATOM     15  C   UNL     1      31.409 -10.594 -21.036  0.00  0.00    +0.061 C 
ATOM     16  C   UNL     1      31.952  -9.549 -21.784  0.00  0.00    +0.170 C 
ENDBRANCH   3  11
BRANCH   4  17
ATOM     17  N   UNL     1      34.317 -13.915 -20.519  0.00  0.00    +0.383 N 
ATOM     18  H   UNL     1      34.885 -14.637 -20.076  0.00  0.00    -0.089 HD
ATOM     19  H   UNL     1      33.350 -13.999 -20.200  0.00  0.00    -0.089 HD
ATOM     20  H   UNL     1      34.678 -12.995 -20.267  0.00  0.00    -0.089 HD
ENDBRANCH   4  17
BRANCH   2  21
ATOM     21  C   UNL     1      35.008 -17.189 -24.094  0.00  0.00    +0.098 C 
BRANCH  21  22
ATOM     22  C   UNL     1      34.234 -18.360 -23.491  0.00  0.00    +0.048 C 
BRANCH  22  25
ATOM     23  O   UNL     1      34.432 -21.333 -19.554  0.00  0.00    -0.435 OA
ATOM     24  O   UNL     1      36.719 -20.743 -19.079  0.00  0.00    -0.435 OA
ATOM     25  C   UNL     1      34.935 -18.984 -22.310  0.00  0.00    -0.017 C 
ATOM     26  C   UNL     1      34.246 -19.890 -21.516  0.00  0.00    +0.036 C 
ATOM     27  C   UNL     1      36.261 -18.631 -22.046  0.00  0.00    -0.001 C 
ATOM     28  C   UNL     1      34.929 -20.434 -20.446  0.00  0.00    +0.176 C 
ATOM     29  C   UNL     1      36.236 -20.096 -20.175  0.00  0.00    +0.176 C 
ATOM     30  C   UNL     1      36.930 -19.197 -20.957  0.00  0.00    +0.040 C 
ATOM     31  C   UNL     1      35.572 -21.525 -18.692  0.00  0.00    +0.429 C 
ENDBRANCH  22  25
ENDBRANCH  21  22
ENDBRANCH   2  21
TORSDOF 5
ENDMDL
MODEL 7
REMARK VINA RESULT:     -11.1      3.871      6.515
REMARK  Name = 16040279
REMARK  5 active torsions:
REMARK  status: ('A' for Active; 'I' for Inactive)
REMARK    1  A    between atoms: N_2  and  C_21
REMARK    2  A    between atoms: C_3  and  C_11
REMARK    3  A    between atoms: C_4  and  N_17
REMARK    4  A    between atoms: C_21  and  C_22
REMARK    5  A    between atoms: C_22  and  C_25
REMARK                            x       y       z     vdW  Elec       q    Type
REMARK                         _______ _______ _______ _____ _____    ______ ____
ROOT
ATOM      1  O   UNL     1      32.522 -21.903 -18.915  0.00  0.00    -0.275 OA
ATOM      2  N   UNL     1      34.842 -21.888 -18.864  0.00  0.00    -0.281 N 
ATOM      3  C   UNL     1      34.822 -19.503 -20.467  0.00  0.00    +0.015 C 
ATOM      4  C   UNL     1      36.087 -20.379 -20.438  0.00  0.00    -0.041 C 
ATOM      5  C   UNL     1      36.092 -21.182 -19.140  0.00  0.00    +0.072 C 
ATOM      6  C   UNL     1      33.597 -20.420 -20.425  0.00  0.00    +0.088 C 
ATOM      7  C   UNL     1      33.599 -21.447 -19.309  0.00  0.00    +0.226 C 
ENDROOT
BRANCH   3  11
ATOM      8  F   UNL     1      35.232 -16.700 -20.282  0.00  0.00    -0.204 F 
ATOM      9  F   UNL     1      34.069 -18.717 -25.231  0.00  0.00    -0.202 F 
ATOM     10  F   UNL     1      34.488 -16.035 -24.907  0.00  0.00    -0.202 F 
ATOM     11  C   UNL     1      34.732 -18.566 -21.662  0.00  0.00    +0.006 C 
ATOM     12  C   UNL     1      34.946 -17.202 -21.492  0.00  0.00    +0.138 C 
ATOM     13  C   UNL     1      34.436 -19.082 -22.920  0.00  0.00    +0.030 C 
ATOM     14  C   UNL     1      34.354 -18.226 -24.019  0.00  0.00    +0.167 C 
ATOM     15  C   UNL     1      34.863 -16.345 -22.590  0.00  0.00    +0.061 C 
ATOM     16  C   UNL     1      34.567 -16.858 -23.853  0.00  0.00    +0.170 C 
ENDBRANCH   3  11
BRANCH   4  17
ATOM     17  N   UNL     1      37.312 -19.577 -20.490  0.00  0.00    +0.383 N 
ATOM     18  H   UNL     1      37.806 -19.767 -21.362  0.00  0.00    -0.089 HD
ATOM     19  H   UNL     1      37.912 -19.821 -19.700  0.00  0.00    -0.089 HD
ATOM     20  H   UNL     1      37.074 -18.586 -20.443  0.00  0.00    -0.089 HD
ENDBRANCH   4  17
BRANCH   2  21
ATOM     21  C   UNL     1      34.915 -22.942 -17.861  0.00  0.00    +0.098 C 
BRANCH  21  22
ATOM     22  C   UNL     1      35.138 -22.395 -16.452  0.00  0.00    +0.048 C 
BRANCH  22  25
ATOM     23  O   UNL     1      30.898 -24.161 -14.640  0.00  0.00    -0.435 OA
ATOM     24  O   UNL     1      31.966 -25.009 -12.653  0.00  0.00    -0.435 OA
ATOM     25  C   UNL     1      34.313 -23.105 -15.408  0.00  0.00    -0.017 C 
ATOM     26  C   UNL     1      32.948 -23.258 -15.611  0.00  0.00    +0.036 C 
ATOM     27  C   UNL     1      34.945 -23.591 -14.260  0.00  0.00    -0.001 C 
ATOM     28  C   UNL     1      32.236 -23.914 -14.628  0.00  0.00    +0.176 C 
ATOM     29  C   UNL     1      32.846 -24.397 -13.492  0.00  0.00    +0.176 C 
ATOM     30  C   UNL     1      34.201 -24.252 -13.279  0.00  0.00    +0.040 C 
ATOM     31  C   UNL     1      30.734 -24.855 -13.387  0.00  0.00    +0.429 C 
ENDBRANCH  22  25
ENDBRANCH  21  22
ENDBRANCH   2  21
TORSDOF 5
ENDMDL
MODEL 8
REMARK VINA RESULT:     -11.0      4.043      6.750
REMARK  Name = 16040279
REMARK  5 active torsions:
REMARK  status: ('A' for Active; 'I' for Inactive)
REMARK    1  A    between atoms: N_2  and  C_21
REMARK    2  A    between atoms: C_3  and  C_11
REMARK    3  A    between atoms: C_4  and  N_17
REMARK    4  A    between atoms: C_21  and  C_22
REMARK    5  A    between atoms: C_22  and  C_25
REMARK                            x       y       z     vdW  Elec       q    Type
REMARK                         _______ _______ _______ _____ _____    ______ ____
ROOT
ATOM      1  O   UNL     1      36.816 -22.030 -18.193  0.00  0.00    -0.275 OA
ATOM      2  N   UNL     1      34.517 -22.170 -18.476  0.00  0.00    -0.281 N 
ATOM      3  C   UNL     1      34.715 -20.325 -20.669  0.00  0.00    +0.015 C 
ATOM      4  C   UNL     1      33.365 -20.495 -19.950  0.00  0.00    -0.041 C 
ATOM      5  C   UNL     1      33.338 -21.870 -19.287  0.00  0.00    +0.072 C 
ATOM      6  C   UNL     1      35.834 -20.416 -19.629  0.00  0.00    +0.088 C 
ATOM      7  C   UNL     1      35.777 -21.633 -18.725  0.00  0.00    +0.226 C 
ENDROOT
BRANCH   3  11
ATOM      8  F   UNL     1      34.992 -20.260 -23.493  0.00  0.00    -0.204 F 
ATOM      9  F   UNL     1      34.936 -15.448 -20.893  0.00  0.00    -0.202 F 
ATOM     10  F   UNL     1      35.198 -15.534 -23.613  0.00  0.00    -0.202 F 
ATOM     11  C   UNL     1      34.845 -19.035 -21.465  0.00  0.00    +0.006 C 
ATOM     12  C   UNL     1      34.978 -19.084 -22.849  0.00  0.00    +0.138 C 
ATOM     13  C   UNL     1      34.831 -17.813 -20.801  0.00  0.00    +0.030 C 
ATOM     14  C   UNL     1      34.950 -16.627 -21.527  0.00  0.00    +0.167 C 
ATOM     15  C   UNL     1      35.098 -17.899 -23.576  0.00  0.00    +0.061 C 
ATOM     16  C   UNL     1      35.083 -16.671 -22.915  0.00  0.00    +0.170 C 
ENDBRANCH   3  11
BRANCH   4  17
ATOM     17  N   UNL     1      32.233 -20.407 -20.875  0.00  0.00    +0.383 N 
ATOM     18  H   UNL     1      31.411 -20.069 -20.375  0.00  0.00    -0.089 HD
ATOM     19  H   UNL     1      32.039 -21.330 -21.265  0.00  0.00    -0.089 HD
ATOM     20  H   UNL     1      32.461 -19.760 -21.631  0.00  0.00    -0.089 HD
ENDBRANCH   4  17
BRANCH   2  21
ATOM     21  C   UNL     1      34.380 -23.281 -17.543  0.00  0.00    +0.098 C 
BRANCH  21  22
ATOM     22  C   UNL     1      34.023 -22.820 -16.131  0.00  0.00    +0.048 C 
BRANCH  22  25
ATOM     23  O   UNL     1      29.127 -22.690 -16.755  0.00  0.00    -0.435 OA
ATOM     24  O   UNL     1      28.724 -24.023 -14.789  0.00  0.00    -0.435 OA
ATOM     25  C   UNL     1      32.607 -23.164 -15.740  0.00  0.00    -0.017 C 
ATOM     26  C   UNL     1      31.558 -22.703 -16.524  0.00  0.00    +0.036 C 
ATOM     27  C   UNL     1      32.388 -23.937 -14.597  0.00  0.00    -0.001 C 
ATOM     28  C   UNL     1      30.280 -23.043 -16.126  0.00  0.00    +0.176 C 
ATOM     29  C   UNL     1      30.051 -23.804 -15.002  0.00  0.00    +0.176 C 
ATOM     30  C   UNL     1      31.085 -24.267 -14.216  0.00  0.00    +0.040 C 
ATOM     31  C   UNL     1      28.146 -23.315 -15.903  0.00  0.00    +0.429 C 
ENDBRANCH  22  25
ENDBRANCH  21  22
ENDBRANCH   2  21
TORSDOF 5
ENDMDL
MODEL 9
REMARK VINA RESULT:     -11.0      1.507      2.704
REMARK  Name = 16040279
REMARK  5 active torsions:
REMARK  status: ('A' for Active; 'I' for Inactive)
REMARK    1  A    between atoms: N_2  and  C_21
REMARK    2  A    between atoms: C_3  and  C_11
REMARK    3  A    between atoms: C_4  and  N_17
REMARK    4  A    between atoms: C_21  and  C_22
REMARK    5  A    between atoms: C_22  and  C_25
REMARK                            x       y       z     vdW  Elec       q    Type
REMARK                         _______ _______ _______ _____ _____    ______ ____
ROOT
ATOM      1  O   UNL     1      33.323 -15.588 -25.816  0.00  0.00    -0.275 OA
ATOM      2  N   UNL     1      34.438 -15.925 -23.808  0.00  0.00    -0.281 N 
ATOM      3  C   UNL     1      33.014 -13.694 -22.689  0.00  0.00    +0.015 C 
ATOM      4  C   UNL     1      34.336 -14.142 -22.042  0.00  0.00    -0.041 C 
ATOM      5  C   UNL     1      34.572 -15.611 -22.387  0.00  0.00    +0.072 C 
ATOM      6  C   UNL     1      33.138 -13.853 -24.206  0.00  0.00    +0.088 C 
ATOM      7  C   UNL     1      33.612 -15.215 -24.676  0.00  0.00    +0.226 C 
ENDROOT
BRANCH   3  11
ATOM      8  F   UNL     1      34.070 -11.403 -23.989  0.00  0.00    -0.204 F 
ATOM      9  F   UNL     1      30.352 -10.541 -20.071  0.00  0.00    -0.202 F 
ATOM     10  F   UNL     1      31.453  -8.424 -21.406  0.00  0.00    -0.202 F 
ATOM     11  C   UNL     1      32.595 -12.273 -22.345  0.00  0.00    +0.006 C 
ATOM     12  C   UNL     1      33.159 -11.199 -23.027  0.00  0.00    +0.138 C 
ATOM     13  C   UNL     1      31.649 -12.057 -21.347  0.00  0.00    +0.030 C 
ATOM     14  C   UNL     1      31.262 -10.754 -21.029  0.00  0.00    +0.167 C 
ATOM     15  C   UNL     1      32.773  -9.896 -22.709  0.00  0.00    +0.061 C 
ATOM     16  C   UNL     1      31.824  -9.675 -21.710  0.00  0.00    +0.170 C 
ENDBRANCH   3  11
BRANCH   4  17
ATOM     17  N   UNL     1      34.309 -14.009 -20.584  0.00  0.00    +0.383 N 
ATOM     18  H   UNL     1      35.233 -14.219 -20.206  0.00  0.00    -0.089 HD
ATOM     19  H   UNL     1      33.626 -14.662 -20.196  0.00  0.00    -0.089 HD
ATOM     20  H   UNL     1      34.048 -13.055 -20.334  0.00  0.00    -0.089 HD
ENDBRANCH   4  17
BRANCH   2  21
ATOM     21  C   UNL     1      35.005 -17.197 -24.235  0.00  0.00    +0.098 C 
BRANCH  21  22
ATOM     22  C   UNL     1      34.266 -18.396 -23.642  0.00  0.00    +0.048 C 
BRANCH  22  25
ATOM     23  O   UNL     1      34.460 -21.260 -19.624  0.00  0.00    -0.435 OA
ATOM     24  O   UNL     1      36.737 -20.633 -19.146  0.00  0.00    -0.435 OA
ATOM     25  C   UNL     1      34.963 -18.980 -22.438  0.00  0.00    -0.017 C 
ATOM     26  C   UNL     1      34.277 -19.872 -21.625  0.00  0.00    +0.036 C 
ATOM     27  C   UNL     1      36.283 -18.607 -22.172  0.00  0.00    -0.001 C 
ATOM     28  C   UNL     1      34.955 -20.379 -20.536  0.00  0.00    +0.176 C 
ATOM     29  C   UNL     1      36.256 -20.021 -20.262  0.00  0.00    +0.176 C 
ATOM     30  C   UNL     1      36.948 -19.135 -21.063  0.00  0.00    +0.040 C 
ATOM     31  C   UNL     1      35.594 -21.416 -18.747  0.00  0.00    +0.429 C 
ENDBRANCH  22  25
ENDBRANCH  21  22
ENDBRANCH   2  21
TORSDOF 5
ENDMDL
