MODEL 1
REMARK VINA RESULT:     -12.8      0.000      0.000
REMARK  Name = 23656870
REMARK  4 active torsions:
REMARK  status: ('A' for Active; 'I' for Inactive)
REMARK    1  A    between atoms: N_2  and  C_25
REMARK    2  A    between atoms: N_3  and  C_14
REMARK    3  A    between atoms: C_10  and  C_32
REMARK    4  A    between atoms: C_16  and  N_21
REMARK                            x       y       z     vdW  Elec       q    Type
REMARK                         _______ _______ _______ _____ _____    ______ ____
ROOT
ATOM      1  N   UNL     1      31.828 -23.446 -14.743  0.00  0.00    -0.123 N 
ATOM      2  N   UNL     1      34.080 -23.983 -14.281  0.00  0.00    -0.274 N 
ATOM      3  N   UNL     1      32.693 -22.298 -18.478  0.00  0.00    -0.238 N 
ATOM      4  N   UNL     1      33.391 -23.140 -16.386  0.00  0.00    -0.295 NA
ATOM      5  N   UNL     1      31.102 -22.608 -16.818  0.00  0.00    -0.314 NA
ATOM      6  N   UNL     1      31.423 -23.806 -13.510  0.00  0.00    -0.170 NA
ATOM      7  C   UNL     1      33.145 -23.520 -15.166  0.00  0.00    +0.279 C 
ATOM      8  C   UNL     1      30.825 -23.000 -15.554  0.00  0.00    +0.219 C 
ATOM      9  C   UNL     1      32.358 -22.685 -17.203  0.00  0.00    +0.207 C 
ATOM     10  C   UNL     1      29.679 -23.072 -14.795  0.00  0.00    +0.203 C 
ATOM     11  C   UNL     1      30.108 -23.573 -13.549  0.00  0.00    +0.116 C 
ATOM     12  H   UNL     1      33.743 -24.235 -13.391  0.00  0.00    +0.156 HD
ATOM     13  H   UNL     1      31.996 -22.418 -19.163  0.00  0.00    +0.166 HD
ENDROOT
BRANCH   3  14
ATOM     14  C   UNL     1      33.897 -21.756 -18.923  0.00  0.00    +0.060 C 
ATOM     15  C   UNL     1      33.907 -20.859 -19.991  0.00  0.00    +0.030 C 
ATOM     16  C   UNL     1      35.112 -20.316 -20.435  0.00  0.00    +0.052 C 
ATOM     17  C   UNL     1      35.094 -22.111 -18.299  0.00  0.00    +0.015 C 
ATOM     18  C   UNL     1      36.308 -20.671 -19.812  0.00  0.00    +0.015 C 
ATOM     19  C   UNL     1      36.300 -21.568 -18.744  0.00  0.00    +0.003 C 
BRANCH  16  21
ATOM     20  O   UNL     1      35.243 -17.308 -20.464  0.00  0.00    -0.275 OA
ATOM     21  N   UNL     1      35.122 -19.420 -21.504  0.00  0.00    -0.284 N 
ATOM     22  C   UNL     1      35.183 -18.020 -21.460  0.00  0.00    +0.227 C 
ATOM     23  C   UNL     1      35.173 -17.416 -22.842  0.00  0.00    +0.095 C 
ATOM     24  H   UNL     1      35.081 -19.821 -22.404  0.00  0.00    +0.155 HD
ENDBRANCH  16  21
ENDBRANCH   3  14
BRANCH   2  25
ATOM     25  C   UNL     1      35.454 -24.146 -14.480  0.00  0.00    +0.051 C 
ATOM     26  C   UNL     1      36.036 -25.404 -14.332  0.00  0.00    +0.015 C 
ATOM     27  C   UNL     1      36.243 -23.049 -14.827  0.00  0.00    +0.015 C 
ATOM     28  C   UNL     1      37.407 -25.567 -14.531  0.00  0.00    +0.001 C 
ATOM     29  C   UNL     1      37.614 -23.211 -15.027  0.00  0.00    +0.001 C 
ATOM     30  C   UNL     1      38.197 -24.470 -14.878  0.00  0.00    +0.000 C 
ENDBRANCH   2  25
BRANCH  10  32
ATOM     31  N   UNL     1      27.293 -22.419 -15.533  0.00  0.00    -0.195 NA
ATOM     32  C   UNL     1      28.366 -22.713 -15.201  0.00  0.00    +0.087 C 
ENDBRANCH  10  32
TORSDOF 4
ENDMDL
MODEL 2
REMARK VINA RESULT:     -11.9      2.183      5.716
REMARK  Name = 23656870
REMARK  4 active torsions:
REMARK  status: ('A' for Active; 'I' for Inactive)
REMARK    1  A    between atoms: N_2  and  C_25
REMARK    2  A    between atoms: N_3  and  C_14
REMARK    3  A    between atoms: C_10  and  C_32
REMARK    4  A    between atoms: C_16  and  N_21
REMARK                            x       y       z     vdW  Elec       q    Type
REMARK                         _______ _______ _______ _____ _____    ______ ____
ROOT
ATOM      1  N   UNL     1      36.285 -24.969 -13.760  0.00  0.00    -0.123 N 
ATOM      2  N   UNL     1      33.941 -24.779 -13.560  0.00  0.00    -0.274 N 
ATOM      3  N   UNL     1      36.415 -22.298 -16.739  0.00  0.00    -0.238 N 
ATOM      4  N   UNL     1      35.174 -23.533 -15.154  0.00  0.00    -0.295 NA
ATOM      5  N   UNL     1      37.547 -23.750 -15.327  0.00  0.00    -0.314 NA
ATOM      6  N   UNL     1      36.360 -25.876 -12.768  0.00  0.00    -0.170 NA
ATOM      7  C   UNL     1      35.097 -24.397 -14.184  0.00  0.00    +0.279 C 
ATOM      8  C   UNL     1      37.489 -24.650 -14.320  0.00  0.00    +0.219 C 
ATOM      9  C   UNL     1      36.409 -23.218 -15.717  0.00  0.00    +0.207 C 
ATOM     10  C   UNL     1      38.420 -25.405 -13.645  0.00  0.00    +0.203 C 
ATOM     11  C   UNL     1      37.669 -26.139 -12.704  0.00  0.00    +0.116 C 
ATOM     12  H   UNL     1      34.039 -25.445 -12.841  0.00  0.00    +0.156 HD
ATOM     13  H   UNL     1      37.228 -21.751 -16.823  0.00  0.00    +0.166 HD
ENDROOT
BRANCH   3  14
ATOM     14  C   UNL     1      35.410 -22.044 -17.671  0.00  0.00    +0.060 C 
ATOM     15  C   UNL     1      35.717 -21.399 -18.869  0.00  0.00    +0.030 C 
ATOM     16  C   UNL     1      34.713 -21.146 -19.802  0.00  0.00    +0.052 C 
ATOM     17  C   UNL     1      34.098 -22.436 -17.406  0.00  0.00    +0.015 C 
ATOM     18  C   UNL     1      33.400 -21.537 -19.538  0.00  0.00    +0.015 C 
ATOM     19  C   UNL     1      33.092 -22.183 -18.340  0.00  0.00    +0.003 C 
BRANCH  16  21
ATOM     20  O   UNL     1      35.650 -18.332 -20.320  0.00  0.00    -0.275 OA
ATOM     21  N   UNL     1      35.019 -20.500 -21.000  0.00  0.00    -0.284 N 
ATOM     22  C   UNL     1      35.452 -19.180 -21.185  0.00  0.00    +0.227 C 
ATOM     23  C   UNL     1      35.676 -18.863 -22.643  0.00  0.00    +0.095 C 
ATOM     24  H   UNL     1      34.918 -21.038 -21.819  0.00  0.00    +0.155 HD
ENDBRANCH  16  21
ENDBRANCH   3  14
BRANCH   2  25
ATOM     25  C   UNL     1      32.637 -24.344 -13.812  0.00  0.00    +0.051 C 
ATOM     26  C   UNL     1      32.416 -23.083 -14.364  0.00  0.00    +0.015 C 
ATOM     27  C   UNL     1      31.554 -25.172 -13.512  0.00  0.00    +0.015 C 
ATOM     28  C   UNL     1      31.115 -22.648 -14.617  0.00  0.00    +0.001 C 
ATOM     29  C   UNL     1      30.253 -24.738 -13.765  0.00  0.00    +0.001 C 
ATOM     30  C   UNL     1      30.033 -23.476 -14.317  0.00  0.00    +0.000 C 
ENDBRANCH   2  25
BRANCH  10  32
ATOM     31  N   UNL     1      40.969 -25.438 -14.048  0.00  0.00    -0.195 NA
ATOM     32  C   UNL     1      39.822 -25.424 -13.867  0.00  0.00    +0.087 C 
ENDBRANCH  10  32
TORSDOF 4
ENDMDL
MODEL 3
REMARK VINA RESULT:     -10.1      2.624      6.247
REMARK  Name = 23656870
REMARK  4 active torsions:
REMARK  status: ('A' for Active; 'I' for Inactive)
REMARK    1  A    between atoms: N_2  and  C_25
REMARK    2  A    between atoms: N_3  and  C_14
REMARK    3  A    between atoms: C_10  and  C_32
REMARK    4  A    between atoms: C_16  and  N_21
REMARK                            x       y       z     vdW  Elec       q    Type
REMARK                         _______ _______ _______ _____ _____    ______ ____
ROOT
ATOM      1  N   UNL     1      31.300 -23.251 -16.451  0.00  0.00    -0.123 N 
ATOM      2  N   UNL     1      32.421 -22.191 -18.238  0.00  0.00    -0.274 N 
ATOM      3  N   UNL     1      34.599 -23.291 -14.185  0.00  0.00    -0.238 N 
ATOM      4  N   UNL     1      33.518 -22.739 -16.210  0.00  0.00    -0.295 NA
ATOM      5  N   UNL     1      32.351 -23.811 -14.422  0.00  0.00    -0.314 NA
ATOM      6  N   UNL     1      30.135 -23.291 -17.123  0.00  0.00    -0.170 NA
ATOM      7  C   UNL     1      32.464 -22.710 -16.973  0.00  0.00    +0.279 C 
ATOM      8  C   UNL     1      31.244 -23.791 -15.198  0.00  0.00    +0.219 C 
ATOM      9  C   UNL     1      33.447 -23.294 -14.934  0.00  0.00    +0.207 C 
ATOM     10  C   UNL     1      29.945 -24.215 -15.039  0.00  0.00    +0.203 C 
ATOM     11  C   UNL     1      29.310 -23.883 -16.253  0.00  0.00    +0.116 C 
ATOM     12  H   UNL     1      31.550 -22.241 -18.694  0.00  0.00    +0.156 HD
ATOM     13  H   UNL     1      34.480 -23.239 -13.209  0.00  0.00    +0.166 HD
ENDROOT
BRANCH   3  14
ATOM     14  C   UNL     1      35.916 -23.353 -14.636  0.00  0.00    +0.060 C 
ATOM     15  C   UNL     1      36.744 -24.401 -14.232  0.00  0.00    +0.030 C 
ATOM     16  C   UNL     1      38.061 -24.464 -14.685  0.00  0.00    +0.052 C 
ATOM     17  C   UNL     1      36.407 -22.367 -15.492  0.00  0.00    +0.015 C 
ATOM     18  C   UNL     1      38.552 -23.478 -15.540  0.00  0.00    +0.015 C 
ATOM     19  C   UNL     1      37.725 -22.430 -15.945  0.00  0.00    +0.003 C 
BRANCH  16  21
ATOM     20  O   UNL     1      41.053 -24.580 -14.370  0.00  0.00    -0.275 OA
ATOM     21  N   UNL     1      38.889 -25.511 -14.280  0.00  0.00    -0.284 N 
ATOM     22  C   UNL     1      40.285 -25.511 -14.151  0.00  0.00    +0.227 C 
ATOM     23  C   UNL     1      40.804 -26.847 -13.684  0.00  0.00    +0.095 C 
ATOM     24  H   UNL     1      38.437 -26.357 -14.056  0.00  0.00    +0.155 HD
ENDBRANCH  16  21
ENDBRANCH   3  14
BRANCH   2  25
ATOM     25  C   UNL     1      33.457 -21.598 -18.965  0.00  0.00    +0.051 C 
ATOM     26  C   UNL     1      34.778 -21.983 -18.739  0.00  0.00    +0.015 C 
ATOM     27  C   UNL     1      33.169 -20.621 -19.919  0.00  0.00    +0.015 C 
ATOM     28  C   UNL     1      35.812 -21.392 -19.465  0.00  0.00    +0.001 C 
ATOM     29  C   UNL     1      34.203 -20.030 -20.646  0.00  0.00    +0.001 C 
ATOM     30  C   UNL     1      35.524 -20.415 -20.419  0.00  0.00    +0.000 C 
ENDBRANCH   2  25
BRANCH  10  32
ATOM     31  N   UNL     1      28.938 -25.364 -12.959  0.00  0.00    -0.195 NA
ATOM     32  C   UNL     1      29.391 -24.848 -13.894  0.00  0.00    +0.087 C 
ENDBRANCH  10  32
TORSDOF 4
ENDMDL
