MODEL 1
REMARK VINA RESULT:     -11.2      0.000      0.000
REMARK  Name = 56832738
REMARK  10 active torsions:
REMARK  status: ('A' for Active; 'I' for Inactive)
REMARK    1  A    between atoms: C_2  and  C_11
REMARK    2  A    between atoms: C_5  and  C_25
REMARK    3  A    between atoms: C_10  and  C_22
REMARK    4  A    between atoms: C_12  and  O_16
REMARK    5  A    between atoms: C_13  and  O_18
REMARK    6  A    between atoms: C_14  and  O_20
REMARK    7  A    between atoms: C_22  and  O_23
REMARK    8  A    between atoms: C_25  and  C_27
REMARK    9  A    between atoms: C_32  and  O_33
REMARK   10  A    between atoms: O_33  and  C_34
REMARK                            x       y       z     vdW  Elec       q    Type
REMARK                         _______ _______ _______ _____ _____    ______ ____
ROOT
ATOM      1 CL   UNL     1      30.795 -22.603 -16.906  0.00  0.00    -0.083 Cl
ATOM      2  C   UNL     1      34.437 -23.769 -14.505  0.00  0.00    +0.031 C 
ATOM      3  C   UNL     1      34.461 -23.893 -15.894  0.00  0.00    -0.003 C 
ATOM      4  C   UNL     1      33.294 -23.285 -13.868  0.00  0.00    +0.001 C 
ATOM      5  C   UNL     1      33.341 -23.536 -16.645  0.00  0.00    -0.007 C 
ATOM      6  C   UNL     1      32.175 -22.927 -14.619  0.00  0.00    +0.011 C 
ATOM      7  C   UNL     1      32.198 -23.052 -16.009  0.00  0.00    +0.054 C 
ENDROOT
BRANCH   2  11
ATOM      8  O   UNL     1      35.298 -24.580 -12.356  0.00  0.00    -0.326 OA
ATOM      9  O   UNL     1      36.532 -23.018 -13.554  0.00  0.00    -0.326 OA
ATOM     10  C   UNL     1      36.505 -24.339 -11.622  0.00  0.00    +0.176 C 
ATOM     11  C   UNL     1      35.653 -24.157 -13.688  0.00  0.00    +0.235 C 
ATOM     12  C   UNL     1      37.510 -25.462 -11.991  0.00  0.00    +0.169 C 
ATOM     13  C   UNL     1      36.464 -25.310 -14.324  0.00  0.00    +0.196 C 
ATOM     14  C   UNL     1      37.740 -25.608 -13.510  0.00  0.00    +0.172 C 
ATOM     15  C   UNL     1      36.889 -22.971 -12.165  0.00  0.00    +0.177 C 
BRANCH  12  16
ATOM     16  O   UNL     1      36.996 -26.702 -11.497  0.00  0.00    -0.379 OA
ATOM     17  H   UNL     1      37.732 -27.273 -11.227  0.00  0.00    +0.211 HD
ENDBRANCH  12  16
BRANCH  13  18
ATOM     18  O   UNL     1      35.664 -26.491 -14.373  0.00  0.00    -0.377 OA
ATOM     19  H   UNL     1      35.423 -26.679 -15.294  0.00  0.00    +0.211 HD
ENDBRANCH  13  18
BRANCH  14  20
ATOM     20  O   UNL     1      38.758 -24.695 -13.922  0.00  0.00    -0.379 OA
ATOM     21  H   UNL     1      39.583 -24.900 -13.457  0.00  0.00    +0.211 HD
ENDBRANCH  14  20
BRANCH  10  22
ATOM     22  C   UNL     1      36.195 -24.301 -10.131  0.00  0.00    +0.169 C 
BRANCH  22  23
ATOM     23  O   UNL     1      35.146 -25.216  -9.865  0.00  0.00    -0.379 OA
ATOM     24  H   UNL     1      34.385 -25.008 -10.430  0.00  0.00    +0.211 HD
ENDBRANCH  22  23
ENDBRANCH  10  22
ENDBRANCH   2  11
BRANCH   5  25
ATOM     25  C   UNL     1      33.406 -23.686 -18.131  0.00  0.00    +0.054 C 
BRANCH  25  27
ATOM     26  F   UNL     1      36.941 -20.719 -19.734  0.00  0.00    -0.201 F 
ATOM     27  C   UNL     1      33.858 -22.433 -18.853  0.00  0.00    -0.015 C 
ATOM     28  C   UNL     1      35.218 -22.144 -18.965  0.00  0.00    +0.029 C 
ATOM     29  C   UNL     1      32.914 -21.568 -19.405  0.00  0.00    -0.001 C 
ATOM     30  C   UNL     1      35.633 -20.991 -19.629  0.00  0.00    +0.174 C 
ATOM     31  C   UNL     1      33.329 -20.415 -20.069  0.00  0.00    +0.039 C 
ATOM     32  C   UNL     1      34.689 -20.126 -20.181  0.00  0.00    +0.166 C 
BRANCH  32  33
ATOM     33  O   UNL     1      35.093 -18.999 -20.830  0.00  0.00    -0.473 OA
BRANCH  33  34
ATOM     34  C   UNL     1      35.547 -19.152 -22.174  0.00  0.00    +0.206 C 
ATOM     35  C   UNL     1      34.392 -18.891 -23.117  0.00  0.00    +0.051 C 
ENDBRANCH  33  34
ENDBRANCH  32  33
ENDBRANCH  25  27
ENDBRANCH   5  25
TORSDOF 10
ENDMDL
MODEL 2
REMARK VINA RESULT:     -10.0      1.281      2.683
REMARK  Name = 56832738
REMARK  10 active torsions:
REMARK  status: ('A' for Active; 'I' for Inactive)
REMARK    1  A    between atoms: C_2  and  C_11
REMARK    2  A    between atoms: C_5  and  C_25
REMARK    3  A    between atoms: C_10  and  C_22
REMARK    4  A    between atoms: C_12  and  O_16
REMARK    5  A    between atoms: C_13  and  O_18
REMARK    6  A    between atoms: C_14  and  O_20
REMARK    7  A    between atoms: C_22  and  O_23
REMARK    8  A    between atoms: C_25  and  C_27
REMARK    9  A    between atoms: C_32  and  O_33
REMARK   10  A    between atoms: O_33  and  C_34
REMARK                            x       y       z     vdW  Elec       q    Type
REMARK                         _______ _______ _______ _____ _____    ______ ____
ROOT
ATOM      1 CL   UNL     1      30.889 -22.538 -16.476  0.00  0.00    -0.083 Cl
ATOM      2  C   UNL     1      34.579 -24.160 -14.441  0.00  0.00    +0.031 C 
ATOM      3  C   UNL     1      34.476 -24.225 -15.831  0.00  0.00    -0.003 C 
ATOM      4  C   UNL     1      33.548 -23.596 -13.691  0.00  0.00    +0.001 C 
ATOM      5  C   UNL     1      33.341 -23.726 -16.470  0.00  0.00    -0.007 C 
ATOM      6  C   UNL     1      32.412 -23.097 -14.330  0.00  0.00    +0.011 C 
ATOM      7  C   UNL     1      32.309 -23.162 -15.720  0.00  0.00    +0.054 C 
ENDROOT
BRANCH   2  11
ATOM      8  O   UNL     1      37.005 -23.986 -14.125  0.00  0.00    -0.326 OA
ATOM      9  O   UNL     1      36.010 -26.085 -14.116  0.00  0.00    -0.326 OA
ATOM     10  C   UNL     1      38.038 -24.945 -13.865  0.00  0.00    +0.176 C 
ATOM     11  C   UNL     1      35.812 -24.702 -13.747  0.00  0.00    +0.235 C 
ATOM     12  C   UNL     1      38.248 -25.003 -12.330  0.00  0.00    +0.169 C 
ATOM     13  C   UNL     1      35.717 -24.632 -12.205  0.00  0.00    +0.196 C 
ATOM     14  C   UNL     1      36.949 -25.277 -11.541  0.00  0.00    +0.172 C 
ATOM     15  C   UNL     1      37.402 -26.199 -14.445  0.00  0.00    +0.177 C 
BRANCH  12  16
ATOM     16  O   UNL     1      38.771 -23.742 -11.901  0.00  0.00    -0.379 OA
ATOM     17  H   UNL     1      39.435 -23.886 -11.209  0.00  0.00    +0.211 HD
ENDBRANCH  12  16
BRANCH  13  18
ATOM     18  O   UNL     1      35.631 -23.269 -11.790  0.00  0.00    -0.377 OA
ATOM     19  H   UNL     1      35.310 -22.726 -12.528  0.00  0.00    +0.211 HD
ENDBRANCH  13  18
BRANCH  14  20
ATOM     20  O   UNL     1      36.732 -26.687 -11.467  0.00  0.00    -0.379 OA
ATOM     21  H   UNL     1      36.332 -26.996 -12.294  0.00  0.00    +0.211 HD
ENDBRANCH  14  20
BRANCH  10  22
ATOM     22  C   UNL     1      39.304 -24.543 -14.611  0.00  0.00    +0.169 C 
BRANCH  22  23
ATOM     23  O   UNL     1      38.954 -23.627 -15.634  0.00  0.00    -0.379 OA
ATOM     24  H   UNL     1      39.752 -23.365 -16.119  0.00  0.00    +0.211 HD
ENDBRANCH  22  23
ENDBRANCH  10  22
ENDBRANCH   2  11
BRANCH   5  25
ATOM     25  C   UNL     1      33.268 -23.816 -17.960  0.00  0.00    +0.054 C 
BRANCH  25  27
ATOM     26  F   UNL     1      32.605 -19.870 -20.762  0.00  0.00    -0.201 F 
ATOM     27  C   UNL     1      33.805 -22.593 -18.673  0.00  0.00    -0.015 C 
ATOM     28  C   UNL     1      32.943 -21.776 -19.405  0.00  0.00    +0.029 C 
ATOM     29  C   UNL     1      35.163 -22.284 -18.600  0.00  0.00    -0.001 C 
ATOM     30  C   UNL     1      33.439 -20.651 -20.061  0.00  0.00    +0.174 C 
ATOM     31  C   UNL     1      35.659 -21.159 -19.256  0.00  0.00    +0.039 C 
ATOM     32  C   UNL     1      34.797 -20.342 -19.987  0.00  0.00    +0.166 C 
BRANCH  32  33
ATOM     33  O   UNL     1      35.282 -19.243 -20.629  0.00  0.00    -0.473 OA
BRANCH  33  34
ATOM     34  C   UNL     1      35.300 -19.280 -22.055  0.00  0.00    +0.206 C 
ATOM     35  C   UNL     1      35.668 -17.908 -22.578  0.00  0.00    +0.051 C 
ENDBRANCH  33  34
ENDBRANCH  32  33
ENDBRANCH  25  27
ENDBRANCH   5  25
TORSDOF 10
ENDMDL
MODEL 3
REMARK VINA RESULT:     -10.0      3.200      4.968
REMARK  Name = 56832738
REMARK  10 active torsions:
REMARK  status: ('A' for Active; 'I' for Inactive)
REMARK    1  A    between atoms: C_2  and  C_11
REMARK    2  A    between atoms: C_5  and  C_25
REMARK    3  A    between atoms: C_10  and  C_22
REMARK    4  A    between atoms: C_12  and  O_16
REMARK    5  A    between atoms: C_13  and  O_18
REMARK    6  A    between atoms: C_14  and  O_20
REMARK    7  A    between atoms: C_22  and  O_23
REMARK    8  A    between atoms: C_25  and  C_27
REMARK    9  A    between atoms: C_32  and  O_33
REMARK   10  A    between atoms: O_33  and  C_34
REMARK                            x       y       z     vdW  Elec       q    Type
REMARK                         _______ _______ _______ _____ _____    ______ ____
ROOT
ATOM      1 CL   UNL     1      37.052 -22.033 -17.336  0.00  0.00    -0.083 Cl
ATOM      2  C   UNL     1      33.152 -23.214 -15.392  0.00  0.00    +0.031 C 
ATOM      3  C   UNL     1      33.277 -23.282 -16.779  0.00  0.00    -0.003 C 
ATOM      4  C   UNL     1      34.229 -22.785 -14.615  0.00  0.00    +0.001 C 
ATOM      5  C   UNL     1      34.477 -22.920 -17.390  0.00  0.00    -0.007 C 
ATOM      6  C   UNL     1      35.429 -22.423 -15.226  0.00  0.00    +0.011 C 
ATOM      7  C   UNL     1      35.554 -22.491 -16.614  0.00  0.00    +0.054 C 
ENDROOT
BRANCH   2  11
ATOM      8  O   UNL     1      30.962 -24.291 -15.636  0.00  0.00    -0.326 OA
ATOM      9  O   UNL     1      31.158 -22.423 -14.270  0.00  0.00    -0.326 OA
ATOM     10  C   UNL     1      29.675 -24.056 -15.051  0.00  0.00    +0.176 C 
ATOM     11  C   UNL     1      31.848 -23.608 -14.727  0.00  0.00    +0.235 C 
ATOM     12  C   UNL     1      29.545 -24.983 -13.815  0.00  0.00    +0.169 C 
ATOM     13  C   UNL     1      32.048 -24.539 -13.509  0.00  0.00    +0.196 C 
ATOM     14  C   UNL     1      30.707 -24.837 -12.810  0.00  0.00    +0.172 C 
ATOM     15  C   UNL     1      29.799 -22.581 -14.700  0.00  0.00    +0.177 C 
BRANCH  12  16
ATOM     16  O   UNL     1      29.521 -26.339 -14.273  0.00  0.00    -0.379 OA
ATOM     17  H   UNL     1      30.395 -26.579 -14.618  0.00  0.00    +0.211 HD
ENDBRANCH  12  16
BRANCH  13  18
ATOM     18  O   UNL     1      32.629 -25.771 -13.936  0.00  0.00    -0.377 OA
ATOM     19  H   UNL     1      33.419 -25.957 -13.405  0.00  0.00    +0.211 HD
ENDBRANCH  13  18
BRANCH  14  20
ATOM     20  O   UNL     1      30.420 -23.763 -11.913  0.00  0.00    -0.379 OA
ATOM     21  H   UNL     1      30.386 -24.101 -11.004  0.00  0.00    +0.211 HD
ENDBRANCH  14  20
BRANCH  10  22
ATOM     22  C   UNL     1      28.590 -24.312 -16.089  0.00  0.00    +0.169 C 
BRANCH  22  23
ATOM     23  O   UNL     1      28.482 -23.169 -16.920  0.00  0.00    -0.379 OA
ATOM     24  H   UNL     1      28.120 -23.430 -17.782  0.00  0.00    +0.211 HD
ENDBRANCH  22  23
ENDBRANCH  10  22
ENDBRANCH   2  11
BRANCH   5  25
ATOM     25  C   UNL     1      34.569 -23.005 -18.880  0.00  0.00    +0.054 C 
BRANCH  25  27
ATOM     26  F   UNL     1      37.194 -19.344 -20.770  0.00  0.00    -0.201 F 
ATOM     27  C   UNL     1      34.661 -21.658 -19.565  0.00  0.00    -0.015 C 
ATOM     28  C   UNL     1      35.909 -21.108 -19.859  0.00  0.00    +0.029 C 
ATOM     29  C   UNL     1      33.498 -20.966 -19.901  0.00  0.00    -0.001 C 
ATOM     30  C   UNL     1      35.993 -19.868 -20.490  0.00  0.00    +0.174 C 
ATOM     31  C   UNL     1      33.581 -19.726 -20.532  0.00  0.00    +0.039 C 
ATOM     32  C   UNL     1      34.829 -19.176 -20.826  0.00  0.00    +0.166 C 
BRANCH  32  33
ATOM     33  O   UNL     1      34.909 -17.964 -21.441  0.00  0.00    -0.473 OA
BRANCH  33  34
ATOM     34  C   UNL     1      34.955 -17.963 -22.868  0.00  0.00    +0.206 C 
ATOM     35  C   UNL     1      34.951 -16.531 -23.359  0.00  0.00    +0.051 C 
ENDBRANCH  33  34
ENDBRANCH  32  33
ENDBRANCH  25  27
ENDBRANCH   5  25
TORSDOF 10
ENDMDL
MODEL 4
REMARK VINA RESULT:      -9.8      3.169      5.130
REMARK  Name = 56832738
REMARK  10 active torsions:
REMARK  status: ('A' for Active; 'I' for Inactive)
REMARK    1  A    between atoms: C_2  and  C_11
REMARK    2  A    between atoms: C_5  and  C_25
REMARK    3  A    between atoms: C_10  and  C_22
REMARK    4  A    between atoms: C_12  and  O_16
REMARK    5  A    between atoms: C_13  and  O_18
REMARK    6  A    between atoms: C_14  and  O_20
REMARK    7  A    between atoms: C_22  and  O_23
REMARK    8  A    between atoms: C_25  and  C_27
REMARK    9  A    between atoms: C_32  and  O_33
REMARK   10  A    between atoms: O_33  and  C_34
REMARK                            x       y       z     vdW  Elec       q    Type
REMARK                         _______ _______ _______ _____ _____    ______ ____
ROOT
ATOM      1 CL   UNL     1      35.568 -21.020 -19.429  0.00  0.00    -0.083 Cl
ATOM      2  C   UNL     1      36.681 -23.078 -15.568  0.00  0.00    +0.031 C 
ATOM      3  C   UNL     1      35.394 -23.232 -16.082  0.00  0.00    -0.003 C 
ATOM      4  C   UNL     1      37.614 -22.295 -16.246  0.00  0.00    +0.001 C 
ATOM      5  C   UNL     1      35.040 -22.601 -17.274  0.00  0.00    -0.007 C 
ATOM      6  C   UNL     1      37.260 -21.664 -17.439  0.00  0.00    +0.011 C 
ATOM      7  C   UNL     1      35.972 -21.817 -17.953  0.00  0.00    +0.054 C 
ENDROOT
BRANCH   2  11
ATOM      8  O   UNL     1      35.929 -24.349 -13.609  0.00  0.00    -0.326 OA
ATOM      9  O   UNL     1      37.640 -22.798 -13.362  0.00  0.00    -0.326 OA
ATOM     10  C   UNL     1      36.360 -24.406 -12.243  0.00  0.00    +0.176 C 
ATOM     11  C   UNL     1      37.067 -23.764 -14.272  0.00  0.00    +0.235 C 
ATOM     12  C   UNL     1      37.365 -25.580 -12.117  0.00  0.00    +0.169 C 
ATOM     13  C   UNL     1      38.101 -24.896 -14.473  0.00  0.00    +0.196 C 
ATOM     14  C   UNL     1      38.534 -25.501 -13.123  0.00  0.00    +0.172 C 
ATOM     15  C   UNL     1      37.001 -23.033 -12.100  0.00  0.00    +0.177 C 
BRANCH  12  16
ATOM     16  O   UNL     1      36.658 -26.801 -12.352  0.00  0.00    -0.379 OA
ATOM     17  H   UNL     1      36.724 -27.038 -13.290  0.00  0.00    +0.211 HD
ENDBRANCH  12  16
BRANCH  13  18
ATOM     18  O   UNL     1      37.533 -25.928 -15.279  0.00  0.00    -0.377 OA
ATOM     19  H   UNL     1      38.061 -26.036 -16.086  0.00  0.00    +0.211 HD
ENDBRANCH  13  18
BRANCH  14  20
ATOM     20  O   UNL     1      39.570 -24.684 -12.576  0.00  0.00    -0.379 OA
ATOM     21  H   UNL     1      40.391 -25.197 -12.519  0.00  0.00    +0.211 HD
ENDBRANCH  14  20
BRANCH  10  22
ATOM     22  C   UNL     1      35.150 -24.574 -11.334  0.00  0.00    +0.169 C 
BRANCH  22  23
ATOM     23  O   UNL     1      35.563 -25.237 -10.152  0.00  0.00    -0.379 OA
ATOM     24  H   UNL     1      35.716 -26.176 -10.344  0.00  0.00    +0.211 HD
ENDBRANCH  22  23
ENDBRANCH  10  22
ENDBRANCH   2  11
BRANCH   5  25
ATOM     25  C   UNL     1      33.650 -22.790 -17.791  0.00  0.00    +0.054 C 
BRANCH  25  27
ATOM     26  F   UNL     1      29.044 -22.538 -16.181  0.00  0.00    -0.201 F 
ATOM     27  C   UNL     1      32.614 -22.988 -16.703  0.00  0.00    -0.015 C 
ATOM     28  C   UNL     1      31.278 -22.666 -16.945  0.00  0.00    +0.029 C 
ATOM     29  C   UNL     1      32.997 -23.489 -15.460  0.00  0.00    -0.001 C 
ATOM     30  C   UNL     1      30.326 -22.848 -15.943  0.00  0.00    +0.174 C 
ATOM     31  C   UNL     1      32.045 -23.671 -14.458  0.00  0.00    +0.039 C 
ATOM     32  C   UNL     1      30.709 -23.350 -14.699  0.00  0.00    +0.166 C 
BRANCH  32  33
ATOM     33  O   UNL     1      29.780 -23.528 -13.720  0.00  0.00    -0.473 OA
BRANCH  33  34
ATOM     34  C   UNL     1      29.633 -24.848 -13.197  0.00  0.00    +0.206 C 
ATOM     35  C   UNL     1      29.068 -25.745 -14.278  0.00  0.00    +0.051 C 
ENDBRANCH  33  34
ENDBRANCH  32  33
ENDBRANCH  25  27
ENDBRANCH   5  25
TORSDOF 10
ENDMDL
MODEL 5
REMARK VINA RESULT:      -8.8      3.177      5.583
REMARK  Name = 56832738
REMARK  10 active torsions:
REMARK  status: ('A' for Active; 'I' for Inactive)
REMARK    1  A    between atoms: C_2  and  C_11
REMARK    2  A    between atoms: C_5  and  C_25
REMARK    3  A    between atoms: C_10  and  C_22
REMARK    4  A    between atoms: C_12  and  O_16
REMARK    5  A    between atoms: C_13  and  O_18
REMARK    6  A    between atoms: C_14  and  O_20
REMARK    7  A    between atoms: C_22  and  O_23
REMARK    8  A    between atoms: C_25  and  C_27
REMARK    9  A    between atoms: C_32  and  O_33
REMARK   10  A    between atoms: O_33  and  C_34
REMARK                            x       y       z     vdW  Elec       q    Type
REMARK                         _______ _______ _______ _____ _____    ______ ____
ROOT
ATOM      1 CL   UNL     1      35.614 -20.856 -19.335  0.00  0.00    -0.083 Cl
ATOM      2  C   UNL     1      36.606 -23.247 -15.636  0.00  0.00    +0.031 C 
ATOM      3  C   UNL     1      35.316 -23.301 -16.163  0.00  0.00    -0.003 C 
ATOM      4  C   UNL     1      37.579 -22.460 -16.252  0.00  0.00    +0.001 C 
ATOM      5  C   UNL     1      34.999 -22.566 -17.306  0.00  0.00    -0.007 C 
ATOM      6  C   UNL     1      37.261 -21.726 -17.395  0.00  0.00    +0.011 C 
ATOM      7  C   UNL     1      35.971 -21.779 -17.922  0.00  0.00    +0.054 C 
ENDROOT
BRANCH   2  11
ATOM      8  O   UNL     1      38.372 -24.086 -14.155  0.00  0.00    -0.326 OA
ATOM      9  O   UNL     1      36.506 -25.410 -14.555  0.00  0.00    -0.326 OA
ATOM     10  C   UNL     1      38.521 -25.277 -13.371  0.00  0.00    +0.176 C 
ATOM     11  C   UNL     1      36.951 -24.045 -14.394  0.00  0.00    +0.235 C 
ATOM     12  C   UNL     1      38.025 -24.959 -11.937  0.00  0.00    +0.169 C 
ATOM     13  C   UNL     1      36.296 -23.481 -13.112  0.00  0.00    +0.196 C 
ATOM     14  C   UNL     1      36.597 -24.375 -11.893  0.00  0.00    +0.172 C 
ATOM     15  C   UNL     1      37.611 -26.225 -14.138  0.00  0.00    +0.177 C 
BRANCH  12  16
ATOM     16  O   UNL     1      38.916 -24.000 -11.358  0.00  0.00    -0.379 OA
ATOM     17  H   UNL     1      38.707 -23.890 -10.417  0.00  0.00    +0.211 HD
ENDBRANCH  12  16
BRANCH  13  18
ATOM     18  O   UNL     1      36.795 -22.168 -12.855  0.00  0.00    -0.377 OA
ATOM     19  H   UNL     1      36.107 -21.515 -13.062  0.00  0.00    +0.211 HD
ENDBRANCH  13  18
BRANCH  14  20
ATOM     20  O   UNL     1      35.651 -25.445 -11.878  0.00  0.00    -0.379 OA
ATOM     21  H   UNL     1      35.079 -25.382 -12.658  0.00  0.00    +0.211 HD
ENDBRANCH  14  20
BRANCH  10  22
ATOM     22  C   UNL     1      39.976 -25.726 -13.399  0.00  0.00    +0.169 C 
BRANCH  22  23
ATOM     23  O   UNL     1      40.771 -24.651 -13.868  0.00  0.00    -0.379 OA
ATOM     24  H   UNL     1      41.387 -24.377 -13.171  0.00  0.00    +0.211 HD
ENDBRANCH  22  23
ENDBRANCH  10  22
ENDBRANCH   2  11
BRANCH   5  25
ATOM     25  C   UNL     1      33.604 -22.650 -17.839  0.00  0.00    +0.054 C 
BRANCH  25  27
ATOM     26  F   UNL     1      28.970 -22.523 -16.300  0.00  0.00    -0.201 F 
ATOM     27  C   UNL     1      32.556 -22.893 -16.774  0.00  0.00    -0.015 C 
ATOM     28  C   UNL     1      31.218 -22.591 -17.029  0.00  0.00    +0.029 C 
ATOM     29  C   UNL     1      32.928 -23.418 -15.536  0.00  0.00    -0.001 C 
ATOM     30  C   UNL     1      30.254 -22.815 -16.048  0.00  0.00    +0.174 C 
ATOM     31  C   UNL     1      31.964 -23.642 -14.555  0.00  0.00    +0.039 C 
ATOM     32  C   UNL     1      30.626 -23.340 -14.811  0.00  0.00    +0.166 C 
BRANCH  32  33
ATOM     33  O   UNL     1      29.685 -23.558 -13.851  0.00  0.00    -0.473 OA
BRANCH  33  34
ATOM     34  C   UNL     1      29.597 -24.880 -13.319  0.00  0.00    +0.206 C 
ATOM     35  C   UNL     1      29.095 -25.813 -14.400  0.00  0.00    +0.051 C 
ENDBRANCH  33  34
ENDBRANCH  32  33
ENDBRANCH  25  27
ENDBRANCH   5  25
TORSDOF 10
ENDMDL
MODEL 6
REMARK VINA RESULT:      -8.6      3.494      7.361
REMARK  Name = 56832738
REMARK  10 active torsions:
REMARK  status: ('A' for Active; 'I' for Inactive)
REMARK    1  A    between atoms: C_2  and  C_11
REMARK    2  A    between atoms: C_5  and  C_25
REMARK    3  A    between atoms: C_10  and  C_22
REMARK    4  A    between atoms: C_12  and  O_16
REMARK    5  A    between atoms: C_13  and  O_18
REMARK    6  A    between atoms: C_14  and  O_20
REMARK    7  A    between atoms: C_22  and  O_23
REMARK    8  A    between atoms: C_25  and  C_27
REMARK    9  A    between atoms: C_32  and  O_33
REMARK   10  A    between atoms: O_33  and  C_34
REMARK                            x       y       z     vdW  Elec       q    Type
REMARK                         _______ _______ _______ _____ _____    ______ ____
ROOT
ATOM      1 CL   UNL     1      36.097 -21.788 -19.082  0.00  0.00    -0.083 Cl
ATOM      2  C   UNL     1      32.866 -23.084 -16.206  0.00  0.00    +0.031 C 
ATOM      3  C   UNL     1      34.196 -23.076 -15.787  0.00  0.00    -0.003 C 
ATOM      4  C   UNL     1      32.542 -22.691 -17.505  0.00  0.00    +0.001 C 
ATOM      5  C   UNL     1      35.202 -22.678 -16.667  0.00  0.00    -0.007 C 
ATOM      6  C   UNL     1      33.548 -22.292 -18.385  0.00  0.00    +0.011 C 
ATOM      7  C   UNL     1      34.879 -22.285 -17.966  0.00  0.00    +0.054 C 
ENDROOT
BRANCH   2  11
ATOM      8  O   UNL     1      30.776 -24.330 -15.901  0.00  0.00    -0.326 OA
ATOM      9  O   UNL     1      31.095 -22.352 -14.726  0.00  0.00    -0.326 OA
ATOM     10  C   UNL     1      29.627 -24.143 -15.064  0.00  0.00    +0.176 C 
ATOM     11  C   UNL     1      31.772 -23.517 -15.251  0.00  0.00    +0.235 C 
ATOM     12  C   UNL     1      29.843 -24.978 -13.776  0.00  0.00    +0.169 C 
ATOM     13  C   UNL     1      32.307 -24.334 -14.052  0.00  0.00    +0.196 C 
ATOM     14  C   UNL     1      31.176 -24.672 -13.059  0.00  0.00    +0.172 C 
ATOM     15  C   UNL     1      29.694 -22.640 -14.839  0.00  0.00    +0.177 C 
BRANCH  12  16
ATOM     16  O   UNL     1      29.840 -26.363 -14.135  0.00  0.00    -0.379 OA
ATOM     17  H   UNL     1      30.132 -26.460 -15.055  0.00  0.00    +0.211 HD
ENDBRANCH  12  16
BRANCH  13  18
ATOM     18  O   UNL     1      32.887 -25.551 -14.520  0.00  0.00    -0.377 OA
ATOM     19  H   UNL     1      33.462 -25.920 -13.831  0.00  0.00    +0.211 HD
ENDBRANCH  13  18
BRANCH  14  20
ATOM     20  O   UNL     1      30.995 -23.554 -12.188  0.00  0.00    -0.379 OA
ATOM     21  H   UNL     1      31.392 -23.750 -11.325  0.00  0.00    +0.211 HD
ENDBRANCH  14  20
BRANCH  10  22
ATOM     22  C   UNL     1      28.372 -24.556 -15.823  0.00  0.00    +0.169 C 
BRANCH  22  23
ATOM     23  O   UNL     1      28.236 -23.721 -16.959  0.00  0.00    -0.379 OA
ATOM     24  H   UNL     1      29.099 -23.622 -17.392  0.00  0.00    +0.211 HD
ENDBRANCH  22  23
ENDBRANCH  10  22
ENDBRANCH   2  11
BRANCH   5  25
ATOM     25  C   UNL     1      36.615 -22.685 -16.180  0.00  0.00    +0.054 C 
BRANCH  25  27
ATOM     26  F   UNL     1      37.108 -26.558 -13.243  0.00  0.00    -0.201 F 
ATOM     27  C   UNL     1      36.783 -23.289 -14.801  0.00  0.00    -0.015 C 
ATOM     28  C   UNL     1      36.871 -24.673 -14.651  0.00  0.00    +0.029 C 
ATOM     29  C   UNL     1      36.850 -22.460 -13.681  0.00  0.00    -0.001 C 
ATOM     30  C   UNL     1      37.025 -25.227 -13.381  0.00  0.00    +0.174 C 
ATOM     31  C   UNL     1      37.005 -23.015 -12.412  0.00  0.00    +0.039 C 
ATOM     32  C   UNL     1      37.092 -24.399 -12.261  0.00  0.00    +0.166 C 
BRANCH  32  33
ATOM     33  O   UNL     1      37.242 -24.940 -11.021  0.00  0.00    -0.473 OA
BRANCH  33  34
ATOM     34  C   UNL     1      36.618 -24.255  -9.935  0.00  0.00    +0.206 C 
ATOM     35  C   UNL     1      35.176 -24.705  -9.834  0.00  0.00    +0.051 C 
ENDBRANCH  33  34
ENDBRANCH  32  33
ENDBRANCH  25  27
ENDBRANCH   5  25
TORSDOF 10
ENDMDL
MODEL 7
REMARK VINA RESULT:      -8.4      3.725      5.629
REMARK  Name = 56832738
REMARK  10 active torsions:
REMARK  status: ('A' for Active; 'I' for Inactive)
REMARK    1  A    between atoms: C_2  and  C_11
REMARK    2  A    between atoms: C_5  and  C_25
REMARK    3  A    between atoms: C_10  and  C_22
REMARK    4  A    between atoms: C_12  and  O_16
REMARK    5  A    between atoms: C_13  and  O_18
REMARK    6  A    between atoms: C_14  and  O_20
REMARK    7  A    between atoms: C_22  and  O_23
REMARK    8  A    between atoms: C_25  and  C_27
REMARK    9  A    between atoms: C_32  and  O_33
REMARK   10  A    between atoms: O_33  and  C_34
REMARK                            x       y       z     vdW  Elec       q    Type
REMARK                         _______ _______ _______ _____ _____    ______ ____
ROOT
ATOM      1 CL   UNL     1      31.246 -22.474 -16.531  0.00  0.00    -0.083 Cl
ATOM      2  C   UNL     1      34.842 -24.304 -14.505  0.00  0.00    +0.031 C 
ATOM      3  C   UNL     1      33.618 -24.276 -13.838  0.00  0.00    -0.003 C 
ATOM      4  C   UNL     1      34.949 -23.770 -15.789  0.00  0.00    +0.001 C 
ATOM      5  C   UNL     1      32.500 -23.714 -14.455  0.00  0.00    -0.007 C 
ATOM      6  C   UNL     1      33.831 -23.208 -16.406  0.00  0.00    +0.011 C 
ATOM      7  C   UNL     1      32.606 -23.180 -15.739  0.00  0.00    +0.054 C 
ENDROOT
BRANCH   2  11
ATOM      8  O   UNL     1      37.283 -24.294 -14.268  0.00  0.00    -0.326 OA
ATOM      9  O   UNL     1      36.146 -26.317 -14.176  0.00  0.00    -0.326 OA
ATOM     10  C   UNL     1      38.255 -25.317 -14.015  0.00  0.00    +0.176 C 
ATOM     11  C   UNL     1      36.057 -24.915 -13.835  0.00  0.00    +0.235 C 
ATOM     12  C   UNL     1      38.509 -25.355 -12.486  0.00  0.00    +0.169 C 
ATOM     13  C   UNL     1      36.016 -24.804 -12.293  0.00  0.00    +0.196 C 
ATOM     14  C   UNL     1      37.221 -25.519 -11.651  0.00  0.00    +0.172 C 
ATOM     15  C   UNL     1      37.514 -26.536 -14.544  0.00  0.00    +0.177 C 
BRANCH  12  16
ATOM     16  O   UNL     1      39.133 -24.125 -12.105  0.00  0.00    -0.379 OA
ATOM     17  H   UNL     1      39.794 -24.297 -11.417  0.00  0.00    +0.211 HD
ENDBRANCH  12  16
BRANCH  13  18
ATOM     18  O   UNL     1      36.039 -23.429 -11.910  0.00  0.00    -0.377 OA
ATOM     19  H   UNL     1      35.135 -23.130 -11.724  0.00  0.00    +0.211 HD
ENDBRANCH  13  18
BRANCH  14  20
ATOM     20  O   UNL     1      36.909 -26.908 -11.536  0.00  0.00    -0.379 OA
ATOM     21  H   UNL     1      36.115 -27.017 -10.991  0.00  0.00    +0.211 HD
ENDBRANCH  14  20
BRANCH  10  22
ATOM     22  C   UNL     1      39.522 -25.023 -14.809  0.00  0.00    +0.169 C 
BRANCH  22  23
ATOM     23  O   UNL     1      40.601 -25.717 -14.210  0.00  0.00    -0.379 OA
ATOM     24  H   UNL     1      41.183 -25.084 -13.760  0.00  0.00    +0.211 HD
ENDBRANCH  22  23
ENDBRANCH  10  22
ENDBRANCH   2  11
BRANCH   5  25
ATOM     25  C   UNL     1      31.206 -23.703 -13.706  0.00  0.00    +0.054 C 
BRANCH  25  27
ATOM     26  F   UNL     1      27.981 -25.370 -16.973  0.00  0.00    -0.201 F 
ATOM     27  C   UNL     1      29.991 -23.504 -14.587  0.00  0.00    -0.015 C 
ATOM     28  C   UNL     1      29.534 -24.547 -15.391  0.00  0.00    +0.029 C 
ATOM     29  C   UNL     1      29.330 -22.275 -14.595  0.00  0.00    -0.001 C 
ATOM     30  C   UNL     1      28.415 -24.363 -16.203  0.00  0.00    +0.174 C 
ATOM     31  C   UNL     1      28.212 -22.091 -15.407  0.00  0.00    +0.039 C 
ATOM     32  C   UNL     1      27.754 -23.135 -16.211  0.00  0.00    +0.166 C 
BRANCH  32  33
ATOM     33  O   UNL     1      26.662 -22.954 -17.004  0.00  0.00    -0.473 OA
BRANCH  33  34
ATOM     34  C   UNL     1      26.294 -21.608 -17.303  0.00  0.00    +0.206 C 
ATOM     35  C   UNL     1      25.569 -21.580 -18.632  0.00  0.00    +0.051 C 
ENDBRANCH  33  34
ENDBRANCH  32  33
ENDBRANCH  25  27
ENDBRANCH   5  25
TORSDOF 10
ENDMDL
