MODEL 1
REMARK VINA RESULT:     -12.0      0.000      0.000
REMARK  Name = 448890
REMARK  6 active torsions:
REMARK  status: ('A' for Active; 'I' for Inactive)
REMARK    1  A    between atoms: C_1  and  C_2
REMARK    2  A    between atoms: C_1  and  C_17
REMARK    3  A    between atoms: C_2  and  C_3
REMARK    4  A    between atoms: C_3  and  N_4
REMARK    5  A    between atoms: C_8  and  C_11
REMARK    6  A    between atoms: C_17  and  N_21
REMARK                            x       y       z     vdW  Elec       q    Type
REMARK                         _______ _______ _______ _____ _____    ______ ____
ROOT
ATOM      1  C   UNL     1      33.204 -14.337 -24.777  0.00  0.00    +0.022 C 
ENDROOT
BRANCH   1   2
ATOM      2  C   UNL     1      33.472 -15.846 -24.804  0.00  0.00    -0.021 C 
BRANCH   2   3
ATOM      3  C   UNL     1      34.961 -16.142 -24.630  0.00  0.00    -0.077 C 
BRANCH   3   4
ATOM      4  N   UNL     1      35.154 -17.205 -23.645  0.00  0.00    +0.390 N 
ATOM      5  C   UNL     1      34.966 -16.702 -22.281  0.00  0.00    -0.072 C 
ATOM      6  C   UNL     1      34.248 -18.333 -23.912  0.00  0.00    -0.051 C 
ATOM      7  C   UNL     1      35.337 -17.795 -21.267  0.00  0.00    +0.003 C 
ATOM      8  C   UNL     1      34.709 -19.133 -21.584  0.00  0.00    -0.031 C 
ATOM      9  C   UNL     1      34.209 -19.362 -22.814  0.00  0.00    -0.053 C 
ATOM     10  H   UNL     1      36.115 -17.538 -23.727  0.00  0.00    -0.079 HD
BRANCH   8  11
ATOM     11  C   UNL     1      34.671 -20.163 -20.519  0.00  0.00    -0.004 C 
ATOM     12  C   UNL     1      35.860 -20.651 -19.972  0.00  0.00    -0.000 C 
ATOM     13  C   UNL     1      33.445 -20.649 -20.057  0.00  0.00    -0.000 C 
ATOM     14  C   UNL     1      35.824 -21.620 -18.970  0.00  0.00    -0.000 C 
ATOM     15  C   UNL     1      33.409 -21.618 -19.054  0.00  0.00    -0.000 C 
ATOM     16  C   UNL     1      34.598 -22.104 -18.510  0.00  0.00    -0.000 C 
ENDBRANCH   8  11
ENDBRANCH   3   4
ENDBRANCH   2   3
ENDBRANCH   1   2
BRANCH   1  17
ATOM     17  C   UNL     1      34.193 -13.581 -23.895  0.00  0.00    +0.110 C 
BRANCH  17  21
ATOM     18  F   UNL     1      31.163  -9.699 -20.226  0.00  0.00    -0.204 F 
ATOM     19  O   UNL     1      34.593 -11.167 -25.287  0.00  0.00    -0.246 OA
ATOM     20  O   UNL     1      32.236  -8.662 -22.271  0.00  0.00    -0.267 OA
ATOM     21  N   UNL     1      33.674 -12.286 -23.462  0.00  0.00    -0.281 N 
ATOM     22  N   UNL     1      33.412  -9.954 -23.762  0.00  0.00    -0.274 N 
ATOM     23  C   UNL     1      32.908 -12.209 -22.257  0.00  0.00    +0.071 A 
ATOM     24  C   UNL     1      33.940 -11.152 -24.241  0.00  0.00    +0.330 A 
ATOM     25  C   UNL     1      32.403 -10.977 -21.825  0.00  0.00    +0.099 A 
ATOM     26  C   UNL     1      32.639 -13.343 -21.472  0.00  0.00    +0.018 C 
ATOM     27  C   UNL     1      32.661  -9.761 -22.616  0.00  0.00    +0.265 A 
ATOM     28  C   UNL     1      31.651 -10.874 -20.647  0.00  0.00    +0.146 C 
ATOM     29  C   UNL     1      31.889 -13.244 -20.297  0.00  0.00    +0.004 C 
ATOM     30  C   UNL     1      31.395 -12.011 -19.884  0.00  0.00    +0.030 C 
ATOM     31  H   UNL     1      33.594  -9.152 -24.303  0.00  0.00    +0.173 HD
ENDBRANCH  17  21
ENDBRANCH   1  17
TORSDOF 6
ENDMDL
MODEL 2
REMARK VINA RESULT:     -11.7      7.982     12.674
REMARK  Name = 448890
REMARK  6 active torsions:
REMARK  status: ('A' for Active; 'I' for Inactive)
REMARK    1  A    between atoms: C_1  and  C_2
REMARK    2  A    between atoms: C_1  and  C_17
REMARK    3  A    between atoms: C_2  and  C_3
REMARK    4  A    between atoms: C_3  and  N_4
REMARK    5  A    between atoms: C_8  and  C_11
REMARK    6  A    between atoms: C_17  and  N_21
REMARK                            x       y       z     vdW  Elec       q    Type
REMARK                         _______ _______ _______ _____ _____    ______ ____
ROOT
ATOM      1  C   UNL     1      33.636 -23.576 -15.992  0.00  0.00    +0.022 C 
ENDROOT
BRANCH   1   2
ATOM      2  C   UNL     1      33.585 -22.828 -17.329  0.00  0.00    -0.021 C 
BRANCH   2   3
ATOM      3  C   UNL     1      34.990 -22.490 -17.824  0.00  0.00    -0.077 C 
BRANCH   3   4
ATOM      4  N   UNL     1      34.948 -21.335 -18.718  0.00  0.00    +0.390 N 
ATOM      5  C   UNL     1      36.080 -21.345 -19.649  0.00  0.00    -0.072 C 
ATOM      6  C   UNL     1      33.674 -21.290 -19.451  0.00  0.00    -0.051 C 
ATOM      7  C   UNL     1      36.102 -20.040 -20.459  0.00  0.00    +0.003 C 
ATOM      8  C   UNL     1      34.753 -19.684 -21.042  0.00  0.00    -0.031 C 
ATOM      9  C   UNL     1      33.641 -20.275 -20.563  0.00  0.00    -0.053 C 
ATOM     10  H   UNL     1      35.020 -20.493 -18.146  0.00  0.00    -0.079 HD
BRANCH   8  11
ATOM     11  C   UNL     1      34.699 -18.679 -22.130  0.00  0.00    -0.004 C 
ATOM     12  C   UNL     1      34.181 -19.026 -23.380  0.00  0.00    -0.000 C 
ATOM     13  C   UNL     1      35.165 -17.381 -21.910  0.00  0.00    -0.000 C 
ATOM     14  C   UNL     1      34.130 -18.080 -24.404  0.00  0.00    -0.000 C 
ATOM     15  C   UNL     1      35.115 -16.436 -22.934  0.00  0.00    -0.000 C 
ATOM     16  C   UNL     1      34.597 -16.785 -24.181  0.00  0.00    -0.000 C 
ENDBRANCH   8  11
ENDBRANCH   3   4
ENDBRANCH   2   3
ENDBRANCH   1   2
BRANCH   1  17
ATOM     17  C   UNL     1      34.405 -22.810 -14.920  0.00  0.00    +0.110 C 
BRANCH  17  21
ATOM     18  F   UNL     1      38.982 -26.053 -12.421  0.00  0.00    -0.204 F 
ATOM     19  O   UNL     1      33.073 -23.922 -12.704  0.00  0.00    -0.246 OA
ATOM     20  O   UNL     1      36.763 -26.173 -11.208  0.00  0.00    -0.267 OA
ATOM     21  N   UNL     1      35.033 -23.697 -13.944  0.00  0.00    -0.281 N 
ATOM     22  N   UNL     1      34.933 -25.028 -11.992  0.00  0.00    -0.274 N 
ATOM     23  C   UNL     1      36.412 -24.041 -14.099  0.00  0.00    +0.071 A 
ATOM     24  C   UNL     1      34.265 -24.189 -12.880  0.00  0.00    +0.330 A 
ATOM     25  C   UNL     1      37.031 -24.889 -13.174  0.00  0.00    +0.099 A 
ATOM     26  C   UNL     1      37.186 -23.550 -15.164  0.00  0.00    +0.018 C 
ATOM     27  C   UNL     1      36.257 -25.428 -12.041  0.00  0.00    +0.265 A 
ATOM     28  C   UNL     1      38.381 -25.240 -13.303  0.00  0.00    +0.146 C 
ATOM     29  C   UNL     1      38.533 -23.899 -15.295  0.00  0.00    +0.004 C 
ATOM     30  C   UNL     1      39.131 -24.744 -14.366  0.00  0.00    +0.030 C 
ATOM     31  H   UNL     1      34.401 -25.379 -11.240  0.00  0.00    +0.173 HD
ENDBRANCH  17  21
ENDBRANCH   1  17
TORSDOF 6
ENDMDL
MODEL 3
REMARK VINA RESULT:     -11.7      1.559      2.551
REMARK  Name = 448890
REMARK  6 active torsions:
REMARK  status: ('A' for Active; 'I' for Inactive)
REMARK    1  A    between atoms: C_1  and  C_2
REMARK    2  A    between atoms: C_1  and  C_17
REMARK    3  A    between atoms: C_2  and  C_3
REMARK    4  A    between atoms: C_3  and  N_4
REMARK    5  A    between atoms: C_8  and  C_11
REMARK    6  A    between atoms: C_17  and  N_21
REMARK                            x       y       z     vdW  Elec       q    Type
REMARK                         _______ _______ _______ _____ _____    ______ ____
ROOT
ATOM      1  C   UNL     1      33.405 -13.862 -24.581  0.00  0.00    +0.022 C 
ENDROOT
BRANCH   1   2
ATOM      2  C   UNL     1      33.460 -15.393 -24.540  0.00  0.00    -0.021 C 
BRANCH   2   3
ATOM      3  C   UNL     1      34.902 -15.893 -24.626  0.00  0.00    -0.077 C 
BRANCH   3   4
ATOM      4  N   UNL     1      35.116 -16.986 -23.679  0.00  0.00    +0.390 N 
ATOM      5  C   UNL     1      34.934 -16.530 -22.297  0.00  0.00    -0.072 C 
ATOM      6  C   UNL     1      34.221 -18.115 -23.975  0.00  0.00    -0.051 C 
ATOM      7  C   UNL     1      35.327 -17.651 -21.323  0.00  0.00    +0.003 C 
ATOM      8  C   UNL     1      34.713 -18.986 -21.680  0.00  0.00    -0.031 C 
ATOM      9  C   UNL     1      34.205 -19.180 -22.912  0.00  0.00    -0.053 C 
ATOM     10  H   UNL     1      36.080 -17.304 -23.781  0.00  0.00    -0.079 HD
BRANCH   8  11
ATOM     11  C   UNL     1      34.697 -20.051 -20.649  0.00  0.00    -0.004 C 
ATOM     12  C   UNL     1      35.896 -20.562 -20.150  0.00  0.00    -0.000 C 
ATOM     13  C   UNL     1      33.481 -20.546 -20.172  0.00  0.00    -0.000 C 
ATOM     14  C   UNL     1      35.881 -21.565 -19.180  0.00  0.00    -0.000 C 
ATOM     15  C   UNL     1      33.465 -21.549 -19.202  0.00  0.00    -0.000 C 
ATOM     16  C   UNL     1      34.665 -22.058 -18.706  0.00  0.00    -0.000 C 
ENDBRANCH   8  11
ENDBRANCH   3   4
ENDBRANCH   2   3
ENDBRANCH   1   2
BRANCH   1  17
ATOM     17  C   UNL     1      34.106 -13.217 -23.388  0.00  0.00    +0.110 C 
BRANCH  17  21
ATOM     18  F   UNL     1      32.734  -7.297 -22.505  0.00  0.00    -0.204 F 
ATOM     19  O   UNL     1      31.883 -13.472 -21.679  0.00  0.00    -0.246 OA
ATOM     20  O   UNL     1      31.240  -8.957 -21.315  0.00  0.00    -0.267 OA
ATOM     21  N   UNL     1      33.354 -12.089 -22.844  0.00  0.00    -0.281 N 
ATOM     22  N   UNL     1      31.597 -11.217 -21.523  0.00  0.00    -0.274 N 
ATOM     23  C   UNL     1      33.749 -10.758 -23.184  0.00  0.00    +0.071 A 
ATOM     24  C   UNL     1      32.263 -12.343 -22.002  0.00  0.00    +0.330 A 
ATOM     25  C   UNL     1      33.040  -9.664 -22.672  0.00  0.00    +0.099 A 
ATOM     26  C   UNL     1      34.842 -10.499 -24.029  0.00  0.00    +0.018 C 
ATOM     27  C   UNL     1      31.888  -9.889 -21.783  0.00  0.00    +0.265 A 
ATOM     28  C   UNL     1      33.407  -8.350 -22.991  0.00  0.00    +0.146 C 
ATOM     29  C   UNL     1      35.210  -9.189 -24.348  0.00  0.00    +0.004 C 
ATOM     30  C   UNL     1      34.494  -8.115 -23.829  0.00  0.00    +0.030 C 
ATOM     31  H   UNL     1      30.828 -11.385 -20.930  0.00  0.00    +0.173 HD
ENDBRANCH  17  21
ENDBRANCH   1  17
TORSDOF 6
ENDMDL
MODEL 4
REMARK VINA RESULT:     -11.5      7.200     11.511
REMARK  Name = 448890
REMARK  6 active torsions:
REMARK  status: ('A' for Active; 'I' for Inactive)
REMARK    1  A    between atoms: C_1  and  C_2
REMARK    2  A    between atoms: C_1  and  C_17
REMARK    3  A    between atoms: C_2  and  C_3
REMARK    4  A    between atoms: C_3  and  N_4
REMARK    5  A    between atoms: C_8  and  C_11
REMARK    6  A    between atoms: C_17  and  N_21
REMARK                            x       y       z     vdW  Elec       q    Type
REMARK                         _______ _______ _______ _____ _____    ______ ____
ROOT
ATOM      1  C   UNL     1      36.637 -22.052 -15.481  0.00  0.00    +0.022 C 
ENDROOT
BRANCH   1   2
ATOM      2  C   UNL     1      37.108 -21.388 -16.779  0.00  0.00    -0.021 C 
BRANCH   2   3
ATOM      3  C   UNL     1      36.334 -21.923 -17.983  0.00  0.00    -0.077 C 
BRANCH   3   4
ATOM      4  N   UNL     1      35.983 -20.829 -18.886  0.00  0.00    +0.390 N 
ATOM      5  C   UNL     1      37.045 -20.596 -19.871  0.00  0.00    -0.072 C 
ATOM      6  C   UNL     1      34.703 -21.097 -19.558  0.00  0.00    -0.051 C 
ATOM      7  C   UNL     1      36.725 -19.339 -20.695  0.00  0.00    +0.003 C 
ATOM      8  C   UNL     1      35.306 -19.321 -21.216  0.00  0.00    -0.031 C 
ATOM      9  C   UNL     1      34.385 -20.143 -20.678  0.00  0.00    -0.053 C 
ATOM     10  H   UNL     1      35.882 -19.981 -18.328  0.00  0.00    -0.079 HD
BRANCH   8  11
ATOM     11  C   UNL     1      34.971 -18.380 -22.312  0.00  0.00    -0.004 C 
ATOM     12  C   UNL     1      34.314 -18.840 -23.455  0.00  0.00    -0.000 C 
ATOM     13  C   UNL     1      35.311 -17.029 -22.205  0.00  0.00    -0.000 C 
ATOM     14  C   UNL     1      33.999 -17.955 -24.486  0.00  0.00    -0.000 C 
ATOM     15  C   UNL     1      34.996 -16.144 -23.236  0.00  0.00    -0.000 C 
ATOM     16  C   UNL     1      34.340 -16.606 -24.377  0.00  0.00    -0.000 C 
ENDBRANCH   8  11
ENDBRANCH   3   4
ENDBRANCH   2   3
ENDBRANCH   1   2
BRANCH   1  17
ATOM     17  C   UNL     1      36.203 -23.500 -15.687  0.00  0.00    +0.110 C 
BRANCH  17  21
ATOM     18  F   UNL     1      30.237 -23.975 -14.313  0.00  0.00    -0.204 F 
ATOM     19  O   UNL     1      36.372 -24.716 -13.154  0.00  0.00    -0.246 OA
ATOM     20  O   UNL     1      31.838 -24.860 -12.564  0.00  0.00    -0.267 OA
ATOM     21  N   UNL     1      35.047 -23.857 -14.868  0.00  0.00    -0.281 N 
ATOM     22  N   UNL     1      34.108 -24.769 -12.898  0.00  0.00    -0.274 N 
ATOM     23  C   UNL     1      33.733 -23.582 -15.358  0.00  0.00    +0.071 A 
ATOM     24  C   UNL     1      35.259 -24.460 -13.620  0.00  0.00    +0.330 A 
ATOM     25  C   UNL     1      32.613 -23.916 -14.587  0.00  0.00    +0.099 A 
ATOM     26  C   UNL     1      33.515 -22.978 -16.608  0.00  0.00    +0.018 C 
ATOM     27  C   UNL     1      32.793 -24.551 -13.269  0.00  0.00    +0.265 A 
ATOM     28  C   UNL     1      31.314 -23.658 -15.045  0.00  0.00    +0.146 C 
ATOM     29  C   UNL     1      32.221 -22.719 -17.067  0.00  0.00    +0.004 C 
ATOM     30  C   UNL     1      31.121 -23.058 -16.286  0.00  0.00    +0.030 C 
ATOM     31  H   UNL     1      34.247 -25.194 -12.020  0.00  0.00    +0.173 HD
ENDBRANCH  17  21
ENDBRANCH   1  17
TORSDOF 6
ENDMDL
MODEL 5
REMARK VINA RESULT:     -11.0      1.325      1.905
REMARK  Name = 448890
REMARK  6 active torsions:
REMARK  status: ('A' for Active; 'I' for Inactive)
REMARK    1  A    between atoms: C_1  and  C_2
REMARK    2  A    between atoms: C_1  and  C_17
REMARK    3  A    between atoms: C_2  and  C_3
REMARK    4  A    between atoms: C_3  and  N_4
REMARK    5  A    between atoms: C_8  and  C_11
REMARK    6  A    between atoms: C_17  and  N_21
REMARK                            x       y       z     vdW  Elec       q    Type
REMARK                         _______ _______ _______ _____ _____    ______ ____
ROOT
ATOM      1  C   UNL     1      34.204 -13.204 -23.258  0.00  0.00    +0.022 C 
ENDROOT
BRANCH   1   2
ATOM      2  C   UNL     1      33.799 -14.640 -23.609  0.00  0.00    -0.021 C 
BRANCH   2   3
ATOM      3  C   UNL     1      35.004 -15.450 -24.088  0.00  0.00    -0.077 C 
BRANCH   3   4
ATOM      4  N   UNL     1      35.198 -16.621 -23.235  0.00  0.00    +0.390 N 
ATOM      5  C   UNL     1      34.876 -16.317 -21.838  0.00  0.00    -0.072 C 
ATOM      6  C   UNL     1      34.394 -17.755 -23.717  0.00  0.00    -0.051 C 
ATOM      7  C   UNL     1      35.246 -17.510 -20.945  0.00  0.00    +0.003 C 
ATOM      8  C   UNL     1      34.738 -18.829 -21.482  0.00  0.00    -0.031 C 
ATOM      9  C   UNL     1      34.347 -18.921 -22.768  0.00  0.00    -0.053 C 
ATOM     10  H   UNL     1      36.183 -16.882 -23.281  0.00  0.00    -0.079 HD
BRANCH   8  11
ATOM     11  C   UNL     1      34.694 -19.993 -20.564  0.00  0.00    -0.004 C 
ATOM     12  C   UNL     1      33.468 -20.547 -20.193  0.00  0.00    -0.000 C 
ATOM     13  C   UNL     1      35.880 -20.540 -20.069  0.00  0.00    -0.000 C 
ATOM     14  C   UNL     1      33.426 -21.642 -19.330  0.00  0.00    -0.000 C 
ATOM     15  C   UNL     1      35.839 -21.635 -19.206  0.00  0.00    -0.000 C 
ATOM     16  C   UNL     1      34.612 -22.186 -18.836  0.00  0.00    -0.000 C 
ENDBRANCH   8  11
ENDBRANCH   3   4
ENDBRANCH   2   3
ENDBRANCH   1   2
BRANCH   1  17
ATOM     17  C   UNL     1      33.820 -12.204 -24.344  0.00  0.00    +0.110 C 
BRANCH  17  21
ATOM     18  F   UNL     1      32.525  -7.243 -20.966  0.00  0.00    -0.204 F 
ATOM     19  O   UNL     1      35.671 -10.375 -25.418  0.00  0.00    -0.246 OA
ATOM     20  O   UNL     1      34.367  -6.953 -22.678  0.00  0.00    -0.267 OA
ATOM     21  N   UNL     1      33.959 -10.820 -23.900  0.00  0.00    -0.281 N 
ATOM     22  N   UNL     1      34.992  -8.696 -24.036  0.00  0.00    -0.274 N 
ATOM     23  C   UNL     1      33.114 -10.334 -22.855  0.00  0.00    +0.071 A 
ATOM     24  C   UNL     1      34.919 -10.003 -24.513  0.00  0.00    +0.330 A 
ATOM     25  C   UNL     1      33.233  -9.010 -22.416  0.00  0.00    +0.099 A 
ATOM     26  C   UNL     1      32.150 -11.148 -22.237  0.00  0.00    +0.018 C 
ATOM     27  C   UNL     1      34.231  -8.119 -23.034  0.00  0.00    +0.265 A 
ATOM     28  C   UNL     1      32.418  -8.509 -21.392  0.00  0.00    +0.146 C 
ATOM     29  C   UNL     1      31.335 -10.652 -21.216  0.00  0.00    +0.004 C 
ATOM     30  C   UNL     1      31.468  -9.333 -20.794  0.00  0.00    +0.030 C 
ATOM     31  H   UNL     1      35.665  -8.115 -24.460  0.00  0.00    +0.173 HD
ENDBRANCH  17  21
ENDBRANCH   1  17
TORSDOF 6
ENDMDL
MODEL 6
REMARK VINA RESULT:     -11.0      3.568     10.075
REMARK  Name = 448890
REMARK  6 active torsions:
REMARK  status: ('A' for Active; 'I' for Inactive)
REMARK    1  A    between atoms: C_1  and  C_2
REMARK    2  A    between atoms: C_1  and  C_17
REMARK    3  A    between atoms: C_2  and  C_3
REMARK    4  A    between atoms: C_3  and  N_4
REMARK    5  A    between atoms: C_8  and  C_11
REMARK    6  A    between atoms: C_17  and  N_21
REMARK                            x       y       z     vdW  Elec       q    Type
REMARK                         _______ _______ _______ _____ _____    ______ ____
ROOT
ATOM      1  C   UNL     1      32.820 -13.796 -20.518  0.00  0.00    +0.022 C 
ENDROOT
BRANCH   1   2
ATOM      2  C   UNL     1      31.890 -12.651 -20.933  0.00  0.00    -0.021 C 
BRANCH   2   3
ATOM      3  C   UNL     1      31.833 -11.570 -19.854  0.00  0.00    -0.077 C 
BRANCH   3   4
ATOM      4  N   UNL     1      31.536 -10.271 -20.454  0.00  0.00    +0.390 N 
ATOM      5  C   UNL     1      32.220  -9.189 -19.738  0.00  0.00    -0.072 C 
ATOM      6  C   UNL     1      31.899 -10.260 -21.879  0.00  0.00    -0.051 C 
ATOM      7  C   UNL     1      31.759  -7.829 -20.284  0.00  0.00    +0.003 C 
ATOM      8  C   UNL     1      31.784  -7.760 -21.794  0.00  0.00    -0.031 C 
ATOM      9  C   UNL     1      31.851  -8.896 -22.514  0.00  0.00    -0.053 C 
ATOM     10  H   UNL     1      30.531 -10.112 -20.377  0.00  0.00    -0.079 HD
BRANCH   8  11
ATOM     11  C   UNL     1      31.727  -6.426 -22.438  0.00  0.00    -0.004 C 
ATOM     12  C   UNL     1      30.822  -5.465 -21.983  0.00  0.00    -0.000 C 
ATOM     13  C   UNL     1      32.581  -6.124 -23.502  0.00  0.00    -0.000 C 
ATOM     14  C   UNL     1      30.769  -4.210 -22.589  0.00  0.00    -0.000 C 
ATOM     15  C   UNL     1      32.528  -4.869 -24.108  0.00  0.00    -0.000 C 
ATOM     16  C   UNL     1      31.622  -3.911 -23.652  0.00  0.00    -0.000 C 
ENDBRANCH   8  11
ENDBRANCH   3   4
ENDBRANCH   2   3
ENDBRANCH   1   2
BRANCH   1  17
ATOM     17  C   UNL     1      34.152 -13.768 -21.262  0.00  0.00    +0.110 C 
BRANCH  17  21
ATOM     18  F   UNL     1      35.004 -19.121 -24.147  0.00  0.00    -0.204 F 
ATOM     19  O   UNL     1      33.450 -13.034 -23.888  0.00  0.00    -0.246 OA
ATOM     20  O   UNL     1      34.217 -17.205 -25.602  0.00  0.00    -0.267 OA
ATOM     21  N   UNL     1      34.171 -14.679 -22.403  0.00  0.00    -0.281 N 
ATOM     22  N   UNL     1      33.843 -15.125 -24.703  0.00  0.00    -0.274 N 
ATOM     23  C   UNL     1      34.569 -16.038 -22.204  0.00  0.00    +0.071 A 
ATOM     24  C   UNL     1      33.799 -14.197 -23.665  0.00  0.00    +0.330 A 
ATOM     25  C   UNL     1      34.593 -16.927 -23.286  0.00  0.00    +0.099 A 
ATOM     26  C   UNL     1      34.942 -16.527 -20.941  0.00  0.00    +0.018 C 
ATOM     27  C   UNL     1      34.209 -16.458 -24.629  0.00  0.00    +0.265 A 
ATOM     28  C   UNL     1      34.978 -18.264 -23.117  0.00  0.00    +0.146 C 
ATOM     29  C   UNL     1      35.327 -17.860 -20.770  0.00  0.00    +0.004 C 
ATOM     30  C   UNL     1      35.345 -18.728 -21.857  0.00  0.00    +0.030 C 
ATOM     31  H   UNL     1      33.583 -14.795 -25.594  0.00  0.00    +0.173 HD
ENDBRANCH  17  21
ENDBRANCH   1  17
TORSDOF 6
ENDMDL
MODEL 7
REMARK VINA RESULT:     -10.7      5.495     10.404
REMARK  Name = 448890
REMARK  6 active torsions:
REMARK  status: ('A' for Active; 'I' for Inactive)
REMARK    1  A    between atoms: C_1  and  C_2
REMARK    2  A    between atoms: C_1  and  C_17
REMARK    3  A    between atoms: C_2  and  C_3
REMARK    4  A    between atoms: C_3  and  N_4
REMARK    5  A    between atoms: C_8  and  C_11
REMARK    6  A    between atoms: C_17  and  N_21
REMARK                            x       y       z     vdW  Elec       q    Type
REMARK                         _______ _______ _______ _____ _____    ______ ____
ROOT
ATOM      1  C   UNL     1      35.335 -20.167 -19.869  0.00  0.00    +0.022 C 
ENDROOT
BRANCH   1   2
ATOM      2  C   UNL     1      34.522 -19.804 -21.116  0.00  0.00    -0.021 C 
BRANCH   2   3
ATOM      3  C   UNL     1      35.412 -19.753 -22.357  0.00  0.00    -0.077 C 
BRANCH   3   4
ATOM      4  N   UNL     1      35.288 -18.454 -23.015  0.00  0.00    +0.390 N 
ATOM      5  C   UNL     1      34.109 -18.413 -23.887  0.00  0.00    -0.072 C 
ATOM      6  C   UNL     1      35.237 -17.370 -22.023  0.00  0.00    -0.051 C 
ATOM      7  C   UNL     1      34.099 -17.103 -24.689  0.00  0.00    +0.003 C 
ATOM      8  C   UNL     1      34.345 -15.883 -23.830  0.00  0.00    -0.031 C 
ATOM      9  C   UNL     1      34.871 -16.028 -22.598  0.00  0.00    -0.053 C 
ATOM     10  H   UNL     1      36.114 -18.318 -23.598  0.00  0.00    -0.079 HD
BRANCH   8  11
ATOM     11  C   UNL     1      34.000 -14.552 -24.384  0.00  0.00    -0.004 C 
ATOM     12  C   UNL     1      34.171 -13.404 -23.607  0.00  0.00    -0.000 C 
ATOM     13  C   UNL     1      33.504 -14.441 -25.685  0.00  0.00    -0.000 C 
ATOM     14  C   UNL     1      33.846 -12.152 -24.129  0.00  0.00    -0.000 C 
ATOM     15  C   UNL     1      33.180 -13.188 -26.206  0.00  0.00    -0.000 C 
ATOM     16  C   UNL     1      33.351 -12.043 -25.428  0.00  0.00    -0.000 C 
ENDBRANCH   8  11
ENDBRANCH   3   4
ENDBRANCH   2   3
ENDBRANCH   1   2
BRANCH   1  17
ATOM     17  C   UNL     1      35.486 -21.675 -19.686  0.00  0.00    +0.110 C 
BRANCH  17  21
ATOM     18  F   UNL     1      34.960 -23.428 -13.824  0.00  0.00    -0.204 F 
ATOM     19  O   UNL     1      32.747 -22.317 -19.604  0.00  0.00    -0.246 OA
ATOM     20  O   UNL     1      32.833 -23.527 -15.193  0.00  0.00    -0.267 OA
ATOM     21  N   UNL     1      34.792 -22.163 -18.497  0.00  0.00    -0.281 N 
ATOM     22  N   UNL     1      32.831 -22.911 -17.406  0.00  0.00    -0.274 N 
ATOM     23  C   UNL     1      35.525 -22.337 -17.283  0.00  0.00    +0.071 A 
ATOM     24  C   UNL     1      33.422 -22.450 -18.580  0.00  0.00    +0.330 A 
ATOM     25  C   UNL     1      34.877 -22.804 -16.133  0.00  0.00    +0.099 A 
ATOM     26  C   UNL     1      36.898 -22.050 -17.194  0.00  0.00    +0.018 C 
ATOM     27  C   UNL     1      33.438 -23.117 -16.179  0.00  0.00    +0.265 A 
ATOM     28  C   UNL     1      35.573 -22.981 -14.930  0.00  0.00    +0.146 C 
ATOM     29  C   UNL     1      37.595 -22.227 -15.996  0.00  0.00    +0.004 C 
ATOM     30  C   UNL     1      36.933 -22.693 -14.864  0.00  0.00    +0.030 C 
ATOM     31  H   UNL     1      31.869 -23.115 -17.454  0.00  0.00    +0.173 HD
ENDBRANCH  17  21
ENDBRANCH   1  17
TORSDOF 6
ENDMDL
MODEL 8
REMARK VINA RESULT:     -10.6      3.554      6.033
REMARK  Name = 448890
REMARK  6 active torsions:
REMARK  status: ('A' for Active; 'I' for Inactive)
REMARK    1  A    between atoms: C_1  and  C_2
REMARK    2  A    between atoms: C_1  and  C_17
REMARK    3  A    between atoms: C_2  and  C_3
REMARK    4  A    between atoms: C_3  and  N_4
REMARK    5  A    between atoms: C_8  and  C_11
REMARK    6  A    between atoms: C_17  and  N_21
REMARK                            x       y       z     vdW  Elec       q    Type
REMARK                         _______ _______ _______ _____ _____    ______ ____
ROOT
ATOM      1  C   UNL     1      33.133  -9.309 -22.981  0.00  0.00    +0.022 C 
ENDROOT
BRANCH   1   2
ATOM      2  C   UNL     1      34.150 -10.243 -23.645  0.00  0.00    -0.021 C 
BRANCH   2   3
ATOM      3  C   UNL     1      33.457 -11.246 -24.565  0.00  0.00    -0.077 C 
BRANCH   3   4
ATOM      4  N   UNL     1      33.972 -12.593 -24.326  0.00  0.00    +0.390 N 
ATOM      5  C   UNL     1      33.712 -13.022 -22.949  0.00  0.00    -0.072 C 
ATOM      6  C   UNL     1      33.397 -13.549 -25.285  0.00  0.00    -0.051 C 
ATOM      7  C   UNL     1      34.408 -14.365 -22.680  0.00  0.00    +0.003 C 
ATOM      8  C   UNL     1      34.155 -15.388 -23.764  0.00  0.00    -0.031 C 
ATOM      9  C   UNL     1      33.685 -14.990 -24.962  0.00  0.00    -0.053 C 
ATOM     10  H   UNL     1      34.983 -12.570 -24.462  0.00  0.00    -0.079 HD
BRANCH   8  11
ATOM     11  C   UNL     1      34.443 -16.812 -23.469  0.00  0.00    -0.004 C 
ATOM     12  C   UNL     1      34.013 -17.811 -24.344  0.00  0.00    -0.000 C 
ATOM     13  C   UNL     1      35.147 -17.159 -22.313  0.00  0.00    -0.000 C 
ATOM     14  C   UNL     1      34.285 -19.150 -24.066  0.00  0.00    -0.000 C 
ATOM     15  C   UNL     1      35.419 -18.499 -22.035  0.00  0.00    -0.000 C 
ATOM     16  C   UNL     1      34.988 -19.495 -22.911  0.00  0.00    -0.000 C 
ENDBRANCH   8  11
ENDBRANCH   3   4
ENDBRANCH   2   3
ENDBRANCH   1   2
BRANCH   1  17
ATOM     17  C   UNL     1      33.762  -8.005 -22.498  0.00  0.00    +0.110 C 
BRANCH  17  21
ATOM     18  F   UNL     1      30.947  -2.834 -24.241  0.00  0.00    -0.204 F 
ATOM     19  O   UNL     1      31.855  -7.761 -20.442  0.00  0.00    -0.246 OA
ATOM     20  O   UNL     1      30.066  -3.901 -22.121  0.00  0.00    -0.267 OA
ATOM     21  N   UNL     1      32.790  -6.920 -22.404  0.00  0.00    -0.281 N 
ATOM     22  N   UNL     1      30.992  -5.839 -21.310  0.00  0.00    -0.274 N 
ATOM     23  C   UNL     1      32.782  -5.900 -23.406  0.00  0.00    +0.071 A 
ATOM     24  C   UNL     1      31.888  -6.906 -21.331  0.00  0.00    +0.330 A 
ATOM     25  C   UNL     1      31.857  -4.852 -23.333  0.00  0.00    +0.099 A 
ATOM     26  C   UNL     1      33.684  -5.909 -24.484  0.00  0.00    +0.018 C 
ATOM     27  C   UNL     1      30.893  -4.802 -22.221  0.00  0.00    +0.265 A 
ATOM     28  C   UNL     1      31.829  -3.841 -24.304  0.00  0.00    +0.146 C 
ATOM     29  C   UNL     1      33.658  -4.902 -25.453  0.00  0.00    +0.004 C 
ATOM     30  C   UNL     1      32.732  -3.869 -25.363  0.00  0.00    +0.030 C 
ATOM     31  H   UNL     1      30.354  -5.822 -20.560  0.00  0.00    +0.173 HD
ENDBRANCH  17  21
ENDBRANCH   1  17
TORSDOF 6
ENDMDL
MODEL 9
REMARK VINA RESULT:     -10.5      4.180      6.905
REMARK  Name = 448890
REMARK  6 active torsions:
REMARK  status: ('A' for Active; 'I' for Inactive)
REMARK    1  A    between atoms: C_1  and  C_2
REMARK    2  A    between atoms: C_1  and  C_17
REMARK    3  A    between atoms: C_2  and  C_3
REMARK    4  A    between atoms: C_3  and  N_4
REMARK    5  A    between atoms: C_8  and  C_11
REMARK    6  A    between atoms: C_17  and  N_21
REMARK                            x       y       z     vdW  Elec       q    Type
REMARK                         _______ _______ _______ _____ _____    ______ ____
ROOT
ATOM      1  C   UNL     1      34.592 -19.674 -20.793  0.00  0.00    +0.022 C 
ENDROOT
BRANCH   1   2
ATOM      2  C   UNL     1      35.371 -20.727 -19.998  0.00  0.00    -0.021 C 
BRANCH   2   3
ATOM      3  C   UNL     1      34.423 -21.666 -19.253  0.00  0.00    -0.077 C 
BRANCH   3   4
ATOM      4  N   UNL     1      35.136 -22.357 -18.180  0.00  0.00    +0.390 N 
ATOM      5  C   UNL     1      36.233 -21.536 -17.660  0.00  0.00    -0.072 C 
ATOM      6  C   UNL     1      34.212 -22.733 -17.099  0.00  0.00    -0.051 C 
ATOM      7  C   UNL     1      37.063 -22.350 -16.655  0.00  0.00    +0.003 C 
ATOM      8  C   UNL     1      36.212 -23.066 -15.630  0.00  0.00    -0.031 C 
ATOM      9  C   UNL     1      34.894 -23.232 -15.854  0.00  0.00    -0.053 C 
ATOM     10  H   UNL     1      35.539 -23.210 -18.569  0.00  0.00    -0.079 HD
BRANCH   8  11
ATOM     11  C   UNL     1      36.869 -23.574 -14.402  0.00  0.00    -0.004 C 
ATOM     12  C   UNL     1      37.902 -24.508 -14.494  0.00  0.00    -0.000 C 
ATOM     13  C   UNL     1      36.456 -23.119 -13.148  0.00  0.00    -0.000 C 
ATOM     14  C   UNL     1      38.520 -24.986 -13.338  0.00  0.00    -0.000 C 
ATOM     15  C   UNL     1      37.074 -23.596 -11.992  0.00  0.00    -0.000 C 
ATOM     16  C   UNL     1      38.106 -24.530 -12.087  0.00  0.00    -0.000 C 
ENDBRANCH   8  11
ENDBRANCH   3   4
ENDBRANCH   2   3
ENDBRANCH   1   2
BRANCH   1  17
ATOM     17  C   UNL     1      35.487 -18.555 -21.318  0.00  0.00    +0.110 C 
BRANCH  17  21
ATOM     18  F   UNL     1      33.238 -13.947 -24.697  0.00  0.00    -0.204 F 
ATOM     19  O   UNL     1      35.039 -19.896 -23.752  0.00  0.00    -0.246 OA
ATOM     20  O   UNL     1      33.421 -16.180 -25.873  0.00  0.00    -0.267 OA
ATOM     21  N   UNL     1      34.941 -17.923 -22.516  0.00  0.00    -0.281 N 
ATOM     22  N   UNL     1      34.238 -18.023 -24.773  0.00  0.00    -0.274 N 
ATOM     23  C   UNL     1      34.602 -16.534 -22.480  0.00  0.00    +0.071 A 
ATOM     24  C   UNL     1      34.763 -18.696 -23.671  0.00  0.00    +0.330 A 
ATOM     25  C   UNL     1      34.079 -15.911 -23.620  0.00  0.00    +0.099 A 
ATOM     26  C   UNL     1      34.779 -15.754 -21.325  0.00  0.00    +0.018 C 
ATOM     27  C   UNL     1      33.876 -16.689 -24.854  0.00  0.00    +0.265 A 
ATOM     28  C   UNL     1      33.740 -14.551 -23.610  0.00  0.00    +0.146 C 
ATOM     29  C   UNL     1      34.441 -14.398 -21.313  0.00  0.00    +0.004 C 
ATOM     30  C   UNL     1      33.922 -13.797 -22.455  0.00  0.00    +0.030 C 
ATOM     31  H   UNL     1      34.110 -18.558 -25.589  0.00  0.00    +0.173 HD
ENDBRANCH  17  21
ENDBRANCH   1  17
TORSDOF 6
ENDMDL
