MODEL 1
REMARK VINA RESULT:     -12.0      0.000      0.000
REMARK  Name = 11677589
REMARK  7 active torsions:
REMARK  status: ('A' for Active; 'I' for Inactive)
REMARK    1  A    between atoms: C_1  and  N_7
REMARK    2  A    between atoms: C_2  and  C_20
REMARK    3  A    between atoms: C_11  and  C_18
REMARK    4  A    between atoms: C_20  and  C_21
REMARK    5  A    between atoms: C_21  and  N_23
REMARK    6  A    between atoms: N_24  and  S_28
REMARK    7  A    between atoms: S_28  and  C_31
REMARK                            x       y       z     vdW  Elec       q    Type
REMARK                         _______ _______ _______ _____ _____    ______ ____
ROOT
ATOM      1  C   UNL     1      34.925 -22.878 -16.427  0.00  0.00    +0.058 C 
ATOM      2  C   UNL     1      34.674 -21.698 -18.928  0.00  0.00    -0.020 C 
ATOM      3  C   UNL     1      36.005 -22.198 -16.975  0.00  0.00    +0.015 C 
ATOM      4  C   UNL     1      33.721 -22.976 -17.113  0.00  0.00    +0.015 C 
ATOM      5  C   UNL     1      35.879 -21.606 -18.232  0.00  0.00    -0.003 C 
ATOM      6  C   UNL     1      33.595 -22.384 -18.369  0.00  0.00    -0.003 C 
ENDROOT
BRANCH   1   7
ATOM      7  N   UNL     1      35.051 -23.471 -15.170  0.00  0.00    -0.242 N 
ATOM      8  N   UNL     1      34.487 -24.203 -13.148  0.00  0.00    -0.387 NA
ATOM      9  N   UNL     1      38.034 -25.266 -13.045  0.00  0.00    -0.408 NA
ATOM     10  C   UNL     1      36.191 -24.028 -14.651  0.00  0.00    +0.091 C 
ATOM     11  C   UNL     1      34.061 -23.600 -14.236  0.00  0.00    +0.168 C 
ATOM     12  C   UNL     1      35.812 -24.477 -13.389  0.00  0.00    +0.172 C 
ATOM     13  C   UNL     1      37.476 -24.174 -15.154  0.00  0.00    +0.045 C 
ATOM     14  C   UNL     1      36.767 -25.105 -12.589  0.00  0.00    +0.140 C 
ATOM     15  C   UNL     1      38.349 -24.810 -14.282  0.00  0.00    +0.110 C 
ATOM     16  C   UNL     1      36.472 -25.624 -11.222  0.00  0.00    +0.069 C 
ATOM     17  C   UNL     1      39.762 -25.022 -14.718  0.00  0.00    +0.066 C 
BRANCH  11  18
ATOM     18  C   UNL     1      32.685 -23.106 -14.458  0.00  0.00    +0.075 C 
ATOM     19  C   UNL     1      31.738 -23.454 -13.305  0.00  0.00    +0.009 C 
ENDBRANCH  11  18
ENDBRANCH   1   7
BRANCH   2  20
ATOM     20  C   UNL     1      34.539 -21.065 -20.272  0.00  0.00    +0.048 C 
BRANCH  20  21
ATOM     21  C   UNL     1      35.717 -20.156 -20.642  0.00  0.00    +0.096 C 
BRANCH  21  23
ATOM     22  O   UNL     1      34.887 -19.777 -23.366  0.00  0.00    -0.251 OA
ATOM     23  N   UNL     1      35.288 -18.927 -21.252  0.00  0.00    -0.287 N 
ATOM     24  N   UNL     1      34.523 -17.506 -22.955  0.00  0.00    -0.169 N 
ATOM     25  C   UNL     1      34.903 -18.834 -22.580  0.00  0.00    +0.319 C 
ATOM     26  H   UNL     1      35.268 -18.112 -20.701  0.00  0.00    +0.151 HD
ATOM     27  H   UNL     1      34.571 -16.810 -22.261  0.00  0.00    +0.178 HD
BRANCH  24  28
ATOM     28  S   UNL     1      33.996 -17.030 -24.510  0.00  0.00    +0.077 S 
ATOM     29  O   UNL     1      35.036 -17.317 -25.479  0.00  0.00    -0.150 OA
ATOM     30  O   UNL     1      32.642 -17.505 -24.723  0.00  0.00    -0.150 OA
BRANCH  28  31
ATOM     31  C   UNL     1      33.896 -15.277 -24.311  0.00  0.00    +0.125 C 
ATOM     32  C   UNL     1      33.470 -14.499 -25.374  0.00  0.00    +0.020 C 
ATOM     33  C   UNL     1      34.247 -14.713 -23.097  0.00  0.00    +0.020 C 
ATOM     34  C   UNL     1      33.741 -12.530 -24.000  0.00  0.00    -0.022 C 
ATOM     35  C   UNL     1      33.391 -13.115 -25.216  0.00  0.00    -0.003 C 
ATOM     36  C   UNL     1      34.168 -13.329 -22.939  0.00  0.00    -0.003 C 
ATOM     37  C   UNL     1      33.655 -11.052 -23.832  0.00  0.00    +0.031 C 
ENDBRANCH  28  31
ENDBRANCH  24  28
ENDBRANCH  21  23
ENDBRANCH  20  21
ENDBRANCH   2  20
TORSDOF 7
ENDMDL
MODEL 2
REMARK VINA RESULT:     -11.6      1.521      3.753
REMARK  Name = 11677589
REMARK  7 active torsions:
REMARK  status: ('A' for Active; 'I' for Inactive)
REMARK    1  A    between atoms: C_1  and  N_7
REMARK    2  A    between atoms: C_2  and  C_20
REMARK    3  A    between atoms: C_11  and  C_18
REMARK    4  A    between atoms: C_20  and  C_21
REMARK    5  A    between atoms: C_21  and  N_23
REMARK    6  A    between atoms: N_24  and  S_28
REMARK    7  A    between atoms: S_28  and  C_31
REMARK                            x       y       z     vdW  Elec       q    Type
REMARK                         _______ _______ _______ _____ _____    ______ ____
ROOT
ATOM      1  C   UNL     1      34.229 -22.672 -16.981  0.00  0.00    +0.058 C 
ATOM      2  C   UNL     1      35.336 -21.326 -19.143  0.00  0.00    -0.020 C 
ATOM      3  C   UNL     1      35.569 -22.312 -16.950  0.00  0.00    +0.015 C 
ATOM      4  C   UNL     1      33.434 -22.368 -18.079  0.00  0.00    +0.015 C 
ATOM      5  C   UNL     1      36.126 -21.636 -18.036  0.00  0.00    -0.003 C 
ATOM      6  C   UNL     1      33.990 -21.692 -19.165  0.00  0.00    -0.003 C 
ENDROOT
BRANCH   1   7
ATOM      7  N   UNL     1      33.671 -23.348 -15.895  0.00  0.00    -0.242 N 
ATOM      8  N   UNL     1      33.551 -24.591 -14.056  0.00  0.00    -0.387 NA
ATOM      9  N   UNL     1      29.921 -23.941 -14.405  0.00  0.00    -0.408 NA
ATOM     10  C   UNL     1      32.338 -23.411 -15.582  0.00  0.00    +0.091 C 
ATOM     11  C   UNL     1      34.355 -24.068 -14.954  0.00  0.00    +0.168 C 
ATOM     12  C   UNL     1      32.290 -24.192 -14.431  0.00  0.00    +0.172 C 
ATOM     13  C   UNL     1      31.208 -22.874 -16.182  0.00  0.00    +0.045 C 
ATOM     14  C   UNL     1      31.049 -24.448 -13.848  0.00  0.00    +0.140 C 
ATOM     15  C   UNL     1      30.025 -23.187 -15.527  0.00  0.00    +0.110 C 
ATOM     16  C   UNL     1      30.880 -25.271 -12.616  0.00  0.00    +0.069 C 
ATOM     17  C   UNL     1      28.741 -22.662 -16.083  0.00  0.00    +0.066 C 
BRANCH  11  18
ATOM     18  C   UNL     1      35.826 -24.218 -14.980  0.00  0.00    +0.075 C 
ATOM     19  C   UNL     1      36.280 -25.642 -14.640  0.00  0.00    +0.009 C 
ENDBRANCH  11  18
ENDBRANCH   1   7
BRANCH   2  20
ATOM     20  C   UNL     1      35.932 -20.604 -20.305  0.00  0.00    +0.048 C 
BRANCH  20  21
ATOM     21  C   UNL     1      34.978 -20.471 -21.497  0.00  0.00    +0.096 C 
BRANCH  21  23
ATOM     22  O   UNL     1      34.332 -19.527 -24.133  0.00  0.00    -0.251 OA
ATOM     23  N   UNL     1      34.805 -19.103 -21.908  0.00  0.00    -0.287 N 
ATOM     24  N   UNL     1      34.378 -17.319 -23.370  0.00  0.00    -0.169 N 
ATOM     25  C   UNL     1      34.493 -18.736 -23.207  0.00  0.00    +0.319 C 
ATOM     26  H   UNL     1      34.915 -18.394 -21.235  0.00  0.00    +0.151 HD
ATOM     27  H   UNL     1      34.528 -16.759 -22.574  0.00  0.00    +0.178 HD
BRANCH  24  28
ATOM     28  S   UNL     1      34.005 -16.518 -24.833  0.00  0.00    +0.077 S 
ATOM     29  O   UNL     1      35.153 -16.575 -25.718  0.00  0.00    -0.150 OA
ATOM     30  O   UNL     1      32.699 -16.948 -25.295  0.00  0.00    -0.150 OA
BRANCH  28  31
ATOM     31  C   UNL     1      33.825 -14.852 -24.271  0.00  0.00    +0.125 C 
ATOM     32  C   UNL     1      34.019 -14.566 -22.931  0.00  0.00    +0.020 C 
ATOM     33  C   UNL     1      33.494 -13.864 -25.182  0.00  0.00    +0.020 C 
ATOM     34  C   UNL     1      33.544 -12.243 -23.392  0.00  0.00    -0.022 C 
ATOM     35  C   UNL     1      33.877 -13.251 -22.488  0.00  0.00    -0.003 C 
ATOM     36  C   UNL     1      33.352 -12.549 -24.739  0.00  0.00    -0.003 C 
ATOM     37  C   UNL     1      33.393 -10.837 -22.918  0.00  0.00    +0.031 C 
ENDBRANCH  28  31
ENDBRANCH  24  28
ENDBRANCH  21  23
ENDBRANCH  20  21
ENDBRANCH   2  20
TORSDOF 7
ENDMDL
MODEL 3
REMARK VINA RESULT:     -11.3      1.444      1.609
REMARK  Name = 11677589
REMARK  7 active torsions:
REMARK  status: ('A' for Active; 'I' for Inactive)
REMARK    1  A    between atoms: C_1  and  N_7
REMARK    2  A    between atoms: C_2  and  C_20
REMARK    3  A    between atoms: C_11  and  C_18
REMARK    4  A    between atoms: C_20  and  C_21
REMARK    5  A    between atoms: C_21  and  N_23
REMARK    6  A    between atoms: N_24  and  S_28
REMARK    7  A    between atoms: S_28  and  C_31
REMARK                            x       y       z     vdW  Elec       q    Type
REMARK                         _______ _______ _______ _____ _____    ______ ____
ROOT
ATOM      1  C   UNL     1      35.203 -22.888 -15.939  0.00  0.00    +0.058 C 
ATOM      2  C   UNL     1      35.576 -21.889 -18.502  0.00  0.00    -0.020 C 
ATOM      3  C   UNL     1      36.368 -22.196 -16.241  0.00  0.00    +0.015 C 
ATOM      4  C   UNL     1      34.221 -23.088 -16.901  0.00  0.00    +0.015 C 
ATOM      5  C   UNL     1      36.555 -21.694 -17.529  0.00  0.00    -0.003 C 
ATOM      6  C   UNL     1      34.409 -22.586 -18.189  0.00  0.00    -0.003 C 
ENDROOT
BRANCH   1   7
ATOM      7  N   UNL     1      35.014 -23.391 -14.650  0.00  0.00    -0.242 N 
ATOM      8  N   UNL     1      33.984 -23.924 -12.754  0.00  0.00    -0.387 NA
ATOM      9  N   UNL     1      37.328 -25.226 -11.837  0.00  0.00    -0.408 NA
ATOM     10  C   UNL     1      35.970 -23.987 -13.869  0.00  0.00    +0.091 C 
ATOM     11  C   UNL     1      33.845 -23.378 -13.941  0.00  0.00    +0.168 C 
ATOM     12  C   UNL     1      35.302 -24.310 -12.692  0.00  0.00    +0.172 C 
ATOM     13  C   UNL     1      37.314 -24.262 -14.078  0.00  0.00    +0.045 C 
ATOM     14  C   UNL     1      36.013 -24.941 -11.671  0.00  0.00    +0.140 C 
ATOM     15  C   UNL     1      37.930 -24.890 -13.005  0.00  0.00    +0.110 C 
ATOM     16  C   UNL     1      35.399 -25.332 -10.369  0.00  0.00    +0.069 C 
ATOM     17  C   UNL     1      39.380 -25.235 -13.117  0.00  0.00    +0.066 C 
BRANCH  11  18
ATOM     18  C   UNL     1      32.592 -22.805 -14.480  0.00  0.00    +0.075 C 
ATOM     19  C   UNL     1      31.477 -23.847 -14.614  0.00  0.00    +0.009 C 
ENDBRANCH  11  18
ENDBRANCH   1   7
BRANCH   2  20
ATOM     20  C   UNL     1      35.777 -21.353 -19.880  0.00  0.00    +0.048 C 
BRANCH  20  21
ATOM     21  C   UNL     1      34.575 -20.564 -20.411  0.00  0.00    +0.096 C 
BRANCH  21  23
ATOM     22  O   UNL     1      33.915 -19.114 -22.802  0.00  0.00    -0.251 OA
ATOM     23  N   UNL     1      34.908 -19.198 -20.714  0.00  0.00    -0.287 N 
ATOM     24  N   UNL     1      34.998 -17.218 -21.970  0.00  0.00    -0.169 N 
ATOM     25  C   UNL     1      34.548 -18.575 -21.898  0.00  0.00    +0.319 C 
ATOM     26  H   UNL     1      35.418 -18.681 -20.050  0.00  0.00    +0.151 HD
ATOM     27  H   UNL     1      35.504 -16.869 -21.200  0.00  0.00    +0.178 HD
BRANCH  24  28
ATOM     28  S   UNL     1      34.732 -16.156 -23.282  0.00  0.00    +0.077 S 
ATOM     29  O   UNL     1      36.003 -15.620 -23.732  0.00  0.00    -0.150 OA
ATOM     30  O   UNL     1      33.821 -16.777 -24.224  0.00  0.00    -0.150 OA
BRANCH  28  31
ATOM     31  C   UNL     1      33.838 -14.855 -22.487  0.00  0.00    +0.125 C 
ATOM     32  C   UNL     1      33.115 -13.961 -23.259  0.00  0.00    +0.020 C 
ATOM     33  C   UNL     1      33.875 -14.753 -21.108  0.00  0.00    +0.020 C 
ATOM     34  C   UNL     1      32.436 -12.818 -21.242  0.00  0.00    -0.022 C 
ATOM     35  C   UNL     1      32.409 -12.935 -22.631  0.00  0.00    -0.003 C 
ATOM     36  C   UNL     1      33.169 -13.727 -20.480  0.00  0.00    -0.003 C 
ATOM     37  C   UNL     1      31.680 -11.722 -20.572  0.00  0.00    +0.031 C 
ENDBRANCH  28  31
ENDBRANCH  24  28
ENDBRANCH  21  23
ENDBRANCH  20  21
ENDBRANCH   2  20
TORSDOF 7
ENDMDL
MODEL 4
REMARK VINA RESULT:     -11.1      0.935      2.995
REMARK  Name = 11677589
REMARK  7 active torsions:
REMARK  status: ('A' for Active; 'I' for Inactive)
REMARK    1  A    between atoms: C_1  and  N_7
REMARK    2  A    between atoms: C_2  and  C_20
REMARK    3  A    between atoms: C_11  and  C_18
REMARK    4  A    between atoms: C_20  and  C_21
REMARK    5  A    between atoms: C_21  and  N_23
REMARK    6  A    between atoms: N_24  and  S_28
REMARK    7  A    between atoms: S_28  and  C_31
REMARK                            x       y       z     vdW  Elec       q    Type
REMARK                         _______ _______ _______ _____ _____    ______ ____
ROOT
ATOM      1  C   UNL     1      35.921 -22.470 -16.664  0.00  0.00    +0.058 C 
ATOM      2  C   UNL     1      35.849 -21.267 -19.165  0.00  0.00    -0.020 C 
ATOM      3  C   UNL     1      36.966 -21.645 -17.058  0.00  0.00    +0.015 C 
ATOM      4  C   UNL     1      34.840 -22.702 -17.505  0.00  0.00    +0.015 C 
ATOM      5  C   UNL     1      36.930 -21.041 -18.314  0.00  0.00    -0.003 C 
ATOM      6  C   UNL     1      34.804 -22.098 -18.761  0.00  0.00    -0.003 C 
ENDROOT
BRANCH   1   7
ATOM      7  N   UNL     1      35.957 -23.076 -15.407  0.00  0.00    -0.242 N 
ATOM      8  N   UNL     1      36.783 -24.063 -13.595  0.00  0.00    -0.387 NA
ATOM      9  N   UNL     1      33.234 -24.059 -12.533  0.00  0.00    -0.408 NA
ATOM     10  C   UNL     1      34.879 -23.309 -14.593  0.00  0.00    +0.091 C 
ATOM     11  C   UNL     1      37.071 -23.543 -14.767  0.00  0.00    +0.168 C 
ATOM     12  C   UNL     1      35.421 -23.926 -13.470  0.00  0.00    +0.172 C 
ATOM     13  C   UNL     1      33.523 -23.046 -14.734  0.00  0.00    +0.045 C 
ATOM     14  C   UNL     1      34.565 -24.298 -12.433  0.00  0.00    +0.140 C 
ATOM     15  C   UNL     1      32.759 -23.455 -13.650  0.00  0.00    +0.110 C 
ATOM     16  C   UNL     1      35.037 -24.964 -11.185  0.00  0.00    +0.069 C 
ATOM     17  C   UNL     1      31.283 -23.222 -13.691  0.00  0.00    +0.066 C 
BRANCH  11  18
ATOM     18  C   UNL     1      38.425 -23.458 -15.357  0.00  0.00    +0.075 C 
ATOM     19  C   UNL     1      39.348 -24.584 -14.882  0.00  0.00    +0.009 C 
ENDBRANCH  11  18
ENDBRANCH   1   7
BRANCH   2  20
ATOM     20  C   UNL     1      35.810 -20.621 -20.510  0.00  0.00    +0.048 C 
BRANCH  20  21
ATOM     21  C   UNL     1      34.399 -20.224 -20.958  0.00  0.00    +0.096 C 
BRANCH  21  23
ATOM     22  O   UNL     1      34.081 -19.568 -23.737  0.00  0.00    -0.251 OA
ATOM     23  N   UNL     1      34.360 -18.908 -21.537  0.00  0.00    -0.287 N 
ATOM     24  N   UNL     1      34.201 -17.290 -23.229  0.00  0.00    -0.169 N 
ATOM     25  C   UNL     1      34.203 -18.682 -22.895  0.00  0.00    +0.319 C 
ATOM     26  H   UNL     1      34.452 -18.130 -20.941  0.00  0.00    +0.151 HD
ATOM     27  H   UNL     1      34.309 -16.648 -22.490  0.00  0.00    +0.178 HD
BRANCH  24  28
ATOM     28  S   UNL     1      34.028 -16.651 -24.804  0.00  0.00    +0.077 S 
ATOM     29  O   UNL     1      35.248 -16.882 -25.553  0.00  0.00    -0.150 OA
ATOM     30  O   UNL     1      32.745 -17.054 -25.347  0.00  0.00    -0.150 OA
BRANCH  28  31
ATOM     31  C   UNL     1      33.915 -14.922 -24.458  0.00  0.00    +0.125 C 
ATOM     32  C   UNL     1      34.216 -14.465 -23.186  0.00  0.00    +0.020 C 
ATOM     33  C   UNL     1      33.526 -14.055 -25.464  0.00  0.00    +0.020 C 
ATOM     34  C   UNL     1      33.737 -12.213 -23.915  0.00  0.00    -0.022 C 
ATOM     35  C   UNL     1      34.126 -13.100 -22.913  0.00  0.00    -0.003 C 
ATOM     36  C   UNL     1      33.437 -12.689 -25.191  0.00  0.00    -0.003 C 
ATOM     37  C   UNL     1      33.643 -10.754 -23.623  0.00  0.00    +0.031 C 
ENDBRANCH  28  31
ENDBRANCH  24  28
ENDBRANCH  21  23
ENDBRANCH  20  21
ENDBRANCH   2  20
TORSDOF 7
ENDMDL
MODEL 5
REMARK VINA RESULT:     -11.0      5.952     15.614
REMARK  Name = 11677589
REMARK  7 active torsions:
REMARK  status: ('A' for Active; 'I' for Inactive)
REMARK    1  A    between atoms: C_1  and  N_7
REMARK    2  A    between atoms: C_2  and  C_20
REMARK    3  A    between atoms: C_11  and  C_18
REMARK    4  A    between atoms: C_20  and  C_21
REMARK    5  A    between atoms: C_21  and  N_23
REMARK    6  A    between atoms: N_24  and  S_28
REMARK    7  A    between atoms: S_28  and  C_31
REMARK                            x       y       z     vdW  Elec       q    Type
REMARK                         _______ _______ _______ _____ _____    ______ ____
ROOT
ATOM      1  C   UNL     1      32.901  -7.527 -23.078  0.00  0.00    +0.058 C 
ATOM      2  C   UNL     1      33.972 -10.029 -23.624  0.00  0.00    -0.020 C 
ATOM      3  C   UNL     1      34.240  -7.637 -23.428  0.00  0.00    +0.015 C 
ATOM      4  C   UNL     1      32.090  -8.651 -22.997  0.00  0.00    +0.015 C 
ATOM      5  C   UNL     1      34.778  -8.894 -23.702  0.00  0.00    -0.003 C 
ATOM      6  C   UNL     1      32.628  -9.909 -23.271  0.00  0.00    -0.003 C 
ENDROOT
BRANCH   1   7
ATOM      7  N   UNL     1      32.361  -6.269 -22.803  0.00  0.00    -0.242 N 
ATOM      8  N   UNL     1      31.339  -4.641 -21.686  0.00  0.00    -0.387 NA
ATOM      9  N   UNL     1      31.998  -2.723 -24.786  0.00  0.00    -0.408 NA
ATOM     10  C   UNL     1      32.355  -5.192 -23.651  0.00  0.00    +0.091 C 
ATOM     11  C   UNL     1      31.744  -5.891 -21.643  0.00  0.00    +0.168 C 
ATOM     12  C   UNL     1      31.712  -4.189 -22.930  0.00  0.00    +0.172 C 
ATOM     13  C   UNL     1      32.836  -5.009 -24.939  0.00  0.00    +0.045 C 
ATOM     14  C   UNL     1      31.542  -2.940 -23.528  0.00  0.00    +0.140 C 
ATOM     15  C   UNL     1      32.617  -3.735 -25.443  0.00  0.00    +0.110 C 
ATOM     16  C   UNL     1      30.868  -1.796 -22.849  0.00  0.00    +0.069 C 
ATOM     17  C   UNL     1      33.094  -3.423 -26.824  0.00  0.00    +0.066 C 
BRANCH  11  18
ATOM     18  C   UNL     1      31.570  -6.809 -20.497  0.00  0.00    +0.075 C 
ATOM     19  C   UNL     1      32.874  -7.045 -19.727  0.00  0.00    +0.009 C 
ENDBRANCH  11  18
ENDBRANCH   1   7
BRANCH   2  20
ATOM     20  C   UNL     1      34.548 -11.374 -23.916  0.00  0.00    +0.048 C 
BRANCH  20  21
ATOM     21  C   UNL     1      33.538 -12.353 -24.526  0.00  0.00    +0.096 C 
BRANCH  21  23
ATOM     22  O   UNL     1      33.784 -14.851 -25.924  0.00  0.00    -0.251 OA
ATOM     23  N   UNL     1      33.630 -13.665 -23.944  0.00  0.00    -0.287 N 
ATOM     24  N   UNL     1      33.815 -16.003 -23.892  0.00  0.00    -0.169 N 
ATOM     25  C   UNL     1      33.746 -14.822 -24.697  0.00  0.00    +0.319 C 
ATOM     26  H   UNL     1      33.608 -13.746 -22.963  0.00  0.00    +0.151 HD
ATOM     27  H   UNL     1      33.774 -15.887 -22.915  0.00  0.00    +0.178 HD
BRANCH  24  28
ATOM     28  S   UNL     1      33.962 -17.599 -24.487  0.00  0.00    +0.077 S 
ATOM     29  O   UNL     1      32.640 -18.152 -24.709  0.00  0.00    -0.150 OA
ATOM     30  O   UNL     1      34.958 -17.627 -25.541  0.00  0.00    -0.150 OA
BRANCH  28  31
ATOM     31  C   UNL     1      34.673 -18.416 -23.091  0.00  0.00    +0.125 C 
ATOM     32  C   UNL     1      33.958 -19.418 -22.456  0.00  0.00    +0.020 C 
ATOM     33  C   UNL     1      35.932 -18.040 -22.656  0.00  0.00    +0.020 C 
ATOM     34  C   UNL     1      35.787 -19.697 -20.904  0.00  0.00    -0.022 C 
ATOM     35  C   UNL     1      34.520 -20.063 -21.354  0.00  0.00    -0.003 C 
ATOM     36  C   UNL     1      36.494 -18.686 -21.554  0.00  0.00    -0.003 C 
ATOM     37  C   UNL     1      36.388 -20.388 -19.727  0.00  0.00    +0.031 C 
ENDBRANCH  28  31
ENDBRANCH  24  28
ENDBRANCH  21  23
ENDBRANCH  20  21
ENDBRANCH   2  20
TORSDOF 7
ENDMDL
MODEL 6
REMARK VINA RESULT:     -10.9      4.362     11.679
REMARK  Name = 11677589
REMARK  7 active torsions:
REMARK  status: ('A' for Active; 'I' for Inactive)
REMARK    1  A    between atoms: C_1  and  N_7
REMARK    2  A    between atoms: C_2  and  C_20
REMARK    3  A    between atoms: C_11  and  C_18
REMARK    4  A    between atoms: C_20  and  C_21
REMARK    5  A    between atoms: C_21  and  N_23
REMARK    6  A    between atoms: N_24  and  S_28
REMARK    7  A    between atoms: S_28  and  C_31
REMARK                            x       y       z     vdW  Elec       q    Type
REMARK                         _______ _______ _______ _____ _____    ______ ____
ROOT
ATOM      1  C   UNL     1      34.676 -19.382 -21.600  0.00  0.00    +0.058 C 
ATOM      2  C   UNL     1      35.096 -21.145 -19.496  0.00  0.00    -0.020 C 
ATOM      3  C   UNL     1      33.587 -19.976 -20.976  0.00  0.00    +0.015 C 
ATOM      4  C   UNL     1      35.973 -19.657 -21.185  0.00  0.00    +0.015 C 
ATOM      5  C   UNL     1      33.798 -20.862 -19.919  0.00  0.00    -0.003 C 
ATOM      6  C   UNL     1      36.184 -20.543 -20.129  0.00  0.00    -0.003 C 
ENDROOT
BRANCH   1   7
ATOM      7  N   UNL     1      34.466 -18.495 -22.657  0.00  0.00    -0.242 N 
ATOM      8  N   UNL     1      34.093 -17.776 -24.727  0.00  0.00    -0.387 NA
ATOM      9  N   UNL     1      34.250 -14.447 -23.109  0.00  0.00    -0.408 NA
ATOM     10  C   UNL     1      34.433 -17.128 -22.569  0.00  0.00    +0.091 C 
ATOM     11  C   UNL     1      34.258 -18.834 -23.966  0.00  0.00    +0.168 C 
ATOM     12  C   UNL     1      34.199 -16.703 -23.874  0.00  0.00    +0.172 C 
ATOM     13  C   UNL     1      34.582 -16.253 -21.502  0.00  0.00    +0.045 C 
ATOM     14  C   UNL     1      34.109 -15.334 -24.125  0.00  0.00    +0.140 C 
ATOM     15  C   UNL     1      34.476 -14.915 -21.857  0.00  0.00    +0.110 C 
ATOM     16  C   UNL     1      33.861 -14.768 -25.482  0.00  0.00    +0.069 C 
ATOM     17  C   UNL     1      34.620 -13.881 -20.787  0.00  0.00    +0.066 C 
BRANCH  11  18
ATOM     18  C   UNL     1      34.229 -20.237 -24.431  0.00  0.00    +0.075 C 
ATOM     19  C   UNL     1      35.631 -20.822 -24.631  0.00  0.00    +0.009 C 
ENDBRANCH  11  18
ENDBRANCH   1   7
BRANCH   2  20
ATOM     20  C   UNL     1      35.322 -22.093 -18.367  0.00  0.00    +0.048 C 
BRANCH  20  21
ATOM     21  C   UNL     1      36.440 -21.655 -17.414  0.00  0.00    +0.096 C 
BRANCH  21  23
ATOM     22  O   UNL     1      35.391 -23.987 -16.104  0.00  0.00    -0.251 OA
ATOM     23  N   UNL     1      36.058 -21.773 -16.032  0.00  0.00    -0.287 N 
ATOM     24  N   UNL     1      35.246 -22.809 -14.091  0.00  0.00    -0.169 N 
ATOM     25  C   UNL     1      35.559 -22.942 -15.481  0.00  0.00    +0.319 C 
ATOM     26  H   UNL     1      36.155 -20.985 -15.450  0.00  0.00    +0.151 HD
ATOM     27  H   UNL     1      35.408 -21.932 -13.673  0.00  0.00    +0.178 HD
BRANCH  24  28
ATOM     28  S   UNL     1      34.612 -24.047 -13.097  0.00  0.00    +0.077 S 
ATOM     29  O   UNL     1      35.235 -25.310 -13.447  0.00  0.00    -0.150 OA
ATOM     30  O   UNL     1      34.593 -23.593 -11.720  0.00  0.00    -0.150 OA
BRANCH  28  31
ATOM     31  C   UNL     1      32.932 -24.092 -13.643  0.00  0.00    +0.125 C 
ATOM     32  C   UNL     1      32.134 -25.167 -13.289  0.00  0.00    +0.020 C 
ATOM     33  C   UNL     1      32.444 -23.053 -14.416  0.00  0.00    +0.020 C 
ATOM     34  C   UNL     1      30.300 -24.163 -14.498  0.00  0.00    -0.022 C 
ATOM     35  C   UNL     1      30.808 -25.201 -13.719  0.00  0.00    -0.003 C 
ATOM     36  C   UNL     1      31.118 -23.088 -14.847  0.00  0.00    -0.003 C 
ATOM     37  C   UNL     1      28.882 -24.200 -14.958  0.00  0.00    +0.031 C 
ENDBRANCH  28  31
ENDBRANCH  24  28
ENDBRANCH  21  23
ENDBRANCH  20  21
ENDBRANCH   2  20
TORSDOF 7
ENDMDL
MODEL 7
REMARK VINA RESULT:     -10.7      3.704     13.004
REMARK  Name = 11677589
REMARK  7 active torsions:
REMARK  status: ('A' for Active; 'I' for Inactive)
REMARK    1  A    between atoms: C_1  and  N_7
REMARK    2  A    between atoms: C_2  and  C_20
REMARK    3  A    between atoms: C_11  and  C_18
REMARK    4  A    between atoms: C_20  and  C_21
REMARK    5  A    between atoms: C_21  and  N_23
REMARK    6  A    between atoms: N_24  and  S_28
REMARK    7  A    between atoms: S_28  and  C_31
REMARK                            x       y       z     vdW  Elec       q    Type
REMARK                         _______ _______ _______ _____ _____    ______ ____
ROOT
ATOM      1  C   UNL     1      33.714 -12.980 -23.243  0.00  0.00    +0.058 C 
ATOM      2  C   UNL     1      34.149 -15.722 -23.292  0.00  0.00    -0.020 C 
ATOM      3  C   UNL     1      33.297 -13.720 -24.341  0.00  0.00    +0.015 C 
ATOM      4  C   UNL     1      34.345 -13.593 -22.168  0.00  0.00    +0.015 C 
ATOM      5  C   UNL     1      33.516 -15.097 -24.366  0.00  0.00    -0.003 C 
ATOM      6  C   UNL     1      34.564 -14.970 -22.193  0.00  0.00    -0.003 C 
ENDROOT
BRANCH   1   7
ATOM      7  N   UNL     1      33.496 -11.602 -23.217  0.00  0.00    -0.242 N 
ATOM      8  N   UNL     1      33.584  -9.468 -23.836  0.00  0.00    -0.387 NA
ATOM      9  N   UNL     1      31.553  -8.972 -20.778  0.00  0.00    -0.408 NA
ATOM     10  C   UNL     1      32.787 -10.915 -22.266  0.00  0.00    +0.091 C 
ATOM     11  C   UNL     1      33.951 -10.694 -24.133  0.00  0.00    +0.168 C 
ATOM     12  C   UNL     1      32.857  -9.586 -22.675  0.00  0.00    +0.172 C 
ATOM     13  C   UNL     1      32.113 -11.322 -21.123  0.00  0.00    +0.045 C 
ATOM     14  C   UNL     1      32.221  -8.614 -21.903  0.00  0.00    +0.140 C 
ATOM     15  C   UNL     1      31.516 -10.281 -20.425  0.00  0.00    +0.110 C 
ATOM     16  C   UNL     1      32.231  -7.163 -22.247  0.00  0.00    +0.069 C 
ATOM     17  C   UNL     1      30.762 -10.601 -19.176  0.00  0.00    +0.066 C 
BRANCH  11  18
ATOM     18  C   UNL     1      34.761 -11.085 -25.307  0.00  0.00    +0.075 C 
ATOM     19  C   UNL     1      35.896 -10.097 -25.598  0.00  0.00    +0.009 C 
ENDBRANCH  11  18
ENDBRANCH   1   7
BRANCH   2  20
ATOM     20  C   UNL     1      34.383 -17.195 -23.319  0.00  0.00    +0.048 C 
BRANCH  20  21
ATOM     21  C   UNL     1      35.550 -17.646 -22.434  0.00  0.00    +0.096 C 
BRANCH  21  23
ATOM     22  O   UNL     1      37.282 -19.315 -20.863  0.00  0.00    -0.251 OA
ATOM     23  N   UNL     1      35.155 -18.642 -21.474  0.00  0.00    -0.287 N 
ATOM     24  N   UNL     1      35.427 -20.331 -19.869  0.00  0.00    -0.169 N 
ATOM     25  C   UNL     1      36.062 -19.405 -20.758  0.00  0.00    +0.319 C 
ATOM     26  H   UNL     1      34.194 -18.789 -21.320  0.00  0.00    +0.151 HD
ATOM     27  H   UNL     1      34.443 -20.338 -19.853  0.00  0.00    +0.178 HD
BRANCH  24  28
ATOM     28  S   UNL     1      36.238 -21.425 -18.837  0.00  0.00    +0.077 S 
ATOM     29  O   UNL     1      36.813 -22.497 -19.628  0.00  0.00    -0.150 OA
ATOM     30  O   UNL     1      37.058 -20.682 -17.900  0.00  0.00    -0.150 OA
BRANCH  28  31
ATOM     31  C   UNL     1      34.883 -22.088 -17.915  0.00  0.00    +0.125 C 
ATOM     32  C   UNL     1      35.125 -22.679 -16.687  0.00  0.00    +0.020 C 
ATOM     33  C   UNL     1      33.605 -22.004 -18.439  0.00  0.00    +0.020 C 
ATOM     34  C   UNL     1      32.760 -23.125 -16.473  0.00  0.00    -0.022 C 
ATOM     35  C   UNL     1      34.055 -23.202 -15.960  0.00  0.00    -0.003 C 
ATOM     36  C   UNL     1      32.535 -22.526 -17.712  0.00  0.00    -0.003 C 
ATOM     37  C   UNL     1      31.617 -23.682 -15.695  0.00  0.00    +0.031 C 
ENDBRANCH  28  31
ENDBRANCH  24  28
ENDBRANCH  21  23
ENDBRANCH  20  21
ENDBRANCH   2  20
TORSDOF 7
ENDMDL
MODEL 8
REMARK VINA RESULT:     -10.6      3.604     12.813
REMARK  Name = 11677589
REMARK  7 active torsions:
REMARK  status: ('A' for Active; 'I' for Inactive)
REMARK    1  A    between atoms: C_1  and  N_7
REMARK    2  A    between atoms: C_2  and  C_20
REMARK    3  A    between atoms: C_11  and  C_18
REMARK    4  A    between atoms: C_20  and  C_21
REMARK    5  A    between atoms: C_21  and  N_23
REMARK    6  A    between atoms: N_24  and  S_28
REMARK    7  A    between atoms: S_28  and  C_31
REMARK                            x       y       z     vdW  Elec       q    Type
REMARK                         _______ _______ _______ _____ _____    ______ ____
ROOT
ATOM      1  C   UNL     1      33.978 -13.752 -22.618  0.00  0.00    +0.058 C 
ATOM      2  C   UNL     1      34.929 -16.295 -22.035  0.00  0.00    -0.020 C 
ATOM      3  C   UNL     1      34.062 -14.165 -21.295  0.00  0.00    +0.015 C 
ATOM      4  C   UNL     1      34.363 -14.593 -23.654  0.00  0.00    +0.015 C 
ATOM      5  C   UNL     1      34.539 -15.443 -21.002  0.00  0.00    -0.003 C 
ATOM      6  C   UNL     1      34.840 -15.871 -23.361  0.00  0.00    -0.003 C 
ENDROOT
BRANCH   1   7
ATOM      7  N   UNL     1      33.500 -12.474 -22.912  0.00  0.00    -0.242 N 
ATOM      8  N   UNL     1      33.059 -10.634 -24.080  0.00  0.00    -0.387 NA
ATOM      9  N   UNL     1      31.519  -9.534 -20.896  0.00  0.00    -0.408 NA
ATOM     10  C   UNL     1      32.841 -11.640 -22.047  0.00  0.00    +0.091 C 
ATOM     11  C   UNL     1      33.606 -11.829 -24.114  0.00  0.00    +0.168 C 
ATOM     12  C   UNL     1      32.577 -10.500 -22.799  0.00  0.00    +0.172 C 
ATOM     13  C   UNL     1      32.465 -11.776 -20.718  0.00  0.00    +0.045 C 
ATOM     14  C   UNL     1      31.902  -9.440 -22.193  0.00  0.00    +0.140 C 
ATOM     15  C   UNL     1      31.801 -10.668 -20.209  0.00  0.00    +0.110 C 
ATOM     16  C   UNL     1      31.568  -8.172 -22.904  0.00  0.00    +0.069 C 
ATOM     17  C   UNL     1      31.347 -10.701 -18.786  0.00  0.00    +0.066 C 
BRANCH  11  18
ATOM     18  C   UNL     1      34.266 -12.436 -25.289  0.00  0.00    +0.075 C 
ATOM     19  C   UNL     1      33.272 -12.826 -26.389  0.00  0.00    +0.009 C 
ENDBRANCH  11  18
ENDBRANCH   1   7
BRANCH   2  20
ATOM     20  C   UNL     1      35.439 -17.661 -21.721  0.00  0.00    +0.048 C 
BRANCH  20  21
ATOM     21  C   UNL     1      34.328 -18.700 -21.529  0.00  0.00    +0.096 C 
BRANCH  21  23
ATOM     22  O   UNL     1      32.583 -20.639 -20.325  0.00  0.00    -0.251 OA
ATOM     23  N   UNL     1      34.689 -19.716 -20.577  0.00  0.00    -0.287 N 
ATOM     24  N   UNL     1      34.376 -21.524 -19.115  0.00  0.00    -0.169 N 
ATOM     25  C   UNL     1      33.778 -20.614 -20.044  0.00  0.00    +0.319 C 
ATOM     26  H   UNL     1      35.629 -19.775 -20.288  0.00  0.00    +0.151 HD
ATOM     27  H   UNL     1      35.341 -21.429 -18.947  0.00  0.00    +0.178 HD
BRANCH  24  28
ATOM     28  S   UNL     1      33.550 -22.761 -18.272  0.00  0.00    +0.077 S 
ATOM     29  O   UNL     1      32.231 -22.289 -17.897  0.00  0.00    -0.150 OA
ATOM     30  O   UNL     1      33.708 -24.014 -18.986  0.00  0.00    -0.150 OA
BRANCH  28  31
ATOM     31  C   UNL     1      34.529 -22.882 -16.806  0.00  0.00    +0.125 C 
ATOM     32  C   UNL     1      33.993 -23.488 -15.682  0.00  0.00    +0.020 C 
ATOM     33  C   UNL     1      35.815 -22.369 -16.807  0.00  0.00    +0.020 C 
ATOM     34  C   UNL     1      36.063 -23.072 -14.509  0.00  0.00    -0.022 C 
ATOM     35  C   UNL     1      34.766 -23.584 -14.525  0.00  0.00    -0.003 C 
ATOM     36  C   UNL     1      36.588 -22.465 -15.650  0.00  0.00    -0.003 C 
ATOM     37  C   UNL     1      36.889 -23.176 -13.272  0.00  0.00    +0.031 C 
ENDBRANCH  28  31
ENDBRANCH  24  28
ENDBRANCH  21  23
ENDBRANCH  20  21
ENDBRANCH   2  20
TORSDOF 7
ENDMDL
MODEL 9
REMARK VINA RESULT:     -10.6      5.085     14.982
REMARK  Name = 11677589
REMARK  7 active torsions:
REMARK  status: ('A' for Active; 'I' for Inactive)
REMARK    1  A    between atoms: C_1  and  N_7
REMARK    2  A    between atoms: C_2  and  C_20
REMARK    3  A    between atoms: C_11  and  C_18
REMARK    4  A    between atoms: C_20  and  C_21
REMARK    5  A    between atoms: C_21  and  N_23
REMARK    6  A    between atoms: N_24  and  S_28
REMARK    7  A    between atoms: S_28  and  C_31
REMARK                            x       y       z     vdW  Elec       q    Type
REMARK                         _______ _______ _______ _____ _____    ______ ____
ROOT
ATOM      1  C   UNL     1      32.903  -8.667 -22.883  0.00  0.00    +0.058 C 
ATOM      2  C   UNL     1      33.762 -11.284 -23.234  0.00  0.00    -0.020 C 
ATOM      3  C   UNL     1      34.142  -8.910 -23.463  0.00  0.00    +0.015 C 
ATOM      4  C   UNL     1      32.088  -9.716 -22.477  0.00  0.00    +0.015 C 
ATOM      5  C   UNL     1      34.573 -10.225 -23.638  0.00  0.00    -0.003 C 
ATOM      6  C   UNL     1      32.520 -11.031 -22.653  0.00  0.00    -0.003 C 
ENDROOT
BRANCH   1   7
ATOM      7  N   UNL     1      32.470  -7.352 -22.706  0.00  0.00    -0.242 N 
ATOM      8  N   UNL     1      31.554  -5.575 -21.735  0.00  0.00    -0.387 NA
ATOM      9  N   UNL     1      32.528  -3.913 -24.898  0.00  0.00    -0.408 NA
ATOM     10  C   UNL     1      32.603  -6.331 -23.611  0.00  0.00    +0.091 C 
ATOM     11  C   UNL     1      31.838  -6.851 -21.602  0.00  0.00    +0.168 C 
ATOM     12  C   UNL     1      32.023  -5.234 -22.981  0.00  0.00    +0.172 C 
ATOM     13  C   UNL     1      33.158  -6.270 -24.882  0.00  0.00    +0.045 C 
ATOM     14  C   UNL     1      31.997  -4.013 -23.655  0.00  0.00    +0.140 C 
ATOM     15  C   UNL     1      33.081  -5.013 -25.466  0.00  0.00    +0.110 C 
ATOM     16  C   UNL     1      31.402  -2.774 -23.076  0.00  0.00    +0.069 C 
ATOM     17  C   UNL     1      33.648  -4.828 -26.836  0.00  0.00    +0.066 C 
BRANCH  11  18
ATOM     18  C   UNL     1      31.528  -7.680 -20.417  0.00  0.00    +0.075 C 
ATOM     19  C   UNL     1      32.670  -7.701 -19.396  0.00  0.00    +0.009 C 
ENDBRANCH  11  18
ENDBRANCH   1   7
BRANCH   2  20
ATOM     20  C   UNL     1      34.224 -12.690 -23.422  0.00  0.00    +0.048 C 
BRANCH  20  21
ATOM     21  C   UNL     1      33.214 -13.737 -22.936  0.00  0.00    +0.096 C 
BRANCH  21  23
ATOM     22  O   UNL     1      34.373 -16.085 -24.118  0.00  0.00    -0.251 OA
ATOM     23  N   UNL     1      33.848 -14.829 -22.247  0.00  0.00    -0.287 N 
ATOM     24  N   UNL     1      34.954 -16.883 -22.000  0.00  0.00    -0.169 N 
ATOM     25  C   UNL     1      34.383 -15.928 -22.900  0.00  0.00    +0.319 C 
ATOM     26  H   UNL     1      33.904 -14.795 -21.265  0.00  0.00    +0.151 HD
ATOM     27  H   UNL     1      34.913 -16.677 -21.038  0.00  0.00    +0.178 HD
BRANCH  24  28
ATOM     28  S   UNL     1      35.698 -18.352 -22.458  0.00  0.00    +0.077 S 
ATOM     29  O   UNL     1      35.230 -18.737 -23.776  0.00  0.00    -0.150 OA
ATOM     30  O   UNL     1      37.118 -18.279 -22.174  0.00  0.00    -0.150 OA
BRANCH  28  31
ATOM     31  C   UNL     1      34.998 -19.468 -21.279  0.00  0.00    +0.125 C 
ATOM     32  C   UNL     1      33.624 -19.619 -21.223  0.00  0.00    +0.020 C 
ATOM     33  C   UNL     1      35.839 -20.170 -20.432  0.00  0.00    +0.020 C 
ATOM     34  C   UNL     1      33.904 -21.215 -19.432  0.00  0.00    -0.022 C 
ATOM     35  C   UNL     1      33.072 -20.500 -20.292  0.00  0.00    -0.003 C 
ATOM     36  C   UNL     1      35.287 -21.051 -19.502  0.00  0.00    -0.003 C 
ATOM     37  C   UNL     1      33.314 -22.158 -18.438  0.00  0.00    +0.031 C 
ENDBRANCH  28  31
ENDBRANCH  24  28
ENDBRANCH  21  23
ENDBRANCH  20  21
ENDBRANCH   2  20
TORSDOF 7
ENDMDL
