MODEL 1
REMARK VINA RESULT:     -11.6      0.000      0.000
REMARK  Name = 16755766
REMARK  5 active torsions:
REMARK  status: ('A' for Active; 'I' for Inactive)
REMARK    1  A    between atoms: N_1  and  C_25
REMARK    2  A    between atoms: N_3  and  C_12
REMARK    3  A    between atoms: C_5  and  C_20
REMARK    4  A    between atoms: C_25  and  C_26
REMARK    5  A    between atoms: C_26  and  C_29
REMARK                            x       y       z     vdW  Elec       q    Type
REMARK                         _______ _______ _______ _____ _____    ______ ____
ROOT
ATOM      1  N   UNL     1      32.561 -23.399 -15.684  0.00  0.00    -0.174 N 
ATOM      2  N   UNL     1      33.772 -23.608 -15.164  0.00  0.00    -0.096 NA
ATOM      3  N   UNL     1      34.309 -24.616 -13.057  0.00  0.00    -0.246 N 
ATOM      4  N   UNL     1      32.101 -24.338 -13.783  0.00  0.00    -0.319 NA
ATOM      5  C   UNL     1      31.572 -23.829 -14.871  0.00  0.00    +0.216 C 
ATOM      6  C   UNL     1      33.439 -24.182 -14.006  0.00  0.00    +0.165 C 
ATOM      7  H   UNL     1      33.873 -24.933 -12.233  0.00  0.00    +0.165 HD
ENDROOT
BRANCH   3  12
ATOM      8  F   UNL     1      40.494 -26.974 -13.955  0.00  0.00    -0.125 F 
ATOM      9  F   UNL     1      40.628 -25.151 -15.156  0.00  0.00    -0.125 F 
ATOM     10  O   UNL     1      38.594 -26.096 -14.827  0.00  0.00    -0.395 OA
ATOM     11  O   UNL     1      39.812 -25.012 -13.047  0.00  0.00    -0.395 OA
ATOM     12  C   UNL     1      35.729 -24.699 -13.025  0.00  0.00    +0.061 C 
ATOM     13  C   UNL     1      37.771 -25.458 -13.949  0.00  0.00    +0.183 C 
ATOM     14  C   UNL     1      36.393 -25.405 -14.023  0.00  0.00    +0.056 C 
ATOM     15  C   UNL     1      38.467 -24.839 -12.933  0.00  0.00    +0.182 C 
ATOM     16  C   UNL     1      36.428 -24.067 -11.988  0.00  0.00    +0.019 C 
ATOM     17  C   UNL     1      37.822 -24.135 -11.937  0.00  0.00    +0.042 C 
ATOM     18  C   UNL     1      39.870 -25.803 -14.241  0.00  0.00    +0.589 C 
ENDBRANCH   3  12
BRANCH   5  20
ATOM     19  N   UNL     1      27.440 -23.529 -15.761  0.00  0.00    -0.242 NA
ATOM     20  C   UNL     1      30.165 -23.726 -15.173  0.00  0.00    +0.050 C 
ATOM     21  C   UNL     1      29.458 -22.580 -14.826  0.00  0.00    +0.025 C 
ATOM     22  C   UNL     1      29.512 -24.774 -15.813  0.00  0.00    +0.025 C 
ATOM     23  C   UNL     1      28.109 -22.532 -15.140  0.00  0.00    +0.099 C 
ATOM     24  C   UNL     1      28.161 -24.627 -16.082  0.00  0.00    +0.099 C 
ENDBRANCH   5  20
BRANCH   1  25
ATOM     25  C   UNL     1      32.440 -22.758 -16.989  0.00  0.00    +0.129 C 
BRANCH  25  26
ATOM     26  C   UNL     1      33.733 -22.850 -17.797  0.00  0.00    +0.109 C 
BRANCH  26  29
ATOM     27  O   UNL     1      32.704 -21.667 -19.610  0.00  0.00    -0.275 OA
ATOM     28  N   UNL     1      34.979 -21.331 -19.312  0.00  0.00    -0.276 N 
ATOM     29  C   UNL     1      33.743 -21.900 -18.988  0.00  0.00    +0.228 C 
ATOM     30  C   UNL     1      36.198 -21.622 -18.561  0.00  0.00    +0.115 C 
ATOM     31  C   UNL     1      35.145 -20.405 -20.426  0.00  0.00    +0.115 C 
ENDBRANCH  26  29
ENDBRANCH  25  26
ENDBRANCH   1  25
TORSDOF 5
ENDMDL
MODEL 2
REMARK VINA RESULT:     -11.3      4.366      8.229
REMARK  Name = 16755766
REMARK  5 active torsions:
REMARK  status: ('A' for Active; 'I' for Inactive)
REMARK    1  A    between atoms: N_1  and  C_25
REMARK    2  A    between atoms: N_3  and  C_12
REMARK    3  A    between atoms: C_5  and  C_20
REMARK    4  A    between atoms: C_25  and  C_26
REMARK    5  A    between atoms: C_26  and  C_29
REMARK                            x       y       z     vdW  Elec       q    Type
REMARK                         _______ _______ _______ _____ _____    ______ ____
ROOT
ATOM      1  N   UNL     1      34.578 -23.651 -15.313  0.00  0.00    -0.174 N 
ATOM      2  N   UNL     1      34.408 -22.903 -16.405  0.00  0.00    -0.096 NA
ATOM      3  N   UNL     1      36.100 -21.934 -17.798  0.00  0.00    -0.246 N 
ATOM      4  N   UNL     1      36.619 -23.217 -15.911  0.00  0.00    -0.319 NA
ATOM      5  C   UNL     1      35.883 -23.838 -15.018  0.00  0.00    +0.216 C 
ATOM      6  C   UNL     1      35.679 -22.664 -16.732  0.00  0.00    +0.165 C 
ATOM      7  H   UNL     1      37.074 -21.797 -17.826  0.00  0.00    +0.165 HD
ENDROOT
BRANCH   3  12
ATOM      8  F   UNL     1      34.551 -17.618 -22.655  0.00  0.00    -0.125 F 
ATOM      9  F   UNL     1      34.852 -19.419 -23.860  0.00  0.00    -0.125 F 
ATOM     10  O   UNL     1      35.900 -19.255 -21.856  0.00  0.00    -0.395 OA
ATOM     11  O   UNL     1      33.509 -19.535 -22.038  0.00  0.00    -0.395 OA
ATOM     12  C   UNL     1      35.402 -21.328 -18.880  0.00  0.00    +0.061 C 
ATOM     13  C   UNL     1      35.389 -20.014 -20.847  0.00  0.00    +0.183 C 
ATOM     14  C   UNL     1      36.110 -20.583 -19.817  0.00  0.00    +0.056 C 
ATOM     15  C   UNL     1      34.024 -20.174 -20.952  0.00  0.00    +0.182 C 
ATOM     16  C   UNL     1      34.014 -21.496 -18.978  0.00  0.00    +0.019 C 
ATOM     17  C   UNL     1      33.308 -20.911 -20.031  0.00  0.00    +0.042 C 
ATOM     18  C   UNL     1      34.703 -18.964 -22.591  0.00  0.00    +0.589 C 
ENDBRANCH   3  12
BRANCH   5  20
ATOM     19  N   UNL     1      37.301 -26.071 -11.708  0.00  0.00    -0.242 NA
ATOM     20  C   UNL     1      36.364 -24.599 -13.891  0.00  0.00    +0.050 C 
ATOM     21  C   UNL     1      36.681 -25.945 -14.042  0.00  0.00    +0.025 C 
ATOM     22  C   UNL     1      36.515 -23.989 -12.652  0.00  0.00    +0.025 C 
ATOM     23  C   UNL     1      37.142 -26.630 -12.929  0.00  0.00    +0.099 C 
ATOM     24  C   UNL     1      36.982 -24.762 -11.601  0.00  0.00    +0.099 C 
ENDBRANCH   5  20
BRANCH   1  25
ATOM     25  C   UNL     1      33.412 -24.145 -14.591  0.00  0.00    +0.129 C 
BRANCH  25  26
ATOM     26  C   UNL     1      32.322 -23.082 -14.460  0.00  0.00    +0.109 C 
BRANCH  26  29
ATOM     27  O   UNL     1      31.055 -22.846 -16.481  0.00  0.00    -0.275 OA
ATOM     28  N   UNL     1      30.148 -24.214 -14.843  0.00  0.00    -0.276 N 
ATOM     29  C   UNL     1      31.127 -23.360 -15.362  0.00  0.00    +0.228 C 
ATOM     30  C   UNL     1      30.254 -24.812 -13.514  0.00  0.00    +0.115 C 
ATOM     31  C   UNL     1      28.948 -24.571 -15.589  0.00  0.00    +0.115 C 
ENDBRANCH  26  29
ENDBRANCH  25  26
ENDBRANCH   1  25
TORSDOF 5
ENDMDL
MODEL 3
REMARK VINA RESULT:     -10.4      3.880      7.307
REMARK  Name = 16755766
REMARK  5 active torsions:
REMARK  status: ('A' for Active; 'I' for Inactive)
REMARK    1  A    between atoms: N_1  and  C_25
REMARK    2  A    between atoms: N_3  and  C_12
REMARK    3  A    between atoms: C_5  and  C_20
REMARK    4  A    between atoms: C_25  and  C_26
REMARK    5  A    between atoms: C_26  and  C_29
REMARK                            x       y       z     vdW  Elec       q    Type
REMARK                         _______ _______ _______ _____ _____    ______ ____
ROOT
ATOM      1  N   UNL     1      33.260 -23.374 -15.831  0.00  0.00    -0.174 N 
ATOM      2  N   UNL     1      33.821 -22.732 -16.857  0.00  0.00    -0.096 NA
ATOM      3  N   UNL     1      32.731 -21.796 -18.776  0.00  0.00    -0.246 N 
ATOM      4  N   UNL     1      31.550 -22.895 -17.080  0.00  0.00    -0.319 NA
ATOM      5  C   UNL     1      31.919 -23.472 -15.959  0.00  0.00    +0.216 C 
ATOM      6  C   UNL     1      32.739 -22.460 -17.590  0.00  0.00    +0.165 C 
ATOM      7  H   UNL     1      31.848 -21.768 -19.210  0.00  0.00    +0.165 HD
ENDROOT
BRANCH   3  12
ATOM      8  F   UNL     1      35.887 -18.731 -23.802  0.00  0.00    -0.125 F 
ATOM      9  F   UNL     1      35.898 -17.111 -22.332  0.00  0.00    -0.125 F 
ATOM     10  O   UNL     1      34.289 -18.702 -22.194  0.00  0.00    -0.395 OA
ATOM     11  O   UNL     1      36.605 -19.168 -21.696  0.00  0.00    -0.395 OA
ATOM     12  C   UNL     1      33.755 -21.135 -19.511  0.00  0.00    +0.061 C 
ATOM     13  C   UNL     1      34.431 -19.614 -21.192  0.00  0.00    +0.183 C 
ATOM     14  C   UNL     1      33.403 -20.229 -20.506  0.00  0.00    +0.056 C 
ATOM     15  C   UNL     1      35.753 -19.879 -20.908  0.00  0.00    +0.182 C 
ATOM     16  C   UNL     1      35.096 -21.412 -19.215  0.00  0.00    +0.019 C 
ATOM     17  C   UNL     1      36.118 -20.774 -19.923  0.00  0.00    +0.042 C 
ATOM     18  C   UNL     1      35.666 -18.437 -22.496  0.00  0.00    +0.589 C 
ENDBRANCH   3  12
BRANCH   5  20
ATOM     19  N   UNL     1      29.370 -25.371 -13.158  0.00  0.00    -0.242 NA
ATOM     20  C   UNL     1      31.053 -24.119 -15.005  0.00  0.00    +0.050 C 
ATOM     21  C   UNL     1      31.220 -23.892 -13.643  0.00  0.00    +0.025 C 
ATOM     22  C   UNL     1      30.045 -24.971 -15.444  0.00  0.00    +0.025 C 
ATOM     23  C   UNL     1      30.360 -24.536 -12.769  0.00  0.00    +0.099 C 
ATOM     24  C   UNL     1      29.239 -25.567 -14.488  0.00  0.00    +0.099 C 
ENDBRANCH   5  20
BRANCH   1  25
ATOM     25  C   UNL     1      34.101 -23.880 -14.753  0.00  0.00    +0.129 C 
BRANCH  25  26
ATOM     26  C   UNL     1      35.538 -24.123 -15.211  0.00  0.00    +0.109 C 
BRANCH  26  29
ATOM     27  O   UNL     1      35.914 -26.490 -15.174  0.00  0.00    -0.275 OA
ATOM     28  N   UNL     1      36.894 -25.259 -13.471  0.00  0.00    -0.276 N 
ATOM     29  C   UNL     1      36.124 -25.403 -14.630  0.00  0.00    +0.228 C 
ATOM     30  C   UNL     1      37.130 -23.961 -12.843  0.00  0.00    +0.115 C 
ATOM     31  C   UNL     1      37.517 -26.393 -12.801  0.00  0.00    +0.115 C 
ENDBRANCH  26  29
ENDBRANCH  25  26
ENDBRANCH   1  25
TORSDOF 5
ENDMDL
MODEL 4
REMARK VINA RESULT:     -10.2      3.955      7.444
REMARK  Name = 16755766
REMARK  5 active torsions:
REMARK  status: ('A' for Active; 'I' for Inactive)
REMARK    1  A    between atoms: N_1  and  C_25
REMARK    2  A    between atoms: N_3  and  C_12
REMARK    3  A    between atoms: C_5  and  C_20
REMARK    4  A    between atoms: C_25  and  C_26
REMARK    5  A    between atoms: C_26  and  C_29
REMARK                            x       y       z     vdW  Elec       q    Type
REMARK                         _______ _______ _______ _____ _____    ______ ____
ROOT
ATOM      1  N   UNL     1      33.474 -23.338 -15.892  0.00  0.00    -0.174 N 
ATOM      2  N   UNL     1      33.982 -22.690 -16.941  0.00  0.00    -0.096 NA
ATOM      3  N   UNL     1      32.798 -21.758 -18.805  0.00  0.00    -0.246 N 
ATOM      4  N   UNL     1      31.705 -22.870 -17.059  0.00  0.00    -0.319 NA
ATOM      5  C   UNL     1      32.129 -23.446 -15.958  0.00  0.00    +0.216 C 
ATOM      6  C   UNL     1      32.866 -22.425 -17.623  0.00  0.00    +0.165 C 
ATOM      7  H   UNL     1      31.896 -21.736 -19.198  0.00  0.00    +0.165 HD
ENDROOT
BRANCH   3  12
ATOM      8  F   UNL     1      35.694 -18.652 -23.961  0.00  0.00    -0.125 F 
ATOM      9  F   UNL     1      35.766 -17.038 -22.486  0.00  0.00    -0.125 F 
ATOM     10  O   UNL     1      34.174 -18.640 -22.279  0.00  0.00    -0.395 OA
ATOM     11  O   UNL     1      36.514 -19.094 -21.894  0.00  0.00    -0.395 OA
ATOM     12  C   UNL     1      33.782 -21.088 -19.585  0.00  0.00    +0.061 C 
ATOM     13  C   UNL     1      34.369 -19.555 -21.289  0.00  0.00    +0.183 C 
ATOM     14  C   UNL     1      33.378 -20.179 -20.558  0.00  0.00    +0.056 C 
ATOM     15  C   UNL     1      35.704 -19.813 -21.069  0.00  0.00    +0.182 C 
ATOM     16  C   UNL     1      35.137 -21.358 -19.354  0.00  0.00    +0.019 C 
ATOM     17  C   UNL     1      36.120 -20.711 -20.107  0.00  0.00    +0.042 C 
ATOM     18  C   UNL     1      35.534 -18.365 -22.645  0.00  0.00    +0.589 C 
ENDBRANCH   3  12
BRANCH   5  20
ATOM     19  N   UNL     1      29.735 -25.376 -13.043  0.00  0.00    -0.242 NA
ATOM     20  C   UNL     1      31.313 -24.102 -14.967  0.00  0.00    +0.050 C 
ATOM     21  C   UNL     1      30.292 -24.962 -15.359  0.00  0.00    +0.025 C 
ATOM     22  C   UNL     1      31.545 -23.880 -13.614  0.00  0.00    +0.025 C 
ATOM     23  C   UNL     1      29.539 -25.568 -14.367  0.00  0.00    +0.099 C 
ATOM     24  C   UNL     1      30.735 -24.535 -12.700  0.00  0.00    +0.099 C 
ENDBRANCH   5  20
BRANCH   1  25
ATOM     25  C   UNL     1      34.367 -23.840 -14.855  0.00  0.00    +0.129 C 
BRANCH  25  26
ATOM     26  C   UNL     1      35.808 -23.965 -15.348  0.00  0.00    +0.109 C 
BRANCH  26  29
ATOM     27  O   UNL     1      37.167 -23.057 -13.594  0.00  0.00    -0.275 OA
ATOM     28  N   UNL     1      37.272 -25.353 -13.904  0.00  0.00    -0.276 N 
ATOM     29  C   UNL     1      36.807 -24.068 -14.203  0.00  0.00    +0.228 C 
ATOM     30  C   UNL     1      36.832 -26.537 -14.639  0.00  0.00    +0.115 C 
ATOM     31  C   UNL     1      38.231 -25.609 -12.836  0.00  0.00    +0.115 C 
ENDBRANCH  26  29
ENDBRANCH  25  26
ENDBRANCH   1  25
TORSDOF 5
ENDMDL
MODEL 5
REMARK VINA RESULT:     -10.1      2.780      5.855
REMARK  Name = 16755766
REMARK  5 active torsions:
REMARK  status: ('A' for Active; 'I' for Inactive)
REMARK    1  A    between atoms: N_1  and  C_25
REMARK    2  A    between atoms: N_3  and  C_12
REMARK    3  A    between atoms: C_5  and  C_20
REMARK    4  A    between atoms: C_25  and  C_26
REMARK    5  A    between atoms: C_26  and  C_29
REMARK                            x       y       z     vdW  Elec       q    Type
REMARK                         _______ _______ _______ _____ _____    ______ ____
ROOT
ATOM      1  N   UNL     1      34.791 -22.106 -17.925  0.00  0.00    -0.174 N 
ATOM      2  N   UNL     1      35.274 -22.695 -16.829  0.00  0.00    -0.096 NA
ATOM      3  N   UNL     1      37.504 -22.572 -15.960  0.00  0.00    -0.246 N 
ATOM      4  N   UNL     1      36.862 -21.457 -17.915  0.00  0.00    -0.319 NA
ATOM      5  C   UNL     1      35.725 -21.374 -18.568  0.00  0.00    +0.216 C 
ATOM      6  C   UNL     1      36.538 -22.269 -16.866  0.00  0.00    +0.165 C 
ATOM      7  H   UNL     1      38.396 -22.235 -16.202  0.00  0.00    +0.165 HD
ENDROOT
BRANCH   3  12
ATOM      8  F   UNL     1      36.572 -23.887  -9.477  0.00  0.00    -0.125 F 
ATOM      9  F   UNL     1      35.161 -25.319 -10.339  0.00  0.00    -0.125 F 
ATOM     10  O   UNL     1      35.702 -23.466 -11.528  0.00  0.00    -0.395 OA
ATOM     11  O   UNL     1      37.279 -25.254 -11.143  0.00  0.00    -0.395 OA
ATOM     12  C   UNL     1      37.472 -23.284 -14.728  0.00  0.00    +0.061 C 
ATOM     13  C   UNL     1      36.541 -23.655 -12.585  0.00  0.00    +0.183 C 
ATOM     14  C   UNL     1      36.531 -22.937 -13.764  0.00  0.00    +0.056 C 
ATOM     15  C   UNL     1      37.440 -24.676 -12.365  0.00  0.00    +0.182 C 
ATOM     16  C   UNL     1      38.391 -24.319 -14.513  0.00  0.00    +0.019 C 
ATOM     17  C   UNL     1      38.378 -25.032 -13.312  0.00  0.00    +0.042 C 
ATOM     18  C   UNL     1      36.184 -24.479 -10.635  0.00  0.00    +0.589 C 
ENDBRANCH   3  12
BRANCH   5  20
ATOM     19  N   UNL     1      35.032 -19.193 -22.134  0.00  0.00    -0.242 NA
ATOM     20  C   UNL     1      35.489 -20.633 -19.783  0.00  0.00    +0.050 C 
ATOM     21  C   UNL     1      34.203 -20.537 -20.304  0.00  0.00    +0.025 C 
ATOM     22  C   UNL     1      36.546 -20.010 -20.436  0.00  0.00    +0.025 C 
ATOM     23  C   UNL     1      34.029 -19.812 -21.471  0.00  0.00    +0.099 C 
ATOM     24  C   UNL     1      36.267 -19.309 -21.598  0.00  0.00    +0.099 C 
ENDBRANCH   5  20
BRANCH   1  25
ATOM     25  C   UNL     1      33.395 -22.311 -18.295  0.00  0.00    +0.129 C 
BRANCH  25  26
ATOM     26  C   UNL     1      32.742 -23.427 -17.481  0.00  0.00    +0.109 C 
BRANCH  26  29
ATOM     27  O   UNL     1      30.720 -22.262 -16.936  0.00  0.00    -0.275 OA
ATOM     28  N   UNL     1      31.891 -23.191 -15.163  0.00  0.00    -0.276 N 
ATOM     29  C   UNL     1      31.687 -22.902 -16.516  0.00  0.00    +0.228 C 
ATOM     30  C   UNL     1      33.045 -23.952 -14.689  0.00  0.00    +0.115 C 
ATOM     31  C   UNL     1      30.968 -22.754 -14.123  0.00  0.00    +0.115 C 
ENDBRANCH  26  29
ENDBRANCH  25  26
ENDBRANCH   1  25
TORSDOF 5
ENDMDL
MODEL 6
REMARK VINA RESULT:      -9.4      4.660      8.467
REMARK  Name = 16755766
REMARK  5 active torsions:
REMARK  status: ('A' for Active; 'I' for Inactive)
REMARK    1  A    between atoms: N_1  and  C_25
REMARK    2  A    between atoms: N_3  and  C_12
REMARK    3  A    between atoms: C_5  and  C_20
REMARK    4  A    between atoms: C_25  and  C_26
REMARK    5  A    between atoms: C_26  and  C_29
REMARK                            x       y       z     vdW  Elec       q    Type
REMARK                         _______ _______ _______ _____ _____    ______ ____
ROOT
ATOM      1  N   UNL     1      34.736 -22.840 -16.958  0.00  0.00    -0.174 N 
ATOM      2  N   UNL     1      34.903 -22.010 -17.990  0.00  0.00    -0.096 NA
ATOM      3  N   UNL     1      36.833 -20.686 -18.509  0.00  0.00    -0.246 N 
ATOM      4  N   UNL     1      36.744 -22.083 -16.633  0.00  0.00    -0.319 NA
ATOM      5  C   UNL     1      35.821 -22.885 -16.156  0.00  0.00    +0.216 C 
ATOM      6  C   UNL     1      36.142 -21.574 -17.747  0.00  0.00    +0.165 C 
ATOM      7  H   UNL     1      37.698 -20.420 -18.123  0.00  0.00    +0.165 HD
ENDROOT
BRANCH   3  12
ATOM      8  F   UNL     1      34.244 -19.682 -24.585  0.00  0.00    -0.125 F 
ATOM      9  F   UNL     1      33.367 -17.975 -23.536  0.00  0.00    -0.125 F 
ATOM     10  O   UNL     1      33.961 -19.806 -22.339  0.00  0.00    -0.395 OA
ATOM     11  O   UNL     1      35.595 -18.344 -23.350  0.00  0.00    -0.395 OA
ATOM     12  C   UNL     1      36.544 -20.066 -19.757  0.00  0.00    +0.061 C 
ATOM     13  C   UNL     1      35.090 -19.690 -21.585  0.00  0.00    +0.183 C 
ATOM     14  C   UNL     1      35.323 -20.313 -20.376  0.00  0.00    +0.056 C 
ATOM     15  C   UNL     1      36.022 -18.855 -22.162  0.00  0.00    +0.182 C 
ATOM     16  C   UNL     1      37.499 -19.219 -20.337  0.00  0.00    +0.019 C 
ATOM     17  C   UNL     1      37.237 -18.600 -21.561  0.00  0.00    +0.042 C 
ATOM     18  C   UNL     1      34.300 -18.954 -23.441  0.00  0.00    +0.589 C 
ENDBRANCH   3  12
BRANCH   5  20
ATOM     19  N   UNL     1      36.120 -25.250 -12.652  0.00  0.00    -0.242 NA
ATOM     20  C   UNL     1      35.921 -23.692 -14.963  0.00  0.00    +0.050 C 
ATOM     21  C   UNL     1      36.370 -25.005 -15.044  0.00  0.00    +0.025 C 
ATOM     22  C   UNL     1      35.572 -23.156 -13.729  0.00  0.00    +0.025 C 
ATOM     23  C   UNL     1      36.451 -25.736 -13.870  0.00  0.00    +0.099 C 
ATOM     24  C   UNL     1      35.687 -23.970 -12.613  0.00  0.00    +0.099 C 
ENDBRANCH   5  20
BRANCH   1  25
ATOM     25  C   UNL     1      33.475 -23.557 -16.810  0.00  0.00    +0.129 C 
BRANCH  25  26
ATOM     26  C   UNL     1      32.614 -22.980 -15.687  0.00  0.00    +0.109 C 
BRANCH  26  29
ATOM     27  O   UNL     1      30.529 -22.607 -16.808  0.00  0.00    -0.275 OA
ATOM     28  N   UNL     1      30.510 -24.138 -15.067  0.00  0.00    -0.276 N 
ATOM     29  C   UNL     1      31.127 -23.214 -15.916  0.00  0.00    +0.228 C 
ATOM     30  C   UNL     1      31.239 -24.846 -14.016  0.00  0.00    +0.115 C 
ATOM     31  C   UNL     1      29.093 -24.465 -15.165  0.00  0.00    +0.115 C 
ENDBRANCH  26  29
ENDBRANCH  25  26
ENDBRANCH   1  25
TORSDOF 5
ENDMDL
MODEL 7
REMARK VINA RESULT:      -8.7      5.223      9.127
REMARK  Name = 16755766
REMARK  5 active torsions:
REMARK  status: ('A' for Active; 'I' for Inactive)
REMARK    1  A    between atoms: N_1  and  C_25
REMARK    2  A    between atoms: N_3  and  C_12
REMARK    3  A    between atoms: C_5  and  C_20
REMARK    4  A    between atoms: C_25  and  C_26
REMARK    5  A    between atoms: C_26  and  C_29
REMARK                            x       y       z     vdW  Elec       q    Type
REMARK                         _______ _______ _______ _____ _____    ______ ____
ROOT
ATOM      1  N   UNL     1      34.913 -17.491 -21.628  0.00  0.00    -0.174 N 
ATOM      2  N   UNL     1      35.044 -18.415 -20.674  0.00  0.00    -0.096 NA
ATOM      3  N   UNL     1      34.467 -20.739 -20.795  0.00  0.00    -0.246 N 
ATOM      4  N   UNL     1      34.149 -19.278 -22.595  0.00  0.00    -0.319 NA
ATOM      5  C   UNL     1      34.385 -17.997 -22.763  0.00  0.00    +0.216 C 
ATOM      6  C   UNL     1      34.565 -19.486 -21.312  0.00  0.00    +0.165 C 
ATOM      7  H   UNL     1      34.009 -21.378 -21.386  0.00  0.00    +0.165 HD
ENDROOT
BRANCH   3  12
ATOM      8  F   UNL     1      34.337 -22.873 -14.466  0.00  0.00    -0.125 F 
ATOM      9  F   UNL     1      34.745 -24.771 -15.475  0.00  0.00    -0.125 F 
ATOM     10  O   UNL     1      33.691 -23.125 -16.625  0.00  0.00    -0.395 OA
ATOM     11  O   UNL     1      36.015 -22.965 -15.989  0.00  0.00    -0.395 OA
ATOM     12  C   UNL     1      34.899 -21.303 -19.561  0.00  0.00    +0.061 C 
ATOM     13  C   UNL     1      34.439 -22.469 -17.555  0.00  0.00    +0.183 C 
ATOM     14  C   UNL     1      33.973 -21.939 -18.741  0.00  0.00    +0.056 C 
ATOM     15  C   UNL     1      35.765 -22.378 -17.192  0.00  0.00    +0.182 C 
ATOM     16  C   UNL     1      36.249 -21.204 -19.200  0.00  0.00    +0.019 C 
ATOM     17  C   UNL     1      36.695 -21.751 -17.995  0.00  0.00    +0.042 C 
ATOM     18  C   UNL     1      34.700 -23.427 -15.651  0.00  0.00    +0.589 C 
ENDBRANCH   3  12
BRANCH   5  20
ATOM     19  N   UNL     1      33.622 -15.734 -26.263  0.00  0.00    -0.242 NA
ATOM     20  C   UNL     1      34.125 -17.228 -23.956  0.00  0.00    +0.050 C 
ATOM     21  C   UNL     1      32.977 -17.465 -24.704  0.00  0.00    +0.025 C 
ATOM     22  C   UNL     1      35.021 -16.244 -24.360  0.00  0.00    +0.025 C 
ATOM     23  C   UNL     1      32.774 -16.698 -25.839  0.00  0.00    +0.099 C 
ATOM     24  C   UNL     1      34.726 -15.532 -25.511  0.00  0.00    +0.099 C 
ENDBRANCH   5  20
BRANCH   1  25
ATOM     25  C   UNL     1      35.317 -16.117 -21.357  0.00  0.00    +0.129 C 
BRANCH  25  26
ATOM     26  C   UNL     1      34.209 -15.314 -20.676  0.00  0.00    +0.109 C 
BRANCH  26  29
ATOM     27  O   UNL     1      34.461 -13.742 -22.468  0.00  0.00    -0.275 OA
ATOM     28  N   UNL     1      32.693 -13.380 -21.010  0.00  0.00    -0.276 N 
ATOM     29  C   UNL     1      33.812 -14.080 -21.474  0.00  0.00    +0.228 C 
ATOM     30  C   UNL     1      31.939 -13.798 -19.831  0.00  0.00    +0.115 C 
ATOM     31  C   UNL     1      32.195 -12.179 -21.669  0.00  0.00    +0.115 C 
ENDBRANCH  26  29
ENDBRANCH  25  26
ENDBRANCH   1  25
TORSDOF 5
ENDMDL
MODEL 8
REMARK VINA RESULT:      -8.7      6.838     11.104
REMARK  Name = 16755766
REMARK  5 active torsions:
REMARK  status: ('A' for Active; 'I' for Inactive)
REMARK    1  A    between atoms: N_1  and  C_25
REMARK    2  A    between atoms: N_3  and  C_12
REMARK    3  A    between atoms: C_5  and  C_20
REMARK    4  A    between atoms: C_25  and  C_26
REMARK    5  A    between atoms: C_26  and  C_29
REMARK                            x       y       z     vdW  Elec       q    Type
REMARK                         _______ _______ _______ _____ _____    ______ ____
ROOT
ATOM      1  N   UNL     1      34.248 -15.093 -21.776  0.00  0.00    -0.174 N 
ATOM      2  N   UNL     1      34.390 -16.309 -21.243  0.00  0.00    -0.096 NA
ATOM      3  N   UNL     1      34.597 -18.400 -22.395  0.00  0.00    -0.246 N 
ATOM      4  N   UNL     1      34.351 -16.368 -23.529  0.00  0.00    -0.319 NA
ATOM      5  C   UNL     1      34.225 -15.125 -23.125  0.00  0.00    +0.216 C 
ATOM      6  C   UNL     1      34.448 -17.050 -22.351  0.00  0.00    +0.165 C 
ATOM      7  H   UNL     1      34.531 -18.778 -23.302  0.00  0.00    +0.165 HD
ENDROOT
BRANCH   3  12
ATOM      8  F   UNL     1      33.539 -22.381 -17.137  0.00  0.00    -0.125 F 
ATOM      9  F   UNL     1      33.886 -23.901 -18.672  0.00  0.00    -0.125 F 
ATOM     10  O   UNL     1      33.127 -21.860 -19.304  0.00  0.00    -0.395 OA
ATOM     11  O   UNL     1      35.367 -22.197 -18.466  0.00  0.00    -0.395 OA
ATOM     12  C   UNL     1      34.829 -19.372 -21.382  0.00  0.00    +0.061 C 
ATOM     13  C   UNL     1      34.036 -21.043 -19.907  0.00  0.00    +0.183 C 
ATOM     14  C   UNL     1      33.760 -20.114 -20.890  0.00  0.00    +0.056 C 
ATOM     15  C   UNL     1      35.313 -21.236 -19.429  0.00  0.00    +0.182 C 
ATOM     16  C   UNL     1      36.132 -19.560 -20.901  0.00  0.00    +0.019 C 
ATOM     17  C   UNL     1      36.384 -20.509 -19.907  0.00  0.00    +0.042 C 
ATOM     18  C   UNL     1      33.985 -22.575 -18.404  0.00  0.00    +0.589 C 
ENDBRANCH   3  12
BRANCH   5  20
ATOM     19  N   UNL     1      33.786 -11.708 -25.592  0.00  0.00    -0.242 NA
ATOM     20  C   UNL     1      34.077 -13.962 -23.966  0.00  0.00    +0.050 C 
ATOM     21  C   UNL     1      33.564 -14.091 -25.253  0.00  0.00    +0.025 C 
ATOM     22  C   UNL     1      34.443 -12.708 -23.492  0.00  0.00    +0.025 C 
ATOM     23  C   UNL     1      33.440 -12.943 -26.019  0.00  0.00    +0.099 C 
ATOM     24  C   UNL     1      34.280 -11.622 -24.337  0.00  0.00    +0.099 C 
ENDBRANCH   5  20
BRANCH   1  25
ATOM     25  C   UNL     1      34.129 -13.934 -20.899  0.00  0.00    +0.129 C 
BRANCH  25  26
ATOM     26  C   UNL     1      32.706 -13.754 -20.372  0.00  0.00    +0.109 C 
BRANCH  26  29
ATOM     27  O   UNL     1      31.556 -13.085 -22.365  0.00  0.00    -0.275 OA
ATOM     28  N   UNL     1      31.564 -11.566 -20.613  0.00  0.00    -0.276 N 
ATOM     29  C   UNL     1      31.892 -12.784 -21.217  0.00  0.00    +0.228 C 
ATOM     30  C   UNL     1      31.973 -11.230 -19.251  0.00  0.00    +0.115 C 
ATOM     31  C   UNL     1      30.791 -10.537 -21.298  0.00  0.00    +0.115 C 
ENDBRANCH  26  29
ENDBRANCH  25  26
ENDBRANCH   1  25
TORSDOF 5
ENDMDL
