MODEL 1
REMARK VINA RESULT:     -11.8      0.000      0.000
REMARK  Name = 11234049
REMARK  5 active torsions:
REMARK  status: ('A' for Active; 'I' for Inactive)
REMARK    1  A    between atoms: C_2  and  N_10
REMARK    2  A    between atoms: C_5  and  C_18
REMARK    3  A    between atoms: C_11  and  C_14
REMARK    4  A    between atoms: C_14  and  O_15
REMARK    5  A    between atoms: C_22  and  C_27
REMARK                            x       y       z     vdW  Elec       q    Type
REMARK                         _______ _______ _______ _____ _____    ______ ____
ROOT
ATOM      1  F   UNL     1      33.855 -23.759 -16.568  0.00  0.00    -0.204 F 
ATOM      2  C   UNL     1      35.755 -24.634 -13.590  0.00  0.00    +0.059 C 
ATOM      3  C   UNL     1      35.439 -24.362 -14.926  0.00  0.00    +0.045 C 
ATOM      4  C   UNL     1      34.754 -24.556 -12.617  0.00  0.00    +0.015 C 
ATOM      5  C   UNL     1      33.143 -23.939 -14.307  0.00  0.00    +0.029 C 
ATOM      6  C   UNL     1      34.137 -24.015 -15.283  0.00  0.00    +0.141 C 
ATOM      7  C   UNL     1      33.452 -24.208 -12.974  0.00  0.00    +0.004 C 
ENDROOT
BRANCH   2  10
ATOM      8  O   UNL     1      38.857 -25.988 -12.247  0.00  0.00    -0.434 OA
ATOM      9  O   UNL     1      36.798 -26.708 -11.626  0.00  0.00    -0.226 OA
ATOM     10  N   UNL     1      37.085 -24.989 -13.225  0.00  0.00    -0.221 N 
ATOM     11  C   UNL     1      39.390 -25.172 -13.299  0.00  0.00    +0.220 C 
ATOM     12  C   UNL     1      38.240 -24.273 -13.697  0.00  0.00    +0.148 C 
ATOM     13  C   UNL     1      37.481 -25.966 -12.316  0.00  0.00    +0.409 C 
BRANCH  11  14
ATOM     14  C   UNL     1      39.866 -26.074 -14.430  0.00  0.00    +0.183 C 
BRANCH  14  15
ATOM     15  O   UNL     1      41.023 -26.769 -13.998  0.00  0.00    -0.378 OA
ATOM     16  H   UNL     1      41.606 -26.926 -14.757  0.00  0.00    +0.211 HD
ENDBRANCH  14  15
ENDBRANCH  11  14
ENDBRANCH   2  10
BRANCH   5  18
ATOM     17  N   UNL     1      30.226 -22.907 -16.387  0.00  0.00    -0.234 NA
ATOM     18  C   UNL     1      31.789 -23.580 -14.673  0.00  0.00    +0.021 C 
ATOM     19  C   UNL     1      30.775 -23.557 -13.724  0.00  0.00    +0.004 C 
ATOM     20  C   UNL     1      31.469 -23.250 -15.978  0.00  0.00    +0.100 C 
ATOM     21  C   UNL     1      29.484 -23.208 -14.106  0.00  0.00    +0.029 C 
ATOM     22  C   UNL     1      29.264 -22.894 -15.437  0.00  0.00    +0.146 C 
BRANCH  22  27
ATOM     23  N   UNL     1      27.695 -22.084 -17.119  0.00  0.00    -0.105 NA
ATOM     24  N   UNL     1      26.373 -21.895 -17.009  0.00  0.00    -0.113 N 
ATOM     25  N   UNL     1      26.857 -22.599 -15.080  0.00  0.00    -0.085 NA
ATOM     26  N   UNL     1      25.834 -22.187 -15.817  0.00  0.00    -0.018 NA
ATOM     27  C   UNL     1      27.952 -22.526 -15.887  0.00  0.00    +0.092 C 
ATOM     28  C   UNL     1      25.578 -21.404 -18.104  0.00  0.00    +0.163 C 
ENDBRANCH  22  27
ENDBRANCH   5  18
TORSDOF 5
ENDMDL
MODEL 2
REMARK VINA RESULT:     -11.4      5.620      6.801
REMARK  Name = 11234049
REMARK  5 active torsions:
REMARK  status: ('A' for Active; 'I' for Inactive)
REMARK    1  A    between atoms: C_2  and  N_10
REMARK    2  A    between atoms: C_5  and  C_18
REMARK    3  A    between atoms: C_11  and  C_14
REMARK    4  A    between atoms: C_14  and  O_15
REMARK    5  A    between atoms: C_22  and  C_27
REMARK                            x       y       z     vdW  Elec       q    Type
REMARK                         _______ _______ _______ _____ _____    ______ ____
ROOT
ATOM      1  F   UNL     1      33.170 -22.790 -17.620  0.00  0.00    -0.204 F 
ATOM      2  C   UNL     1      35.970 -23.502 -15.408  0.00  0.00    +0.059 C 
ATOM      3  C   UNL     1      34.685 -23.511 -15.960  0.00  0.00    +0.045 C 
ATOM      4  C   UNL     1      36.976 -22.745 -16.017  0.00  0.00    +0.015 C 
ATOM      5  C   UNL     1      35.416 -22.016 -17.710  0.00  0.00    +0.029 C 
ATOM      6  C   UNL     1      34.408 -22.770 -17.107  0.00  0.00    +0.141 C 
ATOM      7  C   UNL     1      36.700 -22.005 -17.165  0.00  0.00    +0.004 C 
ENDROOT
BRANCH   2  10
ATOM      8  O   UNL     1      36.795 -25.948 -12.839  0.00  0.00    -0.434 OA
ATOM      9  O   UNL     1      36.761 -26.418 -15.057  0.00  0.00    -0.226 OA
ATOM     10  N   UNL     1      36.252 -24.259 -14.235  0.00  0.00    -0.221 N 
ATOM     11  C   UNL     1      36.768 -24.760 -12.036  0.00  0.00    +0.220 C 
ATOM     12  C   UNL     1      36.081 -23.732 -12.907  0.00  0.00    +0.148 C 
ATOM     13  C   UNL     1      36.620 -25.600 -14.160  0.00  0.00    +0.409 C 
BRANCH  11  14
ATOM     14  C   UNL     1      38.197 -24.379 -11.673  0.00  0.00    +0.183 C 
BRANCH  14  15
ATOM     15  O   UNL     1      38.201 -23.052 -11.176  0.00  0.00    -0.378 OA
ATOM     16  H   UNL     1      37.960 -23.058 -10.237  0.00  0.00    +0.211 HD
ENDBRANCH  14  15
ENDBRANCH  11  14
ENDBRANCH   2  10
BRANCH   5  18
ATOM     17  N   UNL     1      35.951 -19.850 -20.698  0.00  0.00    -0.234 NA
ATOM     18  C   UNL     1      35.134 -21.244 -18.903  0.00  0.00    +0.021 C 
ATOM     19  C   UNL     1      33.841 -21.145 -19.398  0.00  0.00    +0.004 C 
ATOM     20  C   UNL     1      36.146 -20.586 -19.580  0.00  0.00    +0.100 C 
ATOM     21  C   UNL     1      33.601 -20.396 -20.546  0.00  0.00    +0.029 C 
ATOM     22  C   UNL     1      34.680 -19.774 -21.152  0.00  0.00    +0.146 C 
BRANCH  22  27
ATOM     23  N   UNL     1      35.097 -17.819 -22.550  0.00  0.00    -0.105 NA
ATOM     24  N   UNL     1      34.589 -17.528 -23.755  0.00  0.00    -0.113 N 
ATOM     25  N   UNL     1      33.666 -19.382 -23.349  0.00  0.00    -0.085 NA
ATOM     26  N   UNL     1      33.736 -18.426 -24.267  0.00  0.00    -0.018 NA
ATOM     27  C   UNL     1      34.490 -18.989 -22.338  0.00  0.00    +0.092 C 
ATOM     28  C   UNL     1      34.936 -16.321 -24.458  0.00  0.00    +0.163 C 
ENDBRANCH  22  27
ENDBRANCH   5  18
TORSDOF 5
ENDMDL
MODEL 3
REMARK VINA RESULT:     -11.1      5.908      7.116
REMARK  Name = 11234049
REMARK  5 active torsions:
REMARK  status: ('A' for Active; 'I' for Inactive)
REMARK    1  A    between atoms: C_2  and  N_10
REMARK    2  A    between atoms: C_5  and  C_18
REMARK    3  A    between atoms: C_11  and  C_14
REMARK    4  A    between atoms: C_14  and  O_15
REMARK    5  A    between atoms: C_22  and  C_27
REMARK                            x       y       z     vdW  Elec       q    Type
REMARK                         _______ _______ _______ _____ _____    ______ ____
ROOT
ATOM      1  F   UNL     1      33.246 -22.520 -18.135  0.00  0.00    -0.204 F 
ATOM      2  C   UNL     1      35.876 -23.239 -15.724  0.00  0.00    +0.059 C 
ATOM      3  C   UNL     1      34.633 -23.242 -16.367  0.00  0.00    +0.045 C 
ATOM      4  C   UNL     1      36.927 -22.492 -16.263  0.00  0.00    +0.015 C 
ATOM      5  C   UNL     1      35.499 -21.761 -18.067  0.00  0.00    +0.029 C 
ATOM      6  C   UNL     1      34.445 -22.505 -17.535  0.00  0.00    +0.141 C 
ATOM      7  C   UNL     1      36.740 -21.755 -17.431  0.00  0.00    +0.004 C 
ENDROOT
BRANCH   2  10
ATOM      8  O   UNL     1      36.407 -25.694 -13.088  0.00  0.00    -0.434 OA
ATOM      9  O   UNL     1      36.314 -26.218 -15.293  0.00  0.00    -0.226 OA
ATOM     10  N   UNL     1      36.067 -23.992 -14.531  0.00  0.00    -0.221 N 
ATOM     11  C   UNL     1      36.524 -24.490 -12.318  0.00  0.00    +0.220 C 
ATOM     12  C   UNL     1      35.962 -23.412 -13.218  0.00  0.00    +0.148 C 
ATOM     13  C   UNL     1      36.273 -25.365 -14.419  0.00  0.00    +0.409 C 
BRANCH  11  14
ATOM     14  C   UNL     1      37.988 -24.273 -11.963  0.00  0.00    +0.183 C 
BRANCH  14  15
ATOM     15  O   UNL     1      38.141 -22.959 -11.453  0.00  0.00    -0.378 OA
ATOM     16  H   UNL     1      39.011 -22.614 -11.708  0.00  0.00    +0.211 HD
ENDBRANCH  14  15
ENDBRANCH  11  14
ENDBRANCH   2  10
BRANCH   5  18
ATOM     17  N   UNL     1      33.803 -20.140 -20.965  0.00  0.00    -0.234 NA
ATOM     18  C   UNL     1      35.308 -20.993 -19.281  0.00  0.00    +0.021 C 
ATOM     19  C   UNL     1      36.383 -20.387 -19.917  0.00  0.00    +0.004 C 
ATOM     20  C   UNL     1      34.050 -20.843 -19.837  0.00  0.00    +0.100 C 
ATOM     21  C   UNL     1      36.169 -19.656 -21.081  0.00  0.00    +0.029 C 
ATOM     22  C   UNL     1      34.872 -19.564 -21.559  0.00  0.00    +0.146 C 
BRANCH  22  27
ATOM     23  N   UNL     1      34.872 -17.526 -22.900  0.00  0.00    -0.105 NA
ATOM     24  N   UNL     1      34.427 -17.347 -24.151  0.00  0.00    -0.113 N 
ATOM     25  N   UNL     1      34.015 -19.395 -23.850  0.00  0.00    -0.085 NA
ATOM     26  N   UNL     1      33.910 -18.428 -24.753  0.00  0.00    -0.018 NA
ATOM     27  C   UNL     1      34.593 -18.823 -22.757  0.00  0.00    +0.092 C 
ATOM     28  C   UNL     1      34.496 -16.069 -24.810  0.00  0.00    +0.163 C 
ENDBRANCH  22  27
ENDBRANCH   5  18
TORSDOF 5
ENDMDL
MODEL 4
REMARK VINA RESULT:     -10.9      5.992      7.098
REMARK  Name = 11234049
REMARK  5 active torsions:
REMARK  status: ('A' for Active; 'I' for Inactive)
REMARK    1  A    between atoms: C_2  and  N_10
REMARK    2  A    between atoms: C_5  and  C_18
REMARK    3  A    between atoms: C_11  and  C_14
REMARK    4  A    between atoms: C_14  and  O_15
REMARK    5  A    between atoms: C_22  and  C_27
REMARK                            x       y       z     vdW  Elec       q    Type
REMARK                         _______ _______ _______ _____ _____    ______ ____
ROOT
ATOM      1  F   UNL     1      33.190 -22.489 -18.294  0.00  0.00    -0.204 F 
ATOM      2  C   UNL     1      35.873 -23.182 -15.935  0.00  0.00    +0.059 C 
ATOM      3  C   UNL     1      34.620 -23.203 -16.557  0.00  0.00    +0.045 C 
ATOM      4  C   UNL     1      36.901 -22.408 -16.482  0.00  0.00    +0.015 C 
ATOM      5  C   UNL     1      35.428 -21.685 -18.254  0.00  0.00    +0.029 C 
ATOM      6  C   UNL     1      34.398 -22.456 -17.713  0.00  0.00    +0.141 C 
ATOM      7  C   UNL     1      36.679 -21.662 -17.639  0.00  0.00    +0.004 C 
ENDROOT
BRANCH   2  10
ATOM      8  O   UNL     1      35.799 -25.009 -12.786  0.00  0.00    -0.434 OA
ATOM      9  O   UNL     1      33.998 -23.948 -13.666  0.00  0.00    -0.226 OA
ATOM     10  N   UNL     1      36.099 -23.944 -14.753  0.00  0.00    -0.221 N 
ATOM     11  C   UNL     1      37.100 -25.392 -13.252  0.00  0.00    +0.220 C 
ATOM     12  C   UNL     1      37.402 -24.416 -14.368  0.00  0.00    +0.148 C 
ATOM     13  C   UNL     1      35.176 -24.260 -13.760  0.00  0.00    +0.409 C 
BRANCH  11  14
ATOM     14  C   UNL     1      37.049 -26.840 -13.718  0.00  0.00    +0.183 C 
BRANCH  14  15
ATOM     15  O   UNL     1      38.263 -27.146 -14.383  0.00  0.00    -0.378 OA
ATOM     16  H   UNL     1      38.763 -26.329 -14.533  0.00  0.00    +0.211 HD
ENDBRANCH  14  15
ENDBRANCH  11  14
ENDBRANCH   2  10
BRANCH   5  18
ATOM     17  N   UNL     1      33.646 -20.024 -21.077  0.00  0.00    -0.234 NA
ATOM     18  C   UNL     1      35.202 -20.908 -19.455  0.00  0.00    +0.021 C 
ATOM     19  C   UNL     1      36.260 -20.312 -20.128  0.00  0.00    +0.004 C 
ATOM     20  C   UNL     1      33.926 -20.738 -19.962  0.00  0.00    +0.100 C 
ATOM     21  C   UNL     1      36.012 -19.571 -21.279  0.00  0.00    +0.029 C 
ATOM     22  C   UNL     1      34.700 -19.459 -21.708  0.00  0.00    +0.146 C 
BRANCH  22  27
ATOM     23  N   UNL     1      34.868 -17.488 -23.134  0.00  0.00    -0.105 NA
ATOM     24  N   UNL     1      34.284 -17.259 -24.318  0.00  0.00    -0.113 N 
ATOM     25  N   UNL     1      33.562 -19.188 -23.862  0.00  0.00    -0.085 NA
ATOM     26  N   UNL     1      33.500 -18.240 -24.788  0.00  0.00    -0.018 NA
ATOM     27  C   UNL     1      34.386 -18.708 -22.889  0.00  0.00    +0.092 C 
ATOM     28  C   UNL     1      34.484 -16.031 -25.043  0.00  0.00    +0.163 C 
ENDBRANCH  22  27
ENDBRANCH   5  18
TORSDOF 5
ENDMDL
MODEL 5
REMARK VINA RESULT:     -10.8      8.252     10.966
REMARK  Name = 11234049
REMARK  5 active torsions:
REMARK  status: ('A' for Active; 'I' for Inactive)
REMARK    1  A    between atoms: C_2  and  N_10
REMARK    2  A    between atoms: C_5  and  C_18
REMARK    3  A    between atoms: C_11  and  C_14
REMARK    4  A    between atoms: C_14  and  O_15
REMARK    5  A    between atoms: C_22  and  C_27
REMARK                            x       y       z     vdW  Elec       q    Type
REMARK                         _______ _______ _______ _____ _____    ______ ____
ROOT
ATOM      1  F   UNL     1      33.024 -20.937 -19.784  0.00  0.00    -0.204 F 
ATOM      2  C   UNL     1      34.904 -18.875 -22.120  0.00  0.00    +0.059 C 
ATOM      3  C   UNL     1      33.836 -19.526 -21.493  0.00  0.00    +0.045 C 
ATOM      4  C   UNL     1      36.197 -19.025 -21.610  0.00  0.00    +0.015 C 
ATOM      5  C   UNL     1      35.354 -20.466 -19.865  0.00  0.00    +0.029 C 
ATOM      6  C   UNL     1      34.060 -20.320 -20.369  0.00  0.00    +0.141 C 
ATOM      7  C   UNL     1      36.421 -19.818 -20.485  0.00  0.00    +0.004 C 
ENDROOT
BRANCH   2  10
ATOM      8  O   UNL     1      33.916 -17.310 -25.256  0.00  0.00    -0.434 OA
ATOM      9  O   UNL     1      33.177 -19.344 -24.579  0.00  0.00    -0.226 OA
ATOM     10  N   UNL     1      34.675 -18.065 -23.269  0.00  0.00    -0.221 N 
ATOM     11  C   UNL     1      34.609 -16.210 -24.650  0.00  0.00    +0.220 C 
ATOM     12  C   UNL     1      35.381 -16.835 -23.509  0.00  0.00    +0.148 C 
ATOM     13  C   UNL     1      33.854 -18.351 -24.357  0.00  0.00    +0.409 C 
BRANCH  11  14
ATOM     14  C   UNL     1      33.588 -15.178 -24.190  0.00  0.00    +0.183 C 
BRANCH  14  15
ATOM     15  O   UNL     1      32.807 -14.784 -25.305  0.00  0.00    -0.378 OA
ATOM     16  H   UNL     1      32.510 -13.869 -25.183  0.00  0.00    +0.211 HD
ENDBRANCH  14  15
ENDBRANCH  11  14
ENDBRANCH   2  10
BRANCH   5  18
ATOM     17  N   UNL     1      34.783 -22.964 -17.156  0.00  0.00    -0.234 NA
ATOM     18  C   UNL     1      35.592 -21.290 -18.698  0.00  0.00    +0.021 C 
ATOM     19  C   UNL     1      36.796 -21.221 -18.010  0.00  0.00    +0.004 C 
ATOM     20  C   UNL     1      34.625 -22.167 -18.238  0.00  0.00    +0.100 C 
ATOM     21  C   UNL     1      36.996 -22.024 -16.893  0.00  0.00    +0.029 C 
ATOM     22  C   UNL     1      35.967 -22.870 -16.510  0.00  0.00    +0.146 C 
BRANCH  22  27
ATOM     23  N   UNL     1      36.857 -23.397 -14.301  0.00  0.00    -0.105 NA
ATOM     24  N   UNL     1      36.660 -24.496 -13.559  0.00  0.00    -0.113 N 
ATOM     25  N   UNL     1      35.512 -24.937 -15.274  0.00  0.00    -0.085 NA
ATOM     26  N   UNL     1      35.869 -25.435 -14.097  0.00  0.00    -0.018 NA
ATOM     27  C   UNL     1      36.118 -23.721 -15.364  0.00  0.00    +0.092 C 
ATOM     28  C   UNL     1      37.263 -24.659 -12.262  0.00  0.00    +0.163 C 
ENDBRANCH  22  27
ENDBRANCH   5  18
TORSDOF 5
ENDMDL
MODEL 6
REMARK VINA RESULT:     -10.7      5.816      6.882
REMARK  Name = 11234049
REMARK  5 active torsions:
REMARK  status: ('A' for Active; 'I' for Inactive)
REMARK    1  A    between atoms: C_2  and  N_10
REMARK    2  A    between atoms: C_5  and  C_18
REMARK    3  A    between atoms: C_11  and  C_14
REMARK    4  A    between atoms: C_14  and  O_15
REMARK    5  A    between atoms: C_22  and  C_27
REMARK                            x       y       z     vdW  Elec       q    Type
REMARK                         _______ _______ _______ _____ _____    ______ ____
ROOT
ATOM      1  F   UNL     1      37.403 -20.869 -17.759  0.00  0.00    -0.204 F 
ATOM      2  C   UNL     1      35.810 -23.364 -15.642  0.00  0.00    +0.059 C 
ATOM      3  C   UNL     1      36.754 -22.460 -16.141  0.00  0.00    +0.045 C 
ATOM      4  C   UNL     1      34.594 -23.528 -16.312  0.00  0.00    +0.015 C 
ATOM      5  C   UNL     1      35.269 -21.898 -17.961  0.00  0.00    +0.029 C 
ATOM      6  C   UNL     1      36.485 -21.730 -17.297  0.00  0.00    +0.141 C 
ATOM      7  C   UNL     1      34.323 -22.797 -17.467  0.00  0.00    +0.004 C 
ENDROOT
BRANCH   2  10
ATOM      8  O   UNL     1      35.876 -25.133 -12.460  0.00  0.00    -0.434 OA
ATOM      9  O   UNL     1      34.054 -24.040 -13.253  0.00  0.00    -0.226 OA
ATOM     10  N   UNL     1      36.086 -24.111 -14.462  0.00  0.00    -0.221 N 
ATOM     11  C   UNL     1      37.136 -25.559 -12.994  0.00  0.00    +0.220 C 
ATOM     12  C   UNL     1      37.397 -24.611 -14.145  0.00  0.00    +0.148 C 
ATOM     13  C   UNL     1      35.215 -24.385 -13.410  0.00  0.00    +0.409 C 
BRANCH  11  14
ATOM     14  C   UNL     1      37.021 -27.014 -13.430  0.00  0.00    +0.183 C 
BRANCH  14  15
ATOM     15  O   UNL     1      38.079 -27.304 -14.326  0.00  0.00    -0.378 OA
ATOM     16  H   UNL     1      38.926 -27.242 -13.857  0.00  0.00    +0.211 HD
ENDBRANCH  14  15
ENDBRANCH  11  14
ENDBRANCH   2  10
BRANCH   5  18
ATOM     17  N   UNL     1      35.810 -19.887 -21.053  0.00  0.00    -0.234 NA
ATOM     18  C   UNL     1      34.984 -21.141 -19.162  0.00  0.00    +0.021 C 
ATOM     19  C   UNL     1      33.677 -20.938 -19.584  0.00  0.00    +0.004 C 
ATOM     20  C   UNL     1      36.007 -20.602 -19.922  0.00  0.00    +0.100 C 
ATOM     21  C   UNL     1      33.434 -20.207 -20.742  0.00  0.00    +0.029 C 
ATOM     22  C   UNL     1      34.526 -19.707 -21.434  0.00  0.00    +0.146 C 
BRANCH  22  27
ATOM     23  N   UNL     1      34.922 -17.768 -22.859  0.00  0.00    -0.105 NA
ATOM     24  N   UNL     1      34.421 -17.506 -24.074  0.00  0.00    -0.113 N 
ATOM     25  N   UNL     1      33.529 -19.370 -23.648  0.00  0.00    -0.085 NA
ATOM     26  N   UNL     1      33.591 -18.429 -24.581  0.00  0.00    -0.018 NA
ATOM     27  C   UNL     1      34.334 -18.945 -22.634  0.00  0.00    +0.092 C 
ATOM     28  C   UNL     1      34.753 -16.304 -24.793  0.00  0.00    +0.163 C 
ENDBRANCH  22  27
ENDBRANCH   5  18
TORSDOF 5
ENDMDL
MODEL 7
REMARK VINA RESULT:     -10.6      8.076     10.636
REMARK  Name = 11234049
REMARK  5 active torsions:
REMARK  status: ('A' for Active; 'I' for Inactive)
REMARK    1  A    between atoms: C_2  and  N_10
REMARK    2  A    between atoms: C_5  and  C_18
REMARK    3  A    between atoms: C_11  and  C_14
REMARK    4  A    between atoms: C_14  and  O_15
REMARK    5  A    between atoms: C_22  and  C_27
REMARK                            x       y       z     vdW  Elec       q    Type
REMARK                         _______ _______ _______ _____ _____    ______ ____
ROOT
ATOM      1  F   UNL     1      37.237 -20.460 -19.770  0.00  0.00    -0.204 F 
ATOM      2  C   UNL     1      34.684 -19.127 -21.994  0.00  0.00    +0.059 C 
ATOM      3  C   UNL     1      35.933 -19.398 -21.426  0.00  0.00    +0.045 C 
ATOM      4  C   UNL     1      33.533 -19.679 -21.423  0.00  0.00    +0.015 C 
ATOM      5  C   UNL     1      34.878 -20.761 -19.734  0.00  0.00    +0.029 C 
ATOM      6  C   UNL     1      36.030 -20.213 -20.299  0.00  0.00    +0.141 C 
ATOM      7  C   UNL     1      33.630 -20.495 -20.297  0.00  0.00    +0.004 C 
ENDROOT
BRANCH   2  10
ATOM      8  O   UNL     1      34.004 -17.470 -25.165  0.00  0.00    -0.434 OA
ATOM      9  O   UNL     1      33.075 -19.447 -24.556  0.00  0.00    -0.226 OA
ATOM     10  N   UNL     1      34.585 -18.294 -23.145  0.00  0.00    -0.221 N 
ATOM     11  C   UNL     1      34.740 -16.430 -24.507  0.00  0.00    +0.220 C 
ATOM     12  C   UNL     1      35.394 -17.119 -23.329  0.00  0.00    +0.148 C 
ATOM     13  C   UNL     1      33.811 -18.510 -24.283  0.00  0.00    +0.409 C 
BRANCH  11  14
ATOM     14  C   UNL     1      33.774 -15.327 -24.095  0.00  0.00    +0.183 C 
BRANCH  14  15
ATOM     15  O   UNL     1      32.815 -15.157 -25.124  0.00  0.00    -0.378 OA
ATOM     16  H   UNL     1      33.269 -15.046 -25.974  0.00  0.00    +0.211 HD
ENDBRANCH  14  15
ENDBRANCH  11  14
ENDBRANCH   2  10
BRANCH   5  18
ATOM     17  N   UNL     1      36.321 -22.500 -16.768  0.00  0.00    -0.234 NA
ATOM     18  C   UNL     1      34.973 -21.608 -18.563  0.00  0.00    +0.021 C 
ATOM     19  C   UNL     1      33.873 -22.320 -18.106  0.00  0.00    +0.004 C 
ATOM     20  C   UNL     1      36.164 -21.728 -17.868  0.00  0.00    +0.100 C 
ATOM     21  C   UNL     1      33.995 -23.125 -16.979  0.00  0.00    +0.029 C 
ATOM     22  C   UNL     1      35.229 -23.180 -16.352  0.00  0.00    +0.146 C 
BRANCH  22  27
ATOM     23  N   UNL     1      36.372 -24.918 -15.077  0.00  0.00    -0.105 NA
ATOM     24  N   UNL     1      36.102 -25.364 -13.842  0.00  0.00    -0.113 N 
ATOM     25  N   UNL     1      34.614 -23.888 -14.088  0.00  0.00    -0.085 NA
ATOM     26  N   UNL     1      35.068 -24.782 -13.218  0.00  0.00    -0.018 NA
ATOM     27  C   UNL     1      35.413 -23.995 -15.185  0.00  0.00    +0.092 C 
ATOM     28  C   UNL     1      36.876 -26.407 -13.222  0.00  0.00    +0.163 C 
ENDBRANCH  22  27
ENDBRANCH   5  18
TORSDOF 5
ENDMDL
MODEL 8
REMARK VINA RESULT:     -10.5      5.416      6.833
REMARK  Name = 11234049
REMARK  5 active torsions:
REMARK  status: ('A' for Active; 'I' for Inactive)
REMARK    1  A    between atoms: C_2  and  N_10
REMARK    2  A    between atoms: C_5  and  C_18
REMARK    3  A    between atoms: C_11  and  C_14
REMARK    4  A    between atoms: C_14  and  O_15
REMARK    5  A    between atoms: C_22  and  C_27
REMARK                            x       y       z     vdW  Elec       q    Type
REMARK                         _______ _______ _______ _____ _____    ______ ____
ROOT
ATOM      1  F   UNL     1      37.626 -21.391 -16.950  0.00  0.00    -0.204 F 
ATOM      2  C   UNL     1      35.631 -23.689 -14.953  0.00  0.00    +0.059 C 
ATOM      3  C   UNL     1      36.696 -22.887 -15.379  0.00  0.00    +0.045 C 
ATOM      4  C   UNL     1      34.464 -23.747 -15.721  0.00  0.00    +0.015 C 
ATOM      5  C   UNL     1      35.427 -22.215 -17.321  0.00  0.00    +0.029 C 
ATOM      6  C   UNL     1      36.594 -22.152 -16.559  0.00  0.00    +0.141 C 
ATOM      7  C   UNL     1      34.362 -23.012 -16.901  0.00  0.00    +0.004 C 
ENDROOT
BRANCH   2  10
ATOM      8  O   UNL     1      36.361 -25.968 -12.209  0.00  0.00    -0.434 OA
ATOM      9  O   UNL     1      37.369 -26.080 -14.238  0.00  0.00    -0.226 OA
ATOM     10  N   UNL     1      35.736 -24.439 -13.748  0.00  0.00    -0.221 N 
ATOM     11  C   UNL     1      35.539 -25.019 -11.517  0.00  0.00    +0.220 C 
ATOM     12  C   UNL     1      34.872 -24.225 -12.618  0.00  0.00    +0.148 C 
ATOM     13  C   UNL     1      36.571 -25.525 -13.496  0.00  0.00    +0.409 C 
BRANCH  11  14
ATOM     14  C   UNL     1      36.424 -24.168 -10.615  0.00  0.00    +0.183 C 
BRANCH  14  15
ATOM     15  O   UNL     1      35.932 -24.251  -9.288  0.00  0.00    -0.378 OA
ATOM     16  H   UNL     1      36.216 -23.470  -8.790  0.00  0.00    +0.211 HD
ENDBRANCH  14  15
ENDBRANCH  11  14
ENDBRANCH   2  10
BRANCH   5  18
ATOM     17  N   UNL     1      33.910 -20.523 -20.277  0.00  0.00    -0.234 NA
ATOM     18  C   UNL     1      35.316 -21.454 -18.548  0.00  0.00    +0.021 C 
ATOM     19  C   UNL     1      36.443 -20.934 -19.168  0.00  0.00    +0.004 C 
ATOM     20  C   UNL     1      34.083 -21.225 -19.134  0.00  0.00    +0.100 C 
ATOM     21  C   UNL     1      36.306 -20.207 -20.346  0.00  0.00    +0.029 C 
ATOM     22  C   UNL     1      35.029 -20.031 -20.854  0.00  0.00    +0.146 C 
BRANCH  22  27
ATOM     23  N   UNL     1      33.743 -19.418 -22.834  0.00  0.00    -0.105 NA
ATOM     24  N   UNL     1      34.055 -18.537 -23.795  0.00  0.00    -0.113 N 
ATOM     25  N   UNL     1      35.739 -18.391 -22.532  0.00  0.00    -0.085 NA
ATOM     26  N   UNL     1      35.230 -17.905 -23.656  0.00  0.00    -0.018 NA
ATOM     27  C   UNL     1      34.828 -19.291 -22.067  0.00  0.00    +0.092 C 
ATOM     28  C   UNL     1      33.183 -18.286 -24.912  0.00  0.00    +0.163 C 
ENDBRANCH  22  27
ENDBRANCH   5  18
TORSDOF 5
ENDMDL
MODEL 9
REMARK VINA RESULT:     -10.1      9.465     12.092
REMARK  Name = 11234049
REMARK  5 active torsions:
REMARK  status: ('A' for Active; 'I' for Inactive)
REMARK    1  A    between atoms: C_2  and  N_10
REMARK    2  A    between atoms: C_5  and  C_18
REMARK    3  A    between atoms: C_11  and  C_14
REMARK    4  A    between atoms: C_14  and  O_15
REMARK    5  A    between atoms: C_22  and  C_27
REMARK                            x       y       z     vdW  Elec       q    Type
REMARK                         _______ _______ _______ _____ _____    ______ ____
ROOT
ATOM      1  F   UNL     1      35.710 -17.329 -20.061  0.00  0.00    -0.204 F 
ATOM      2  C   UNL     1      34.383 -17.698 -23.429  0.00  0.00    +0.059 C 
ATOM      3  C   UNL     1      34.885 -17.113 -22.261  0.00  0.00    +0.045 C 
ATOM      4  C   UNL     1      34.232 -19.087 -23.493  0.00  0.00    +0.015 C 
ATOM      5  C   UNL     1      35.079 -19.294 -21.241  0.00  0.00    +0.029 C 
ATOM      6  C   UNL     1      35.232 -17.909 -21.170  0.00  0.00    +0.141 C 
ATOM      7  C   UNL     1      34.580 -19.883 -22.403  0.00  0.00    +0.004 C 
ENDROOT
BRANCH   2  10
ATOM      8  O   UNL     1      32.975 -16.068 -26.364  0.00  0.00    -0.434 OA
ATOM      9  O   UNL     1      32.129 -17.964 -25.454  0.00  0.00    -0.226 OA
ATOM     10  N   UNL     1      34.027 -16.886 -24.543  0.00  0.00    -0.221 N 
ATOM     11  C   UNL     1      33.921 -15.066 -25.968  0.00  0.00    +0.220 C 
ATOM     12  C   UNL     1      34.826 -15.773 -24.982  0.00  0.00    +0.148 C 
ATOM     13  C   UNL     1      32.965 -17.073 -25.423  0.00  0.00    +0.409 C 
BRANCH  11  14
ATOM     14  C   UNL     1      33.169 -13.892 -25.356  0.00  0.00    +0.183 C 
BRANCH  14  15
ATOM     15  O   UNL     1      33.749 -13.585 -24.101  0.00  0.00    -0.378 OA
ATOM     16  H   UNL     1      34.493 -14.184 -23.934  0.00  0.00    +0.211 HD
ENDBRANCH  14  15
ENDBRANCH  11  14
ENDBRANCH   2  10
BRANCH   5  18
ATOM     17  N   UNL     1      37.058 -20.721 -18.422  0.00  0.00    -0.234 NA
ATOM     18  C   UNL     1      35.438 -20.125 -20.110  0.00  0.00    +0.021 C 
ATOM     19  C   UNL     1      34.563 -21.088 -19.626  0.00  0.00    +0.004 C 
ATOM     20  C   UNL     1      36.662 -19.980 -19.482  0.00  0.00    +0.100 C 
ATOM     21  C   UNL     1      34.935 -21.871 -18.539  0.00  0.00    +0.029 C 
ATOM     22  C   UNL     1      36.182 -21.650 -17.978  0.00  0.00    +0.146 C 
BRANCH  22  27
ATOM     23  N   UNL     1      35.833 -23.292 -16.208  0.00  0.00    -0.105 NA
ATOM     24  N   UNL     1      36.703 -23.726 -15.286  0.00  0.00    -0.113 N 
ATOM     25  N   UNL     1      37.884 -22.344 -16.357  0.00  0.00    -0.085 NA
ATOM     26  N   UNL     1      37.931 -23.191 -15.336  0.00  0.00    -0.018 NA
ATOM     27  C   UNL     1      36.619 -22.428 -16.855  0.00  0.00    +0.092 C 
ATOM     28  C   UNL     1      36.340 -24.708 -14.298  0.00  0.00    +0.163 C 
ENDBRANCH  22  27
ENDBRANCH   5  18
TORSDOF 5
ENDMDL
