MODEL 1
REMARK VINA RESULT:     -11.4      0.000      0.000
REMARK  Name = 176407
REMARK  5 active torsions:
REMARK  status: ('A' for Active; 'I' for Inactive)
REMARK    1  A    between atoms: N_1  and  C_20
REMARK    2  A    between atoms: C_11  and  C_16
REMARK    3  A    between atoms: C_20  and  C_21
REMARK    4  A    between atoms: C_21  and  C_22
REMARK    5  A    between atoms: C_27  and  O_28
REMARK                            x       y       z     vdW  Elec       q    Type
REMARK                         _______ _______ _______ _____ _____    ______ ____
ROOT
ATOM      1  N   UNL     1      36.013 -17.975 -22.451  0.00  0.00    -0.258 N 
ATOM      2  N   UNL     1      33.787 -14.751 -23.233  0.00  0.00    -0.059 N 
ATOM      3  N   UNL     1      34.917 -16.086 -21.668  0.00  0.00    -0.245 NA
ATOM      4  N   UNL     1      34.867 -16.609 -24.000  0.00  0.00    -0.294 NA
ATOM      5  N   UNL     1      33.046 -13.639 -23.342  0.00  0.00    -0.090 NA
ATOM      6  N   UNL     1      33.670 -14.042 -21.177  0.00  0.00    -0.267 NA
ATOM      7  N   UNL     1      33.709 -15.226 -25.540  0.00  0.00    -0.318 N 
ATOM      8  C   UNL     1      35.248 -16.856 -22.682  0.00  0.00    +0.213 C 
ATOM      9  C   UNL     1      34.162 -14.995 -21.942  0.00  0.00    +0.251 C 
ATOM     10  C   UNL     1      34.141 -15.569 -24.288  0.00  0.00    +0.282 C 
ATOM     11  C   UNL     1      33.003 -13.245 -22.067  0.00  0.00    +0.153 C 
ATOM     12  H   UNL     1      36.259 -18.548 -23.213  0.00  0.00    +0.160 HD
ATOM     13  H   UNL     1      33.162 -14.417 -25.668  0.00  0.00    +0.146 HD
ATOM     14  H   UNL     1      33.945 -15.787 -26.314  0.00  0.00    +0.146 HD
ENDROOT
BRANCH  11  16
ATOM     15  O   UNL     1      32.302 -10.854 -22.326  0.00  0.00    -0.439 OA
ATOM     16  C   UNL     1      32.284 -12.030 -21.646  0.00  0.00    +0.221 C 
ATOM     17  C   UNL     1      31.506 -11.921 -20.516  0.00  0.00    +0.052 C 
ATOM     18  C   UNL     1      31.015 -10.594 -20.503  0.00  0.00    +0.045 C 
ATOM     19  C   UNL     1      31.528  -9.986 -21.624  0.00  0.00    +0.181 C 
ENDBRANCH  11  16
BRANCH   1  20
ATOM     20  C   UNL     1      36.464 -18.329 -21.144  0.00  0.00    +0.103 C 
BRANCH  20  21
ATOM     21  C   UNL     1      36.615 -19.844 -21.010  0.00  0.00    +0.048 C 
BRANCH  21  22
ATOM     22  C   UNL     1      35.468 -20.491 -20.273  0.00  0.00    -0.020 C 
ATOM     23  C   UNL     1      34.169 -20.117 -20.576  0.00  0.00    -0.001 C 
ATOM     24  C   UNL     1      35.736 -21.448 -19.307  0.00  0.00    -0.001 C 
ATOM     25  C   UNL     1      33.109 -20.714 -19.894  0.00  0.00    +0.036 C 
ATOM     26  C   UNL     1      34.676 -22.046 -18.625  0.00  0.00    +0.036 C 
ATOM     27  C   UNL     1      33.363 -21.679 -18.919  0.00  0.00    +0.134 C 
BRANCH  27  28
ATOM     28  O   UNL     1      32.327 -22.262 -18.255  0.00  0.00    -0.506 OA
ATOM     29  H   UNL     1      32.107 -21.980 -17.389  0.00  0.00    +0.292 HD
ENDBRANCH  27  28
ENDBRANCH  21  22
ENDBRANCH  20  21
ENDBRANCH   1  20
TORSDOF 5
ENDMDL
MODEL 2
REMARK VINA RESULT:     -11.1      1.378      1.637
REMARK  Name = 176407
REMARK  5 active torsions:
REMARK  status: ('A' for Active; 'I' for Inactive)
REMARK    1  A    between atoms: N_1  and  C_20
REMARK    2  A    between atoms: C_11  and  C_16
REMARK    3  A    between atoms: C_20  and  C_21
REMARK    4  A    between atoms: C_21  and  C_22
REMARK    5  A    between atoms: C_27  and  O_28
REMARK                            x       y       z     vdW  Elec       q    Type
REMARK                         _______ _______ _______ _____ _____    ______ ____
ROOT
ATOM      1  N   UNL     1      35.072 -17.981 -22.676  0.00  0.00    -0.258 N 
ATOM      2  N   UNL     1      33.748 -14.491 -24.101  0.00  0.00    -0.059 N 
ATOM      3  N   UNL     1      34.831 -15.689 -22.399  0.00  0.00    -0.245 NA
ATOM      4  N   UNL     1      33.986 -16.745 -24.371  0.00  0.00    -0.294 NA
ATOM      5  N   UNL     1      33.361 -13.255 -24.449  0.00  0.00    -0.090 NA
ATOM      6  N   UNL     1      34.417 -13.281 -22.418  0.00  0.00    -0.267 NA
ATOM      7  N   UNL     1      32.898 -15.486 -26.061  0.00  0.00    -0.318 N 
ATOM      8  C   UNL     1      34.630 -16.761 -23.134  0.00  0.00    +0.213 C 
ATOM      9  C   UNL     1      34.379 -14.510 -22.890  0.00  0.00    +0.251 C 
ATOM     10  C   UNL     1      33.543 -15.625 -24.863  0.00  0.00    +0.282 C 
ATOM     11  C   UNL     1      33.789 -12.557 -23.394  0.00  0.00    +0.153 C 
ATOM     12  H   UNL     1      34.919 -18.781 -23.229  0.00  0.00    +0.160 HD
ATOM     13  H   UNL     1      32.596 -14.597 -26.358  0.00  0.00    +0.146 HD
ATOM     14  H   UNL     1      32.737 -16.275 -26.629  0.00  0.00    +0.146 HD
ENDROOT
BRANCH  11  16
ATOM     15  O   UNL     1      32.536 -10.506 -22.688  0.00  0.00    -0.439 OA
ATOM     16  C   UNL     1      33.599 -11.099 -23.291  0.00  0.00    +0.221 C 
ATOM     17  C   UNL     1      34.464 -10.151 -23.788  0.00  0.00    +0.052 C 
ATOM     18  C   UNL     1      33.895  -8.895 -23.469  0.00  0.00    +0.045 C 
ATOM     19  C   UNL     1      32.724  -9.165 -22.801  0.00  0.00    +0.181 C 
ENDBRANCH  11  16
BRANCH   1  20
ATOM     20  C   UNL     1      35.745 -18.122 -21.425  0.00  0.00    +0.103 C 
BRANCH  20  21
ATOM     21  C   UNL     1      36.189 -19.568 -21.204  0.00  0.00    +0.048 C 
BRANCH  21  22
ATOM     22  C   UNL     1      35.215 -20.366 -20.372  0.00  0.00    -0.020 C 
ATOM     23  C   UNL     1      33.855 -20.151 -20.526  0.00  0.00    -0.001 C 
ATOM     24  C   UNL     1      35.699 -21.300 -19.470  0.00  0.00    -0.001 C 
ATOM     25  C   UNL     1      32.955 -20.888 -19.757  0.00  0.00    +0.036 C 
ATOM     26  C   UNL     1      34.799 -22.037 -18.701  0.00  0.00    +0.036 C 
ATOM     27  C   UNL     1      33.427 -21.831 -18.844  0.00  0.00    +0.134 C 
BRANCH  27  28
ATOM     28  O   UNL     1      32.548 -22.551 -18.094  0.00  0.00    -0.506 OA
ATOM     29  H   UNL     1      31.702 -22.200 -17.899  0.00  0.00    +0.292 HD
ENDBRANCH  27  28
ENDBRANCH  21  22
ENDBRANCH  20  21
ENDBRANCH   1  20
TORSDOF 5
ENDMDL
MODEL 3
REMARK VINA RESULT:     -11.0      6.479     11.372
REMARK  Name = 176407
REMARK  5 active torsions:
REMARK  status: ('A' for Active; 'I' for Inactive)
REMARK    1  A    between atoms: N_1  and  C_20
REMARK    2  A    between atoms: C_11  and  C_16
REMARK    3  A    between atoms: C_20  and  C_21
REMARK    4  A    between atoms: C_21  and  C_22
REMARK    5  A    between atoms: C_27  and  O_28
REMARK                            x       y       z     vdW  Elec       q    Type
REMARK                         _______ _______ _______ _____ _____    ______ ____
ROOT
ATOM      1  N   UNL     1      32.484 -22.233 -18.366  0.00  0.00    -0.258 N 
ATOM      2  N   UNL     1      33.645 -23.813 -14.885  0.00  0.00    -0.059 N 
ATOM      3  N   UNL     1      34.180 -23.142 -17.069  0.00  0.00    -0.245 NA
ATOM      4  N   UNL     1      31.979 -22.919 -16.163  0.00  0.00    -0.294 NA
ATOM      5  N   UNL     1      34.177 -24.355 -13.780  0.00  0.00    -0.090 NA
ATOM      6  N   UNL     1      35.724 -24.130 -15.452  0.00  0.00    -0.267 NA
ATOM      7  N   UNL     1      31.491 -23.614 -13.948  0.00  0.00    -0.318 N 
ATOM      8  C   UNL     1      32.921 -22.781 -17.182  0.00  0.00    +0.213 C 
ATOM      9  C   UNL     1      34.565 -23.676 -15.885  0.00  0.00    +0.251 C 
ATOM     10  C   UNL     1      32.324 -23.430 -15.018  0.00  0.00    +0.282 C 
ATOM     11  C   UNL     1      35.440 -24.530 -14.175  0.00  0.00    +0.153 C 
ATOM     12  H   UNL     1      31.540 -21.965 -18.446  0.00  0.00    +0.160 HD
ATOM     13  H   UNL     1      31.839 -24.009 -13.115  0.00  0.00    +0.146 HD
ATOM     14  H   UNL     1      30.545 -23.350 -14.010  0.00  0.00    +0.146 HD
ENDROOT
BRANCH  11  16
ATOM     15  O   UNL     1      36.196 -25.724 -12.107  0.00  0.00    -0.439 OA
ATOM     16  C   UNL     1      36.464 -25.115 -13.291  0.00  0.00    +0.221 C 
ATOM     17  C   UNL     1      37.817 -25.121 -13.542  0.00  0.00    +0.052 C 
ATOM     18  C   UNL     1      38.418 -25.777 -12.441  0.00  0.00    +0.045 C 
ATOM     19  C   UNL     1      37.390 -26.124 -11.596  0.00  0.00    +0.181 C 
ENDBRANCH  11  16
BRANCH   1  20
ATOM     20  C   UNL     1      33.356 -22.042 -19.480  0.00  0.00    +0.103 C 
BRANCH  20  21
ATOM     21  C   UNL     1      33.178 -20.648 -20.080  0.00  0.00    +0.048 C 
BRANCH  21  22
ATOM     22  C   UNL     1      34.471 -20.044 -20.569  0.00  0.00    -0.020 C 
ATOM     23  C   UNL     1      34.445 -19.141 -21.621  0.00  0.00    -0.001 C 
ATOM     24  C   UNL     1      35.662 -20.402 -19.957  0.00  0.00    -0.001 C 
ATOM     25  C   UNL     1      35.640 -18.584 -22.073  0.00  0.00    +0.036 C 
ATOM     26  C   UNL     1      36.858 -19.844 -20.410  0.00  0.00    +0.036 C 
ATOM     27  C   UNL     1      36.847 -18.935 -21.467  0.00  0.00    +0.134 C 
BRANCH  27  28
ATOM     28  O   UNL     1      38.013 -18.389 -21.909  0.00  0.00    -0.506 OA
ATOM     29  H   UNL     1      38.832 -18.774 -21.667  0.00  0.00    +0.292 HD
ENDBRANCH  27  28
ENDBRANCH  21  22
ENDBRANCH  20  21
ENDBRANCH   1  20
TORSDOF 5
ENDMDL
MODEL 4
REMARK VINA RESULT:     -10.9      5.100      9.806
REMARK  Name = 176407
REMARK  5 active torsions:
REMARK  status: ('A' for Active; 'I' for Inactive)
REMARK    1  A    between atoms: N_1  and  C_20
REMARK    2  A    between atoms: C_11  and  C_16
REMARK    3  A    between atoms: C_20  and  C_21
REMARK    4  A    between atoms: C_21  and  C_22
REMARK    5  A    between atoms: C_27  and  O_28
REMARK                            x       y       z     vdW  Elec       q    Type
REMARK                         _______ _______ _______ _____ _____    ______ ____
ROOT
ATOM      1  N   UNL     1      35.974 -21.031 -19.531  0.00  0.00    -0.258 N 
ATOM      2  N   UNL     1      34.071 -22.930 -16.576  0.00  0.00    -0.059 N 
ATOM      3  N   UNL     1      33.976 -21.786 -18.622  0.00  0.00    -0.245 NA
ATOM      4  N   UNL     1      36.034 -22.187 -17.472  0.00  0.00    -0.294 NA
ATOM      5  N   UNL     1      33.301 -23.540 -15.663  0.00  0.00    -0.090 NA
ATOM      6  N   UNL     1      32.069 -22.706 -17.402  0.00  0.00    -0.267 NA
ATOM      7  N   UNL     1      36.074 -23.349 -15.405  0.00  0.00    -0.318 N 
ATOM      8  C   UNL     1      35.284 -21.679 -18.533  0.00  0.00    +0.213 C 
ATOM      9  C   UNL     1      33.340 -22.432 -17.616  0.00  0.00    +0.251 C 
ATOM     10  C   UNL     1      35.445 -22.810 -16.494  0.00  0.00    +0.282 C 
ATOM     11  C   UNL     1      32.094 -23.376 -16.210  0.00  0.00    +0.153 C 
ATOM     12  H   UNL     1      36.952 -20.953 -19.460  0.00  0.00    +0.160 HD
ATOM     13  H   UNL     1      35.548 -23.807 -14.709  0.00  0.00    +0.146 HD
ATOM     14  H   UNL     1      37.052 -23.281 -15.317  0.00  0.00    +0.146 HD
ENDROOT
BRANCH  11  16
ATOM     15  O   UNL     1      30.843 -24.885 -14.651  0.00  0.00    -0.439 OA
ATOM     16  C   UNL     1      30.868 -23.886 -15.571  0.00  0.00    +0.221 C 
ATOM     17  C   UNL     1      29.596 -23.425 -15.818  0.00  0.00    +0.052 C 
ATOM     18  C   UNL     1      28.733 -24.191 -14.997  0.00  0.00    +0.045 C 
ATOM     19  C   UNL     1      29.540 -25.065 -14.307  0.00  0.00    +0.181 C 
ENDBRANCH  11  16
BRANCH   1  20
ATOM     20  C   UNL     1      35.315 -20.470 -20.667  0.00  0.00    +0.103 C 
BRANCH  20  21
ATOM     21  C   UNL     1      35.908 -19.108 -21.025  0.00  0.00    +0.048 C 
BRANCH  21  22
ATOM     22  C   UNL     1      35.271 -18.486 -22.244  0.00  0.00    -0.020 C 
ATOM     23  C   UNL     1      34.594 -19.295 -23.144  0.00  0.00    -0.001 C 
ATOM     24  C   UNL     1      35.374 -17.119 -22.441  0.00  0.00    -0.001 C 
ATOM     25  C   UNL     1      34.006 -18.720 -24.270  0.00  0.00    +0.036 C 
ATOM     26  C   UNL     1      34.786 -16.544 -23.567  0.00  0.00    +0.036 C 
ATOM     27  C   UNL     1      34.101 -17.344 -24.482  0.00  0.00    +0.134 C 
BRANCH  27  28
ATOM     28  O   UNL     1      33.526 -16.784 -25.581  0.00  0.00    -0.506 OA
ATOM     29  H   UNL     1      32.801 -16.200 -25.484  0.00  0.00    +0.292 HD
ENDBRANCH  27  28
ENDBRANCH  21  22
ENDBRANCH  20  21
ENDBRANCH   1  20
TORSDOF 5
ENDMDL
MODEL 5
REMARK VINA RESULT:     -10.9      4.665     10.048
REMARK  Name = 176407
REMARK  5 active torsions:
REMARK  status: ('A' for Active; 'I' for Inactive)
REMARK    1  A    between atoms: N_1  and  C_20
REMARK    2  A    between atoms: C_11  and  C_16
REMARK    3  A    between atoms: C_20  and  C_21
REMARK    4  A    between atoms: C_21  and  C_22
REMARK    5  A    between atoms: C_27  and  O_28
REMARK                            x       y       z     vdW  Elec       q    Type
REMARK                         _______ _______ _______ _____ _____    ______ ____
ROOT
ATOM      1  N   UNL     1      34.192 -20.293 -20.660  0.00  0.00    -0.258 N 
ATOM      2  N   UNL     1      34.256 -22.534 -17.353  0.00  0.00    -0.059 N 
ATOM      3  N   UNL     1      35.422 -21.281 -18.959  0.00  0.00    -0.245 NA
ATOM      4  N   UNL     1      33.048 -21.561 -19.028  0.00  0.00    -0.294 NA
ATOM      5  N   UNL     1      34.433 -23.265 -16.243  0.00  0.00    -0.090 NA
ATOM      6  N   UNL     1      36.411 -22.444 -17.050  0.00  0.00    -0.267 NA
ATOM      7  N   UNL     1      31.919 -22.839 -17.379  0.00  0.00    -0.318 N 
ATOM      8  C   UNL     1      34.253 -21.060 -19.520  0.00  0.00    +0.213 C 
ATOM      9  C   UNL     1      35.435 -22.042 -17.838  0.00  0.00    +0.251 C 
ATOM     10  C   UNL     1      33.035 -22.294 -17.953  0.00  0.00    +0.282 C 
ATOM     11  C   UNL     1      35.758 -23.180 -16.101  0.00  0.00    +0.153 C 
ATOM     12  H   UNL     1      33.315 -20.130 -21.077  0.00  0.00    +0.160 HD
ATOM     13  H   UNL     1      32.001 -23.383 -16.562  0.00  0.00    +0.146 HD
ATOM     14  H   UNL     1      31.034 -22.686 -17.782  0.00  0.00    +0.146 HD
ENDROOT
BRANCH  11  16
ATOM     15  O   UNL     1      36.806 -25.153 -14.966  0.00  0.00    -0.439 OA
ATOM     16  C   UNL     1      36.470 -23.837 -14.990  0.00  0.00    +0.221 C 
ATOM     17  C   UNL     1      36.885 -23.212 -13.836  0.00  0.00    +0.052 C 
ATOM     18  C   UNL     1      37.516 -24.209 -13.054  0.00  0.00    +0.045 C 
ATOM     19  C   UNL     1      37.442 -25.371 -13.785  0.00  0.00    +0.181 C 
ENDBRANCH  11  16
BRANCH   1  20
ATOM     20  C   UNL     1      35.358 -19.726 -21.257  0.00  0.00    +0.103 C 
BRANCH  20  21
ATOM     21  C   UNL     1      35.323 -18.200 -21.181  0.00  0.00    +0.048 C 
BRANCH  21  22
ATOM     22  C   UNL     1      34.900 -17.552 -22.477  0.00  0.00    -0.020 C 
ATOM     23  C   UNL     1      34.971 -16.174 -22.603  0.00  0.00    -0.001 C 
ATOM     24  C   UNL     1      34.449 -18.348 -23.518  0.00  0.00    -0.001 C 
ATOM     25  C   UNL     1      34.579 -15.576 -23.800  0.00  0.00    +0.036 C 
ATOM     26  C   UNL     1      34.057 -17.750 -24.715  0.00  0.00    +0.036 C 
ATOM     27  C   UNL     1      34.123 -16.364 -24.857  0.00  0.00    +0.134 C 
BRANCH  27  28
ATOM     28  O   UNL     1      33.742 -15.779 -26.025  0.00  0.00    -0.506 OA
ATOM     29  H   UNL     1      34.313 -15.799 -26.768  0.00  0.00    +0.292 HD
ENDBRANCH  27  28
ENDBRANCH  21  22
ENDBRANCH  20  21
ENDBRANCH   1  20
TORSDOF 5
ENDMDL
MODEL 6
REMARK VINA RESULT:     -10.5      4.257      9.579
REMARK  Name = 176407
REMARK  5 active torsions:
REMARK  status: ('A' for Active; 'I' for Inactive)
REMARK    1  A    between atoms: N_1  and  C_20
REMARK    2  A    between atoms: C_11  and  C_16
REMARK    3  A    between atoms: C_20  and  C_21
REMARK    4  A    between atoms: C_21  and  C_22
REMARK    5  A    between atoms: C_27  and  O_28
REMARK                            x       y       z     vdW  Elec       q    Type
REMARK                         _______ _______ _______ _____ _____    ______ ____
ROOT
ATOM      1  N   UNL     1      35.323 -20.229 -20.805  0.00  0.00    -0.258 N 
ATOM      2  N   UNL     1      34.476 -22.327 -17.513  0.00  0.00    -0.059 N 
ATOM      3  N   UNL     1      33.728 -21.225 -19.445  0.00  0.00    -0.245 NA
ATOM      4  N   UNL     1      36.042 -21.347 -18.853  0.00  0.00    -0.294 NA
ATOM      5  N   UNL     1      34.042 -23.021 -16.451  0.00  0.00    -0.090 NA
ATOM      6  N   UNL     1      32.319 -22.370 -17.809  0.00  0.00    -0.267 NA
ATOM      7  N   UNL     1      36.744 -22.473 -16.887  0.00  0.00    -0.318 N 
ATOM      8  C   UNL     1      34.993 -20.950 -19.682  0.00  0.00    +0.213 C 
ATOM      9  C   UNL     1      33.451 -21.937 -18.326  0.00  0.00    +0.251 C 
ATOM     10  C   UNL     1      35.800 -22.030 -17.773  0.00  0.00    +0.282 C 
ATOM     11  C   UNL     1      32.726 -23.019 -16.676  0.00  0.00    +0.153 C 
ATOM     12  H   UNL     1      36.270 -20.025 -20.979  0.00  0.00    +0.160 HD
ATOM     13  H   UNL     1      36.471 -22.987 -16.093  0.00  0.00    +0.146 HD
ATOM     14  H   UNL     1      37.697 -22.279 -17.044  0.00  0.00    +0.146 HD
ENDROOT
BRANCH  11  16
ATOM     15  O   UNL     1      32.133 -24.382 -14.660  0.00  0.00    -0.439 OA
ATOM     16  C   UNL     1      31.774 -23.676 -15.763  0.00  0.00    +0.221 C 
ATOM     17  C   UNL     1      30.405 -23.664 -15.904  0.00  0.00    +0.052 C 
ATOM     18  C   UNL     1      29.891 -24.411 -14.817  0.00  0.00    +0.045 C 
ATOM     19  C   UNL     1      30.982 -24.827 -14.091  0.00  0.00    +0.181 C 
ENDBRANCH  11  16
BRANCH   1  20
ATOM     20  C   UNL     1      34.335 -19.769 -21.728  0.00  0.00    +0.103 C 
BRANCH  20  21
ATOM     21  C   UNL     1      34.975 -19.365 -23.056  0.00  0.00    +0.048 C 
BRANCH  21  22
ATOM     22  C   UNL     1      34.607 -17.967 -23.490  0.00  0.00    -0.020 C 
ATOM     23  C   UNL     1      35.058 -16.885 -22.750  0.00  0.00    -0.001 C 
ATOM     24  C   UNL     1      33.825 -17.790 -24.620  0.00  0.00    -0.001 C 
ATOM     25  C   UNL     1      34.717 -15.594 -23.150  0.00  0.00    +0.036 C 
ATOM     26  C   UNL     1      33.484 -16.499 -25.021  0.00  0.00    +0.036 C 
ATOM     27  C   UNL     1      33.930 -15.400 -24.286  0.00  0.00    +0.134 C 
BRANCH  27  28
ATOM     28  O   UNL     1      33.599 -14.139 -24.676  0.00  0.00    -0.506 OA
ATOM     29  H   UNL     1      34.264 -13.552 -24.979  0.00  0.00    +0.292 HD
ENDBRANCH  27  28
ENDBRANCH  21  22
ENDBRANCH  20  21
ENDBRANCH   1  20
TORSDOF 5
ENDMDL
MODEL 7
REMARK VINA RESULT:     -10.0      7.056     10.071
REMARK  Name = 176407
REMARK  5 active torsions:
REMARK  status: ('A' for Active; 'I' for Inactive)
REMARK    1  A    between atoms: N_1  and  C_20
REMARK    2  A    between atoms: C_11  and  C_16
REMARK    3  A    between atoms: C_20  and  C_21
REMARK    4  A    between atoms: C_21  and  C_22
REMARK    5  A    between atoms: C_27  and  O_28
REMARK                            x       y       z     vdW  Elec       q    Type
REMARK                         _______ _______ _______ _____ _____    ______ ____
ROOT
ATOM      1  N   UNL     1      33.103 -25.067 -13.375  0.00  0.00    -0.258 N 
ATOM      2  N   UNL     1      35.186 -22.997 -16.085  0.00  0.00    -0.059 N 
ATOM      3  N   UNL     1      33.133 -23.881 -15.370  0.00  0.00    -0.245 NA
ATOM      4  N   UNL     1      35.154 -24.164 -14.123  0.00  0.00    -0.294 NA
ATOM      5  N   UNL     1      35.750 -22.287 -17.072  0.00  0.00    -0.090 NA
ATOM      6  N   UNL     1      33.507 -22.590 -17.411  0.00  0.00    -0.267 NA
ATOM      7  N   UNL     1      37.203 -23.250 -14.891  0.00  0.00    -0.318 N 
ATOM      8  C   UNL     1      33.787 -24.349 -14.329  0.00  0.00    +0.213 C 
ATOM      9  C   UNL     1      33.847 -23.180 -16.283  0.00  0.00    +0.251 C 
ATOM     10  C   UNL     1      35.860 -23.495 -14.987  0.00  0.00    +0.282 C 
ATOM     11  C   UNL     1      34.690 -22.064 -17.852  0.00  0.00    +0.153 C 
ATOM     12  H   UNL     1      33.596 -25.415 -12.598  0.00  0.00    +0.160 HD
ATOM     13  H   UNL     1      37.660 -22.732 -15.594  0.00  0.00    +0.146 HD
ATOM     14  H   UNL     1      37.713 -23.590 -14.121  0.00  0.00    +0.146 HD
ENDROOT
BRANCH  11  16
ATOM     15  O   UNL     1      35.957 -20.882 -19.662  0.00  0.00    -0.439 OA
ATOM     16  C   UNL     1      34.789 -21.299 -19.108  0.00  0.00    +0.221 C 
ATOM     17  C   UNL     1      33.721 -20.904 -19.881  0.00  0.00    +0.052 C 
ATOM     18  C   UNL     1      34.269 -20.201 -20.980  0.00  0.00    +0.045 C 
ATOM     19  C   UNL     1      35.632 -20.215 -20.800  0.00  0.00    +0.181 C 
ENDBRANCH  11  16
BRANCH   1  20
ATOM     20  C   UNL     1      31.702 -25.320 -13.477  0.00  0.00    +0.103 C 
BRANCH  20  21
ATOM     21  C   UNL     1      30.901 -24.026 -13.338  0.00  0.00    +0.048 C 
BRANCH  21  22
ATOM     22  C   UNL     1      29.886 -23.836 -14.438  0.00  0.00    -0.020 C 
ATOM     23  C   UNL     1      29.409 -22.564 -14.711  0.00  0.00    -0.001 C 
ATOM     24  C   UNL     1      29.448 -24.938 -15.156  0.00  0.00    -0.001 C 
ATOM     25  C   UNL     1      28.471 -22.389 -15.728  0.00  0.00    +0.036 C 
ATOM     26  C   UNL     1      28.510 -24.763 -16.173  0.00  0.00    +0.036 C 
ATOM     27  C   UNL     1      28.021 -23.488 -16.459  0.00  0.00    +0.134 C 
BRANCH  27  28
ATOM     28  O   UNL     1      27.106 -23.316 -17.451  0.00  0.00    -0.506 OA
ATOM     29  H   UNL     1      26.258 -22.971 -17.252  0.00  0.00    +0.292 HD
ENDBRANCH  27  28
ENDBRANCH  21  22
ENDBRANCH  20  21
ENDBRANCH   1  20
TORSDOF 5
ENDMDL
MODEL 8
REMARK VINA RESULT:     -10.0      6.191     10.136
REMARK  Name = 176407
REMARK  5 active torsions:
REMARK  status: ('A' for Active; 'I' for Inactive)
REMARK    1  A    between atoms: N_1  and  C_20
REMARK    2  A    between atoms: C_11  and  C_16
REMARK    3  A    between atoms: C_20  and  C_21
REMARK    4  A    between atoms: C_21  and  C_22
REMARK    5  A    between atoms: C_27  and  O_28
REMARK                            x       y       z     vdW  Elec       q    Type
REMARK                         _______ _______ _______ _____ _____    ______ ____
ROOT
ATOM      1  N   UNL     1      36.751 -21.738 -17.936  0.00  0.00    -0.258 N 
ATOM      2  N   UNL     1      34.060 -23.144 -15.340  0.00  0.00    -0.059 N 
ATOM      3  N   UNL     1      34.594 -22.488 -17.529  0.00  0.00    -0.245 NA
ATOM      4  N   UNL     1      36.181 -22.405 -15.743  0.00  0.00    -0.294 NA
ATOM      5  N   UNL     1      33.056 -23.621 -14.589  0.00  0.00    -0.090 NA
ATOM      6  N   UNL     1      32.426 -23.322 -16.769  0.00  0.00    -0.267 NA
ATOM      7  N   UNL     1      35.589 -23.080 -13.548  0.00  0.00    -0.318 N 
ATOM      8  C   UNL     1      35.798 -22.224 -17.072  0.00  0.00    +0.213 C 
ATOM      9  C   UNL     1      33.688 -22.965 -16.642  0.00  0.00    +0.251 C 
ATOM     10  C   UNL     1      35.329 -22.861 -14.873  0.00  0.00    +0.282 C 
ATOM     11  C   UNL     1      32.087 -23.711 -15.502  0.00  0.00    +0.153 C 
ATOM     12  H   UNL     1      37.652 -21.541 -17.589  0.00  0.00    +0.160 HD
ATOM     13  H   UNL     1      34.882 -23.429 -12.958  0.00  0.00    +0.146 HD
ATOM     14  H   UNL     1      36.484 -22.889 -13.183  0.00  0.00    +0.146 HD
ENDROOT
BRANCH  11  16
ATOM     15  O   UNL     1      29.594 -23.756 -15.750  0.00  0.00    -0.439 OA
ATOM     16  C   UNL     1      30.737 -24.199 -15.166  0.00  0.00    +0.221 C 
ATOM     17  C   UNL     1      30.456 -25.161 -14.223  0.00  0.00    +0.052 C 
ATOM     18  C   UNL     1      29.049 -25.318 -14.229  0.00  0.00    +0.045 C 
ATOM     19  C   UNL     1      28.572 -24.441 -15.174  0.00  0.00    +0.181 C 
ENDBRANCH  11  16
BRANCH   1  20
ATOM     20  C   UNL     1      36.477 -21.511 -19.319  0.00  0.00    +0.103 C 
BRANCH  20  21
ATOM     21  C   UNL     1      36.862 -20.090 -19.726  0.00  0.00    +0.048 C 
BRANCH  21  22
ATOM     22  C   UNL     1      36.031 -19.555 -20.867  0.00  0.00    -0.020 C 
ATOM     23  C   UNL     1      34.729 -20.004 -21.028  0.00  0.00    -0.001 C 
ATOM     24  C   UNL     1      36.584 -18.624 -21.732  0.00  0.00    -0.001 C 
ATOM     25  C   UNL     1      33.962 -19.510 -22.082  0.00  0.00    +0.036 C 
ATOM     26  C   UNL     1      35.816 -18.131 -22.786  0.00  0.00    +0.036 C 
ATOM     27  C   UNL     1      34.505 -18.573 -22.961  0.00  0.00    +0.134 C 
BRANCH  27  28
ATOM     28  O   UNL     1      33.754 -18.091 -23.990  0.00  0.00    -0.506 OA
ATOM     29  H   UNL     1      33.408 -18.678 -24.632  0.00  0.00    +0.292 HD
ENDBRANCH  27  28
ENDBRANCH  21  22
ENDBRANCH  20  21
ENDBRANCH   1  20
TORSDOF 5
ENDMDL
MODEL 9
REMARK VINA RESULT:      -9.9      2.737      4.318
REMARK  Name = 176407
REMARK  5 active torsions:
REMARK  status: ('A' for Active; 'I' for Inactive)
REMARK    1  A    between atoms: N_1  and  C_20
REMARK    2  A    between atoms: C_11  and  C_16
REMARK    3  A    between atoms: C_20  and  C_21
REMARK    4  A    between atoms: C_21  and  C_22
REMARK    5  A    between atoms: C_27  and  O_28
REMARK                            x       y       z     vdW  Elec       q    Type
REMARK                         _______ _______ _______ _____ _____    ______ ____
ROOT
ATOM      1  N   UNL     1      33.800 -15.196 -22.839  0.00  0.00    -0.258 N 
ATOM      2  N   UNL     1      32.737 -11.373 -22.381  0.00  0.00    -0.059 N 
ATOM      3  N   UNL     1      34.146 -12.965 -23.373  0.00  0.00    -0.245 NA
ATOM      4  N   UNL     1      32.398 -13.568 -21.858  0.00  0.00    -0.294 NA
ATOM      5  N   UNL     1      32.495 -10.055 -22.326  0.00  0.00    -0.090 NA
ATOM      6  N   UNL     1      34.243 -10.547 -23.720  0.00  0.00    -0.267 NA
ATOM      7  N   UNL     1      31.001 -11.918 -20.882  0.00  0.00    -0.318 N 
ATOM      8  C   UNL     1      33.463 -13.869 -22.707  0.00  0.00    +0.213 C 
ATOM      9  C   UNL     1      33.779 -11.671 -23.212  0.00  0.00    +0.251 C 
ATOM     10  C   UNL     1      32.027 -12.333 -21.686  0.00  0.00    +0.282 C 
ATOM     11  C   UNL     1      33.436  -9.598 -23.156  0.00  0.00    +0.153 C 
ATOM     12  H   UNL     1      33.285 -15.870 -22.339  0.00  0.00    +0.160 HD
ATOM     13  H   UNL     1      30.787 -10.959 -20.811  0.00  0.00    +0.146 HD
ATOM     14  H   UNL     1      30.475 -12.578 -20.374  0.00  0.00    +0.146 HD
ENDROOT
BRANCH  11  16
ATOM     15  O   UNL     1      32.568  -7.272 -23.493  0.00  0.00    -0.439 OA
ATOM     16  C   UNL     1      33.594  -8.161 -23.446  0.00  0.00    +0.221 C 
ATOM     17  C   UNL     1      34.790  -7.533 -23.708  0.00  0.00    +0.052 C 
ATOM     18  C   UNL     1      34.478  -6.170 -23.930  0.00  0.00    +0.045 C 
ATOM     19  C   UNL     1      33.115  -6.063 -23.788  0.00  0.00    +0.181 C 
ENDBRANCH  11  16
BRANCH   1  20
ATOM     20  C   UNL     1      34.870 -15.626 -23.680  0.00  0.00    +0.103 C 
BRANCH  20  21
ATOM     21  C   UNL     1      34.733 -17.109 -24.024  0.00  0.00    +0.048 C 
BRANCH  21  22
ATOM     22  C   UNL     1      35.053 -18.018 -22.864  0.00  0.00    -0.020 C 
ATOM     23  C   UNL     1      34.150 -19.007 -22.506  0.00  0.00    -0.001 C 
ATOM     24  C   UNL     1      36.245 -17.848 -22.176  0.00  0.00    -0.001 C 
ATOM     25  C   UNL     1      34.446 -19.847 -21.433  0.00  0.00    +0.036 C 
ATOM     26  C   UNL     1      36.540 -18.688 -21.103  0.00  0.00    +0.036 C 
ATOM     27  C   UNL     1      35.641 -19.688 -20.732  0.00  0.00    +0.134 C 
BRANCH  27  28
ATOM     28  O   UNL     1      35.929 -20.510 -19.685  0.00  0.00    -0.506 OA
ATOM     29  H   UNL     1      35.900 -20.180 -18.809  0.00  0.00    +0.292 HD
ENDBRANCH  27  28
ENDBRANCH  21  22
ENDBRANCH  20  21
ENDBRANCH   1  20
TORSDOF 5
ENDMDL
