MODEL 1
REMARK VINA RESULT:     -11.4      0.000      0.000
REMARK  Name = 4261
REMARK  8 active torsions:
REMARK  status: ('A' for Active; 'I' for Inactive)
REMARK    1  A    between atoms: C_1  and  C_20
REMARK    2  A    between atoms: C_2  and  C_9
REMARK    3  A    between atoms: N_8  and  C_11
REMARK    4  A    between atoms: C_12  and  N_17
REMARK    5  A    between atoms: C_20  and  N_22
REMARK    6  A    between atoms: C_23  and  O_25
REMARK    7  A    between atoms: O_25  and  C_26
REMARK    8  A    between atoms: C_26  and  C_28
REMARK                            x       y       z     vdW  Elec       q    Type
REMARK                         _______ _______ _______ _____ _____    ______ ____
ROOT
ATOM      1  C   UNL     1      35.253 -20.279 -20.289  0.00  0.00    -0.002 C 
ATOM      2  C   UNL     1      34.015 -22.143 -18.640  0.00  0.00    +0.054 C 
ATOM      3  C   UNL     1      33.866 -20.377 -20.282  0.00  0.00    -0.002 C 
ATOM      4  C   UNL     1      36.027 -21.103 -19.480  0.00  0.00    -0.002 C 
ATOM      5  C   UNL     1      33.246 -21.312 -19.455  0.00  0.00    +0.004 C 
ATOM      6  C   UNL     1      35.406 -22.038 -18.653  0.00  0.00    +0.004 C 
ENDROOT
BRANCH   2   9
ATOM      7  O   UNL     1      33.403 -24.319 -18.093  0.00  0.00    -0.270 OA
ATOM      8  N   UNL     1      32.761 -22.607 -16.621  0.00  0.00    -0.279 N 
ATOM      9  C   UNL     1      33.367 -23.118 -17.779  0.00  0.00    +0.250 C 
ATOM     10  H   UNL     1      32.815 -21.630 -16.507  0.00  0.00    +0.155 HD
BRANCH   8  11
ATOM     11  C   UNL     1      32.085 -23.310 -15.596  0.00  0.00    +0.064 C 
ATOM     12  C   UNL     1      30.700 -23.375 -15.587  0.00  0.00    +0.055 C 
ATOM     13  C   UNL     1      32.841 -23.927 -14.612  0.00  0.00    +0.016 C 
ATOM     14  C   UNL     1      30.056 -24.075 -14.566  0.00  0.00    +0.015 C 
ATOM     15  C   UNL     1      32.197 -24.626 -13.591  0.00  0.00    +0.001 C 
ATOM     16  C   UNL     1      30.804 -24.700 -13.568  0.00  0.00    +0.001 C 
BRANCH  12  17
ATOM     17  N   UNL     1      29.923 -22.750 -16.587  0.00  0.00    -0.356 N 
ATOM     18  H   UNL     1      30.226 -21.904 -16.988  0.00  0.00    +0.142 HD
ATOM     19  H   UNL     1      29.079 -23.161 -16.883  0.00  0.00    +0.142 HD
ENDBRANCH  12  17
ENDBRANCH   8  11
ENDBRANCH   2   9
BRANCH   1  20
ATOM     20  C   UNL     1      35.922 -19.271 -21.179  0.00  0.00    +0.119 C 
BRANCH  20  22
ATOM     21  O   UNL     1      34.988 -19.916 -23.852  0.00  0.00    -0.226 OA
ATOM     22  N   UNL     1      34.968 -18.543 -21.983  0.00  0.00    -0.267 N 
ATOM     23  C   UNL     1      34.584 -18.928 -23.250  0.00  0.00    +0.402 C 
ATOM     24  H   UNL     1      34.570 -17.726 -21.605  0.00  0.00    +0.153 HD
BRANCH  23  25
ATOM     25  O   UNL     1      33.673 -18.037 -23.745  0.00  0.00    -0.430 OA
BRANCH  25  26
ATOM     26  C   UNL     1      34.104 -17.264 -24.871  0.00  0.00    +0.238 C 
BRANCH  26  28
ATOM     27  N   UNL     1      33.218 -13.620 -25.246  0.00  0.00    -0.243 NA
ATOM     28  C   UNL     1      33.948 -15.805 -24.552  0.00  0.00    +0.040 C 
ATOM     29  C   UNL     1      34.366 -15.303 -23.332  0.00  0.00    +0.002 C 
ATOM     30  C   UNL     1      33.387 -14.943 -25.469  0.00  0.00    +0.098 C 
ATOM     31  C   UNL     1      34.209 -13.949 -23.065  0.00  0.00    +0.020 C 
ATOM     32  C   UNL     1      33.635 -13.156 -24.046  0.00  0.00    +0.099 C 
ENDBRANCH  26  28
ENDBRANCH  25  26
ENDBRANCH  23  25
ENDBRANCH  20  22
ENDBRANCH   1  20
TORSDOF 8
ENDMDL
MODEL 2
REMARK VINA RESULT:     -11.3      0.559      1.264
REMARK  Name = 4261
REMARK  8 active torsions:
REMARK  status: ('A' for Active; 'I' for Inactive)
REMARK    1  A    between atoms: C_1  and  C_20
REMARK    2  A    between atoms: C_2  and  C_9
REMARK    3  A    between atoms: N_8  and  C_11
REMARK    4  A    between atoms: C_12  and  N_17
REMARK    5  A    between atoms: C_20  and  N_22
REMARK    6  A    between atoms: C_23  and  O_25
REMARK    7  A    between atoms: O_25  and  C_26
REMARK    8  A    between atoms: C_26  and  C_28
REMARK                            x       y       z     vdW  Elec       q    Type
REMARK                         _______ _______ _______ _____ _____    ______ ____
ROOT
ATOM      1  C   UNL     1      35.262 -20.298 -20.319  0.00  0.00    -0.002 C 
ATOM      2  C   UNL     1      33.994 -22.116 -18.641  0.00  0.00    +0.054 C 
ATOM      3  C   UNL     1      33.874 -20.372 -20.308  0.00  0.00    -0.002 C 
ATOM      4  C   UNL     1      36.023 -21.125 -19.500  0.00  0.00    -0.002 C 
ATOM      5  C   UNL     1      33.238 -21.283 -19.466  0.00  0.00    +0.004 C 
ATOM      6  C   UNL     1      35.387 -22.036 -18.658  0.00  0.00    +0.004 C 
ENDROOT
BRANCH   2   9
ATOM      7  O   UNL     1      33.464 -24.283 -17.981  0.00  0.00    -0.270 OA
ATOM      8  N   UNL     1      32.596 -22.514 -16.705  0.00  0.00    -0.279 N 
ATOM      9  C   UNL     1      33.330 -23.067 -17.764  0.00  0.00    +0.250 C 
ATOM     10  H   UNL     1      32.582 -21.531 -16.662  0.00  0.00    +0.155 HD
BRANCH   8  11
ATOM     11  C   UNL     1      31.873 -23.185 -15.689  0.00  0.00    +0.064 C 
ATOM     12  C   UNL     1      32.485 -23.501 -14.487  0.00  0.00    +0.055 C 
ATOM     13  C   UNL     1      30.548 -23.512 -15.931  0.00  0.00    +0.016 C 
ATOM     14  C   UNL     1      31.752 -24.163 -13.500  0.00  0.00    +0.015 C 
ATOM     15  C   UNL     1      29.816 -24.173 -14.945  0.00  0.00    +0.001 C 
ATOM     16  C   UNL     1      30.418 -24.498 -13.730  0.00  0.00    +0.001 C 
BRANCH  12  17
ATOM     17  N   UNL     1      33.835 -23.170 -14.232  0.00  0.00    -0.356 N 
ATOM     18  H   UNL     1      34.394 -23.771 -13.689  0.00  0.00    +0.142 HD
ATOM     19  H   UNL     1      34.215 -22.339 -14.598  0.00  0.00    +0.142 HD
ENDBRANCH  12  17
ENDBRANCH   8  11
ENDBRANCH   2   9
BRANCH   1  20
ATOM     20  C   UNL     1      35.947 -19.316 -21.224  0.00  0.00    +0.119 C 
BRANCH  20  22
ATOM     21  O   UNL     1      34.938 -19.954 -23.872  0.00  0.00    -0.226 OA
ATOM     22  N   UNL     1      35.003 -18.563 -22.018  0.00  0.00    -0.267 N 
ATOM     23  C   UNL     1      34.580 -18.947 -23.272  0.00  0.00    +0.402 C 
ATOM     24  H   UNL     1      34.641 -17.729 -21.640  0.00  0.00    +0.153 HD
BRANCH  23  25
ATOM     25  O   UNL     1      33.691 -18.030 -23.759  0.00  0.00    -0.430 OA
BRANCH  25  26
ATOM     26  C   UNL     1      34.155 -17.230 -24.853  0.00  0.00    +0.238 C 
BRANCH  26  28
ATOM     27  N   UNL     1      33.229 -13.589 -25.150  0.00  0.00    -0.243 NA
ATOM     28  C   UNL     1      33.987 -15.780 -24.505  0.00  0.00    +0.040 C 
ATOM     29  C   UNL     1      34.411 -15.297 -23.279  0.00  0.00    +0.002 C 
ATOM     30  C   UNL     1      33.409 -14.906 -25.400  0.00  0.00    +0.098 C 
ATOM     31  C   UNL     1      34.243 -13.949 -22.985  0.00  0.00    +0.020 C 
ATOM     32  C   UNL     1      33.651 -13.144 -23.945  0.00  0.00    +0.099 C 
ENDBRANCH  26  28
ENDBRANCH  25  26
ENDBRANCH  23  25
ENDBRANCH  20  22
ENDBRANCH   1  20
TORSDOF 8
ENDMDL
MODEL 3
REMARK VINA RESULT:     -11.2      1.744      2.567
REMARK  Name = 4261
REMARK  8 active torsions:
REMARK  status: ('A' for Active; 'I' for Inactive)
REMARK    1  A    between atoms: C_1  and  C_20
REMARK    2  A    between atoms: C_2  and  C_9
REMARK    3  A    between atoms: N_8  and  C_11
REMARK    4  A    between atoms: C_12  and  N_17
REMARK    5  A    between atoms: C_20  and  N_22
REMARK    6  A    between atoms: C_23  and  O_25
REMARK    7  A    between atoms: O_25  and  C_26
REMARK    8  A    between atoms: C_26  and  C_28
REMARK                            x       y       z     vdW  Elec       q    Type
REMARK                         _______ _______ _______ _____ _____    ______ ____
ROOT
ATOM      1  C   UNL     1      35.079 -20.282 -20.403  0.00  0.00    -0.002 C 
ATOM      2  C   UNL     1      33.902 -22.096 -18.655  0.00  0.00    +0.054 C 
ATOM      3  C   UNL     1      35.883 -21.099 -19.615  0.00  0.00    -0.002 C 
ATOM      4  C   UNL     1      33.694 -20.364 -20.325  0.00  0.00    -0.002 C 
ATOM      5  C   UNL     1      35.292 -22.009 -18.739  0.00  0.00    +0.004 C 
ATOM      6  C   UNL     1      33.103 -21.273 -19.449  0.00  0.00    +0.004 C 
ENDROOT
BRANCH   2   9
ATOM      7  O   UNL     1      33.497 -24.257 -17.897  0.00  0.00    -0.270 OA
ATOM      8  N   UNL     1      32.507 -22.487 -16.716  0.00  0.00    -0.279 N 
ATOM      9  C   UNL     1      33.287 -23.043 -17.740  0.00  0.00    +0.250 C 
ATOM     10  H   UNL     1      32.433 -21.505 -16.720  0.00  0.00    +0.155 HD
BRANCH   8  11
ATOM     11  C   UNL     1      31.814 -23.151 -15.675  0.00  0.00    +0.064 C 
ATOM     12  C   UNL     1      32.455 -23.447 -14.483  0.00  0.00    +0.055 C 
ATOM     13  C   UNL     1      30.487 -23.494 -15.883  0.00  0.00    +0.016 C 
ATOM     14  C   UNL     1      31.751 -24.103 -13.473  0.00  0.00    +0.015 C 
ATOM     15  C   UNL     1      29.783 -24.149 -14.873  0.00  0.00    +0.001 C 
ATOM     16  C   UNL     1      30.416 -24.454 -13.668  0.00  0.00    +0.001 C 
BRANCH  12  17
ATOM     17  N   UNL     1      33.807 -23.100 -14.264  0.00  0.00    -0.356 N 
ATOM     18  H   UNL     1      34.211 -22.355 -14.764  0.00  0.00    +0.142 HD
ATOM     19  H   UNL     1      34.345 -23.603 -13.611  0.00  0.00    +0.142 HD
ENDBRANCH  12  17
ENDBRANCH   8  11
ENDBRANCH   2   9
BRANCH   1  20
ATOM     20  C   UNL     1      35.715 -19.304 -21.348  0.00  0.00    +0.119 C 
BRANCH  20  22
ATOM     21  O   UNL     1      35.226 -17.201 -23.291  0.00  0.00    -0.226 OA
ATOM     22  N   UNL     1      35.279 -17.949 -21.096  0.00  0.00    -0.267 N 
ATOM     23  C   UNL     1      35.073 -17.016 -22.088  0.00  0.00    +0.402 C 
ATOM     24  H   UNL     1      35.121 -17.678 -20.162  0.00  0.00    +0.153 HD
BRANCH  23  25
ATOM     25  O   UNL     1      34.667 -15.835 -21.532  0.00  0.00    -0.430 OA
BRANCH  25  26
ATOM     26  C   UNL     1      34.507 -14.739 -22.440  0.00  0.00    +0.238 C 
BRANCH  26  28
ATOM     27  N   UNL     1      32.199 -11.774 -22.153  0.00  0.00    -0.243 NA
ATOM     28  C   UNL     1      33.496 -13.781 -21.879  0.00  0.00    +0.040 C 
ATOM     29  C   UNL     1      32.943 -13.995 -20.629  0.00  0.00    +0.002 C 
ATOM     30  C   UNL     1      33.103 -12.674 -22.600  0.00  0.00    +0.098 C 
ATOM     31  C   UNL     1      32.011 -13.091 -20.135  0.00  0.00    +0.020 C 
ATOM     32  C   UNL     1      31.675 -12.006 -20.929  0.00  0.00    +0.099 C 
ENDBRANCH  26  28
ENDBRANCH  25  26
ENDBRANCH  23  25
ENDBRANCH  20  22
ENDBRANCH   1  20
TORSDOF 8
ENDMDL
MODEL 4
REMARK VINA RESULT:     -11.0      4.373     11.791
REMARK  Name = 4261
REMARK  8 active torsions:
REMARK  status: ('A' for Active; 'I' for Inactive)
REMARK    1  A    between atoms: C_1  and  C_20
REMARK    2  A    between atoms: C_2  and  C_9
REMARK    3  A    between atoms: N_8  and  C_11
REMARK    4  A    between atoms: C_12  and  N_17
REMARK    5  A    between atoms: C_20  and  N_22
REMARK    6  A    between atoms: C_23  and  O_25
REMARK    7  A    between atoms: O_25  and  C_26
REMARK    8  A    between atoms: C_26  and  C_28
REMARK                            x       y       z     vdW  Elec       q    Type
REMARK                         _______ _______ _______ _____ _____    ______ ____
ROOT
ATOM      1  C   UNL     1      34.007 -14.202 -22.668  0.00  0.00    -0.002 C 
ATOM      2  C   UNL     1      32.574 -11.934 -21.936  0.00  0.00    +0.054 C 
ATOM      3  C   UNL     1      33.982 -13.100 -23.516  0.00  0.00    -0.002 C 
ATOM      4  C   UNL     1      33.323 -14.181 -21.458  0.00  0.00    -0.002 C 
ATOM      5  C   UNL     1      33.264 -11.963 -23.148  0.00  0.00    +0.004 C 
ATOM      6  C   UNL     1      32.605 -13.044 -21.090  0.00  0.00    +0.004 C 
ENDROOT
BRANCH   2   9
ATOM      7  O   UNL     1      30.840 -10.873 -20.806  0.00  0.00    -0.270 OA
ATOM      8  N   UNL     1      32.305  -9.532 -22.057  0.00  0.00    -0.279 N 
ATOM      9  C   UNL     1      31.824 -10.749 -21.553  0.00  0.00    +0.250 C 
ATOM     10  H   UNL     1      33.097  -9.593 -22.638  0.00  0.00    +0.155 HD
BRANCH   8  11
ATOM     11  C   UNL     1      31.802  -8.227 -21.837  0.00  0.00    +0.064 C 
ATOM     12  C   UNL     1      32.044  -7.575 -20.639  0.00  0.00    +0.055 C 
ATOM     13  C   UNL     1      31.066  -7.627 -22.848  0.00  0.00    +0.016 C 
ATOM     14  C   UNL     1      31.537  -6.289 -20.446  0.00  0.00    +0.015 C 
ATOM     15  C   UNL     1      30.560  -6.342 -22.654  0.00  0.00    +0.001 C 
ATOM     16  C   UNL     1      30.795  -5.673 -21.453  0.00  0.00    +0.001 C 
BRANCH  12  17
ATOM     17  N   UNL     1      32.794  -8.179 -19.605  0.00  0.00    -0.356 N 
ATOM     18  H   UNL     1      32.765  -9.156 -19.484  0.00  0.00    +0.142 HD
ATOM     19  H   UNL     1      33.344  -7.624 -19.007  0.00  0.00    +0.142 HD
ENDBRANCH  12  17
ENDBRANCH   8  11
ENDBRANCH   2   9
BRANCH   1  20
ATOM     20  C   UNL     1      34.782 -15.425 -23.063  0.00  0.00    +0.119 C 
BRANCH  20  22
ATOM     21  O   UNL     1      34.986 -18.322 -23.069  0.00  0.00    -0.226 OA
ATOM     22  N   UNL     1      35.023 -16.298 -21.937  0.00  0.00    -0.267 N 
ATOM     23  C   UNL     1      35.105 -17.671 -22.038  0.00  0.00    +0.402 C 
ATOM     24  H   UNL     1      35.136 -15.890 -21.048  0.00  0.00    +0.153 HD
BRANCH  23  25
ATOM     25  O   UNL     1      35.339 -18.209 -20.803  0.00  0.00    -0.430 OA
BRANCH  25  26
ATOM     26  C   UNL     1      36.039 -19.459 -20.790  0.00  0.00    +0.238 C 
BRANCH  26  28
ATOM     27  N   UNL     1      35.118 -22.392 -18.611  0.00  0.00    -0.243 NA
ATOM     28  C   UNL     1      35.209 -20.477 -20.065  0.00  0.00    +0.040 C 
ATOM     29  C   UNL     1      33.829 -20.461 -20.166  0.00  0.00    +0.002 C 
ATOM     30  C   UNL     1      35.807 -21.446 -19.288  0.00  0.00    +0.098 C 
ATOM     31  C   UNL     1      33.086 -21.417 -19.484  0.00  0.00    +0.020 C 
ATOM     32  C   UNL     1      33.772 -22.353 -18.726  0.00  0.00    +0.099 C 
ENDBRANCH  26  28
ENDBRANCH  25  26
ENDBRANCH  23  25
ENDBRANCH  20  22
ENDBRANCH   1  20
TORSDOF 8
ENDMDL
MODEL 5
REMARK VINA RESULT:     -10.6      3.117      3.950
REMARK  Name = 4261
REMARK  8 active torsions:
REMARK  status: ('A' for Active; 'I' for Inactive)
REMARK    1  A    between atoms: C_1  and  C_20
REMARK    2  A    between atoms: C_2  and  C_9
REMARK    3  A    between atoms: N_8  and  C_11
REMARK    4  A    between atoms: C_12  and  N_17
REMARK    5  A    between atoms: C_20  and  N_22
REMARK    6  A    between atoms: C_23  and  O_25
REMARK    7  A    between atoms: O_25  and  C_26
REMARK    8  A    between atoms: C_26  and  C_28
REMARK                            x       y       z     vdW  Elec       q    Type
REMARK                         _______ _______ _______ _____ _____    ______ ____
ROOT
ATOM      1  C   UNL     1      34.667 -21.511 -19.277  0.00  0.00    -0.002 C 
ATOM      2  C   UNL     1      35.004 -22.678 -16.776  0.00  0.00    +0.054 C 
ATOM      3  C   UNL     1      35.914 -21.474 -18.663  0.00  0.00    -0.002 C 
ATOM      4  C   UNL     1      33.587 -22.126 -18.653  0.00  0.00    -0.002 C 
ATOM      5  C   UNL     1      36.083 -22.059 -17.409  0.00  0.00    +0.004 C 
ATOM      6  C   UNL     1      33.756 -22.711 -17.399  0.00  0.00    +0.004 C 
ENDROOT
BRANCH   2   9
ATOM      7  O   UNL     1      34.244 -23.248 -14.653  0.00  0.00    -0.270 OA
ATOM      8  N   UNL     1      36.420 -23.903 -15.241  0.00  0.00    -0.279 N 
ATOM      9  C   UNL     1      35.180 -23.286 -15.468  0.00  0.00    +0.250 C 
ATOM     10  H   UNL     1      37.064 -23.851 -15.983  0.00  0.00    +0.155 HD
BRANCH   8  11
ATOM     11  C   UNL     1      36.864 -24.590 -14.086  0.00  0.00    +0.064 C 
ATOM     12  C   UNL     1      36.642 -25.951 -13.952  0.00  0.00    +0.055 C 
ATOM     13  C   UNL     1      37.523 -23.867 -13.103  0.00  0.00    +0.016 C 
ATOM     14  C   UNL     1      37.089 -26.606 -12.804  0.00  0.00    +0.015 C 
ATOM     15  C   UNL     1      37.970 -24.522 -11.956  0.00  0.00    +0.001 C 
ATOM     16  C   UNL     1      37.753 -25.892 -11.806  0.00  0.00    +0.001 C 
BRANCH  12  17
ATOM     17  N   UNL     1      35.973 -26.694 -14.949  0.00  0.00    -0.356 N 
ATOM     18  H   UNL     1      36.421 -26.881 -15.806  0.00  0.00    +0.142 HD
ATOM     19  H   UNL     1      35.060 -27.024 -14.788  0.00  0.00    +0.142 HD
ENDBRANCH  12  17
ENDBRANCH   8  11
ENDBRANCH   2   9
BRANCH   1  20
ATOM     20  C   UNL     1      34.485 -20.883 -20.628  0.00  0.00    +0.119 C 
BRANCH  20  22
ATOM     21  O   UNL     1      34.262 -18.977 -22.808  0.00  0.00    -0.226 OA
ATOM     22  N   UNL     1      34.898 -19.498 -20.640  0.00  0.00    -0.267 N 
ATOM     23  C   UNL     1      34.750 -18.665 -21.728  0.00  0.00    +0.402 C 
ATOM     24  H   UNL     1      35.307 -19.128 -19.824  0.00  0.00    +0.153 HD
BRANCH  23  25
ATOM     25  O   UNL     1      35.234 -17.423 -21.426  0.00  0.00    -0.430 OA
BRANCH  25  26
ATOM     26  C   UNL     1      35.368 -16.519 -22.529  0.00  0.00    +0.238 C 
BRANCH  26  28
ATOM     27  N   UNL     1      33.006 -13.675 -23.259  0.00  0.00    -0.243 NA
ATOM     28  C   UNL     1      34.456 -15.346 -22.314  0.00  0.00    +0.040 C 
ATOM     29  C   UNL     1      34.223 -14.861 -21.040  0.00  0.00    +0.002 C 
ATOM     30  C   UNL     1      33.837 -14.734 -23.383  0.00  0.00    +0.098 C 
ATOM     31  C   UNL     1      33.374 -13.773 -20.872  0.00  0.00    +0.020 C 
ATOM     32  C   UNL     1      32.795 -13.221 -22.003  0.00  0.00    +0.099 C 
ENDBRANCH  26  28
ENDBRANCH  25  26
ENDBRANCH  23  25
ENDBRANCH  20  22
ENDBRANCH   1  20
TORSDOF 8
ENDMDL
MODEL 6
REMARK VINA RESULT:     -10.6      1.626     10.251
REMARK  Name = 4261
REMARK  8 active torsions:
REMARK  status: ('A' for Active; 'I' for Inactive)
REMARK    1  A    between atoms: C_1  and  C_20
REMARK    2  A    between atoms: C_2  and  C_9
REMARK    3  A    between atoms: N_8  and  C_11
REMARK    4  A    between atoms: C_12  and  N_17
REMARK    5  A    between atoms: C_20  and  N_22
REMARK    6  A    between atoms: C_23  and  O_25
REMARK    7  A    between atoms: O_25  and  C_26
REMARK    8  A    between atoms: C_26  and  C_28
REMARK                            x       y       z     vdW  Elec       q    Type
REMARK                         _______ _______ _______ _____ _____    ______ ____
ROOT
ATOM      1  C   UNL     1      36.082 -20.407 -19.901  0.00  0.00    -0.002 C 
ATOM      2  C   UNL     1      35.014 -18.839 -21.935  0.00  0.00    +0.054 C 
ATOM      3  C   UNL     1      36.892 -19.487 -20.558  0.00  0.00    -0.002 C 
ATOM      4  C   UNL     1      34.744 -20.551 -20.251  0.00  0.00    -0.002 C 
ATOM      5  C   UNL     1      36.356 -18.700 -21.577  0.00  0.00    +0.004 C 
ATOM      6  C   UNL     1      34.208 -19.765 -21.270  0.00  0.00    +0.004 C 
ENDROOT
BRANCH   2   9
ATOM      7  O   UNL     1      33.842 -18.571 -23.925  0.00  0.00    -0.270 OA
ATOM      8  N   UNL     1      34.647 -16.636 -22.869  0.00  0.00    -0.279 N 
ATOM      9  C   UNL     1      34.457 -18.020 -22.998  0.00  0.00    +0.250 C 
ATOM     10  H   UNL     1      35.156 -16.347 -22.078  0.00  0.00    +0.155 HD
BRANCH   8  11
ATOM     11  C   UNL     1      34.200 -15.602 -23.726  0.00  0.00    +0.064 C 
ATOM     12  C   UNL     1      34.046 -14.311 -23.245  0.00  0.00    +0.055 C 
ATOM     13  C   UNL     1      33.926 -15.915 -25.048  0.00  0.00    +0.016 C 
ATOM     14  C   UNL     1      33.604 -13.309 -24.109  0.00  0.00    +0.015 C 
ATOM     15  C   UNL     1      33.485 -14.913 -25.911  0.00  0.00    +0.001 C 
ATOM     16  C   UNL     1      33.324 -13.609 -25.442  0.00  0.00    +0.001 C 
BRANCH  12  17
ATOM     17  N   UNL     1      34.325 -13.984 -21.899  0.00  0.00    -0.356 N 
ATOM     18  H   UNL     1      33.729 -14.302 -21.183  0.00  0.00    +0.142 HD
ATOM     19  H   UNL     1      35.113 -13.438 -21.679  0.00  0.00    +0.142 HD
ENDBRANCH  12  17
ENDBRANCH   8  11
ENDBRANCH   2   9
BRANCH   1  20
ATOM     20  C   UNL     1      36.658 -21.252 -18.803  0.00  0.00    +0.119 C 
BRANCH  20  22
ATOM     21  O   UNL     1      36.469 -22.070 -16.022  0.00  0.00    -0.226 OA
ATOM     22  N   UNL     1      35.659 -22.102 -18.195  0.00  0.00    -0.267 N 
ATOM     23  C   UNL     1      35.651 -22.437 -16.858  0.00  0.00    +0.402 C 
ATOM     24  H   UNL     1      34.944 -22.462 -18.769  0.00  0.00    +0.153 HD
BRANCH  23  25
ATOM     25  O   UNL     1      34.584 -23.250 -16.594  0.00  0.00    -0.430 OA
BRANCH  25  26
ATOM     26  C   UNL     1      34.123 -23.255 -15.238  0.00  0.00    +0.238 C 
BRANCH  26  28
ATOM     27  N   UNL     1      30.578 -22.916 -16.468  0.00  0.00    -0.243 NA
ATOM     28  C   UNL     1      32.625 -23.173 -15.230  0.00  0.00    +0.040 C 
ATOM     29  C   UNL     1      31.921 -23.271 -14.043  0.00  0.00    +0.002 C 
ATOM     30  C   UNL     1      31.926 -22.998 -16.405  0.00  0.00    +0.098 C 
ATOM     31  C   UNL     1      30.534 -23.190 -14.067  0.00  0.00    +0.020 C 
ATOM     32  C   UNL     1      29.915 -23.015 -15.294  0.00  0.00    +0.099 C 
ENDBRANCH  26  28
ENDBRANCH  25  26
ENDBRANCH  23  25
ENDBRANCH  20  22
ENDBRANCH   1  20
TORSDOF 8
ENDMDL
MODEL 7
REMARK VINA RESULT:     -10.6      4.209     11.751
REMARK  Name = 4261
REMARK  8 active torsions:
REMARK  status: ('A' for Active; 'I' for Inactive)
REMARK    1  A    between atoms: C_1  and  C_20
REMARK    2  A    between atoms: C_2  and  C_9
REMARK    3  A    between atoms: N_8  and  C_11
REMARK    4  A    between atoms: C_12  and  N_17
REMARK    5  A    between atoms: C_20  and  N_22
REMARK    6  A    between atoms: C_23  and  O_25
REMARK    7  A    between atoms: O_25  and  C_26
REMARK    8  A    between atoms: C_26  and  C_28
REMARK                            x       y       z     vdW  Elec       q    Type
REMARK                         _______ _______ _______ _____ _____    ______ ____
ROOT
ATOM      1  C   UNL     1      33.540 -14.287 -24.944  0.00  0.00    -0.002 C 
ATOM      2  C   UNL     1      33.760 -11.671 -24.027  0.00  0.00    +0.054 C 
ATOM      3  C   UNL     1      33.655 -14.044 -23.580  0.00  0.00    -0.002 C 
ATOM      4  C   UNL     1      33.534 -13.236 -25.854  0.00  0.00    -0.002 C 
ATOM      5  C   UNL     1      33.765 -12.732 -23.120  0.00  0.00    +0.004 C 
ATOM      6  C   UNL     1      33.644 -11.924 -25.394  0.00  0.00    +0.004 C 
ENDROOT
BRANCH   2   9
ATOM      7  O   UNL     1      34.921  -9.672 -23.773  0.00  0.00    -0.270 OA
ATOM      8  N   UNL     1      32.757  -9.795 -22.872  0.00  0.00    -0.279 N 
ATOM      9  C   UNL     1      33.877 -10.304 -23.547  0.00  0.00    +0.250 C 
ATOM     10  H   UNL     1      32.001 -10.417 -22.769  0.00  0.00    +0.155 HD
BRANCH   8  11
ATOM     11  C   UNL     1      32.573  -8.504 -22.321  0.00  0.00    +0.064 C 
ATOM     12  C   UNL     1      32.166  -8.356 -21.005  0.00  0.00    +0.055 C 
ATOM     13  C   UNL     1      32.809  -7.403 -23.130  0.00  0.00    +0.016 C 
ATOM     14  C   UNL     1      31.990  -7.073 -20.484  0.00  0.00    +0.015 C 
ATOM     15  C   UNL     1      32.634  -6.121 -22.610  0.00  0.00    +0.001 C 
ATOM     16  C   UNL     1      32.224  -5.956 -21.287  0.00  0.00    +0.001 C 
BRANCH  12  17
ATOM     17  N   UNL     1      31.924  -9.473 -20.174  0.00  0.00    -0.356 N 
ATOM     18  H   UNL     1      31.733 -10.351 -20.575  0.00  0.00    +0.142 HD
ATOM     19  H   UNL     1      31.946  -9.372 -19.196  0.00  0.00    +0.142 HD
ENDBRANCH  12  17
ENDBRANCH   8  11
ENDBRANCH   2   9
BRANCH   1  20
ATOM     20  C   UNL     1      33.420 -15.699 -25.439  0.00  0.00    +0.119 C 
BRANCH  20  22
ATOM     21  O   UNL     1      32.845 -18.478 -24.822  0.00  0.00    -0.226 OA
ATOM     22  N   UNL     1      34.217 -16.616 -24.657  0.00  0.00    -0.267 N 
ATOM     23  C   UNL     1      33.861 -17.925 -24.416  0.00  0.00    +0.402 C 
ATOM     24  H   UNL     1      35.063 -16.286 -24.274  0.00  0.00    +0.153 HD
BRANCH  23  25
ATOM     25  O   UNL     1      34.818 -18.528 -23.648  0.00  0.00    -0.430 OA
BRANCH  25  26
ATOM     26  C   UNL     1      35.032 -17.955 -22.353  0.00  0.00    +0.238 C 
BRANCH  26  28
ATOM     27  N   UNL     1      36.471 -20.367 -19.840  0.00  0.00    -0.243 NA
ATOM     28  C   UNL     1      35.118 -19.057 -21.338  0.00  0.00    +0.040 C 
ATOM     29  C   UNL     1      33.986 -19.762 -20.967  0.00  0.00    +0.002 C 
ATOM     30  C   UNL     1      36.325 -19.386 -20.759  0.00  0.00    +0.098 C 
ATOM     31  C   UNL     1      34.096 -20.778 -20.025  0.00  0.00    +0.020 C 
ATOM     32  C   UNL     1      35.350 -21.039 -19.496  0.00  0.00    +0.099 C 
ENDBRANCH  26  28
ENDBRANCH  25  26
ENDBRANCH  23  25
ENDBRANCH  20  22
ENDBRANCH   1  20
TORSDOF 8
ENDMDL
MODEL 8
REMARK VINA RESULT:     -10.6      2.190      9.952
REMARK  Name = 4261
REMARK  8 active torsions:
REMARK  status: ('A' for Active; 'I' for Inactive)
REMARK    1  A    between atoms: C_1  and  C_20
REMARK    2  A    between atoms: C_2  and  C_9
REMARK    3  A    between atoms: N_8  and  C_11
REMARK    4  A    between atoms: C_12  and  N_17
REMARK    5  A    between atoms: C_20  and  N_22
REMARK    6  A    between atoms: C_23  and  O_25
REMARK    7  A    between atoms: O_25  and  C_26
REMARK    8  A    between atoms: C_26  and  C_28
REMARK                            x       y       z     vdW  Elec       q    Type
REMARK                         _______ _______ _______ _____ _____    ______ ____
ROOT
ATOM      1  C   UNL     1      34.363 -22.724 -17.538  0.00  0.00    -0.002 C 
ATOM      2  C   UNL     1      35.079 -20.927 -19.535  0.00  0.00    +0.054 C 
ATOM      3  C   UNL     1      33.400 -22.269 -18.431  0.00  0.00    -0.002 C 
ATOM      4  C   UNL     1      35.681 -22.290 -17.633  0.00  0.00    -0.002 C 
ATOM      5  C   UNL     1      33.759 -21.368 -19.433  0.00  0.00    +0.004 C 
ATOM      6  C   UNL     1      36.040 -21.389 -18.635  0.00  0.00    +0.004 C 
ENDROOT
BRANCH   2   9
ATOM      7  O   UNL     1      36.652 -19.709 -20.740  0.00  0.00    -0.270 OA
ATOM      8  N   UNL     1      34.398 -19.479 -21.351  0.00  0.00    -0.279 N 
ATOM      9  C   UNL     1      35.453 -19.987 -20.579  0.00  0.00    +0.250 C 
ATOM     10  H   UNL     1      33.498 -19.792 -21.104  0.00  0.00    +0.155 HD
BRANCH   8  11
ATOM     11  C   UNL     1      34.458 -18.575 -22.440  0.00  0.00    +0.064 C 
ATOM     12  C   UNL     1      34.855 -17.263 -22.240  0.00  0.00    +0.055 C 
ATOM     13  C   UNL     1      34.112 -19.039 -23.699  0.00  0.00    +0.016 C 
ATOM     14  C   UNL     1      34.907 -16.392 -23.328  0.00  0.00    +0.015 C 
ATOM     15  C   UNL     1      34.164 -18.168 -24.787  0.00  0.00    +0.001 C 
ATOM     16  C   UNL     1      34.561 -16.844 -24.601  0.00  0.00    +0.001 C 
BRANCH  12  17
ATOM     17  N   UNL     1      35.211 -16.783 -20.959  0.00  0.00    -0.356 N 
ATOM     18  H   UNL     1      35.192 -17.390 -20.185  0.00  0.00    +0.142 HD
ATOM     19  H   UNL     1      35.477 -15.843 -20.842  0.00  0.00    +0.142 HD
ENDBRANCH  12  17
ENDBRANCH   8  11
ENDBRANCH   2   9
BRANCH   1  20
ATOM     20  C   UNL     1      33.977 -23.696 -16.461  0.00  0.00    +0.119 C 
BRANCH  20  22
ATOM     21  O   UNL     1      33.347 -24.488 -13.738  0.00  0.00    -0.226 OA
ATOM     22  N   UNL     1      32.944 -23.166 -15.600  0.00  0.00    -0.267 N 
ATOM     23  C   UNL     1      32.718 -23.607 -14.314  0.00  0.00    +0.402 C 
ATOM     24  H   UNL     1      32.369 -22.448 -15.953  0.00  0.00    +0.153 HD
BRANCH  23  25
ATOM     25  O   UNL     1      31.678 -22.912 -13.765  0.00  0.00    -0.430 OA
BRANCH  25  26
ATOM     26  C   UNL     1      30.495 -23.673 -13.488  0.00  0.00    +0.238 C 
BRANCH  26  28
ATOM     27  N   UNL     1      28.211 -22.157 -16.074  0.00  0.00    -0.243 NA
ATOM     28  C   UNL     1      29.556 -23.558 -14.653  0.00  0.00    +0.040 C 
ATOM     29  C   UNL     1      29.172 -24.683 -15.361  0.00  0.00    +0.002 C 
ATOM     30  C   UNL     1      29.060 -22.330 -15.036  0.00  0.00    +0.098 C 
ATOM     31  C   UNL     1      28.301 -24.546 -16.435  0.00  0.00    +0.020 C 
ATOM     32  C   UNL     1      27.852 -23.273 -16.749  0.00  0.00    +0.099 C 
ENDBRANCH  26  28
ENDBRANCH  25  26
ENDBRANCH  23  25
ENDBRANCH  20  22
ENDBRANCH   1  20
TORSDOF 8
ENDMDL
MODEL 9
REMARK VINA RESULT:     -10.6      3.719      7.327
REMARK  Name = 4261
REMARK  8 active torsions:
REMARK  status: ('A' for Active; 'I' for Inactive)
REMARK    1  A    between atoms: C_1  and  C_20
REMARK    2  A    between atoms: C_2  and  C_9
REMARK    3  A    between atoms: N_8  and  C_11
REMARK    4  A    between atoms: C_12  and  N_17
REMARK    5  A    between atoms: C_20  and  N_22
REMARK    6  A    between atoms: C_23  and  O_25
REMARK    7  A    between atoms: O_25  and  C_26
REMARK    8  A    between atoms: C_26  and  C_28
REMARK                            x       y       z     vdW  Elec       q    Type
REMARK                         _______ _______ _______ _____ _____    ______ ____
ROOT
ATOM      1  C   UNL     1      33.836 -15.043 -24.671  0.00  0.00    -0.002 C 
ATOM      2  C   UNL     1      34.375 -17.487 -23.460  0.00  0.00    +0.054 C 
ATOM      3  C   UNL     1      33.438 -16.221 -25.292  0.00  0.00    -0.002 C 
ATOM      4  C   UNL     1      34.501 -15.075 -23.450  0.00  0.00    -0.002 C 
ATOM      5  C   UNL     1      33.708 -17.446 -24.685  0.00  0.00    +0.004 C 
ATOM      6  C   UNL     1      34.771 -16.300 -22.842  0.00  0.00    +0.004 C 
ENDROOT
BRANCH   2   9
ATOM      7  O   UNL     1      34.983 -19.731 -23.537  0.00  0.00    -0.270 OA
ATOM      8  N   UNL     1      34.559 -18.791 -21.428  0.00  0.00    -0.279 N 
ATOM      9  C   UNL     1      34.657 -18.765 -22.828  0.00  0.00    +0.250 C 
ATOM     10  H   UNL     1      34.290 -17.945 -21.003  0.00  0.00    +0.155 HD
BRANCH   8  11
ATOM     11  C   UNL     1      34.797 -19.874 -20.548  0.00  0.00    +0.064 C 
ATOM     12  C   UNL     1      36.076 -20.128 -20.081  0.00  0.00    +0.055 C 
ATOM     13  C   UNL     1      33.722 -20.664 -20.171  0.00  0.00    +0.016 C 
ATOM     14  C   UNL     1      36.286 -21.202 -19.214  0.00  0.00    +0.015 C 
ATOM     15  C   UNL     1      33.932 -21.736 -19.305  0.00  0.00    +0.001 C 
ATOM     16  C   UNL     1      35.214 -22.005 -18.827  0.00  0.00    +0.001 C 
BRANCH  12  17
ATOM     17  N   UNL     1      37.177 -19.327 -20.460  0.00  0.00    -0.356 N 
ATOM     18  H   UNL     1      37.891 -19.136 -19.810  0.00  0.00    +0.142 HD
ATOM     19  H   UNL     1      37.228 -18.961 -21.371  0.00  0.00    +0.142 HD
ENDBRANCH  12  17
ENDBRANCH   8  11
ENDBRANCH   2   9
BRANCH   1  20
ATOM     20  C   UNL     1      33.545 -13.723 -25.323  0.00  0.00    +0.119 C 
BRANCH  20  22
ATOM     21  O   UNL     1      34.857 -11.136 -25.457  0.00  0.00    -0.226 OA
ATOM     22  N   UNL     1      33.481 -12.647 -24.361  0.00  0.00    -0.267 N 
ATOM     23  C   UNL     1      34.142 -11.447 -24.511  0.00  0.00    +0.402 C 
ATOM     24  H   UNL     1      32.933 -12.778 -23.553  0.00  0.00    +0.153 HD
BRANCH  23  25
ATOM     25  O   UNL     1      33.882 -10.641 -23.438  0.00  0.00    -0.430 OA
BRANCH  25  26
ATOM     26  C   UNL     1      34.383  -9.302 -23.526  0.00  0.00    +0.238 C 
BRANCH  26  28
ATOM     27  N   UNL     1      31.080  -7.964 -22.300  0.00  0.00    -0.243 NA
ATOM     28  C   UNL     1      33.358  -8.358 -22.968  0.00  0.00    +0.040 C 
ATOM     29  C   UNL     1      33.708  -7.066 -22.617  0.00  0.00    +0.002 C 
ATOM     30  C   UNL     1      32.052  -8.763 -22.796  0.00  0.00    +0.098 C 
ATOM     31  C   UNL     1      32.737  -6.215 -22.103  0.00  0.00    +0.020 C 
ATOM     32  C   UNL     1      31.449  -6.707 -21.965  0.00  0.00    +0.099 C 
ENDBRANCH  26  28
ENDBRANCH  25  26
ENDBRANCH  23  25
ENDBRANCH  20  22
ENDBRANCH   1  20
TORSDOF 8
ENDMDL
