MODEL 1
REMARK VINA RESULT:     -11.8      0.000      0.000
REMARK  Name = 10172943
REMARK  7 active torsions:
REMARK  status: ('A' for Active; 'I' for Inactive)
REMARK    1  A    between atoms: O_1  and  C_3
REMARK    2  A    between atoms: O_1  and  C_19
REMARK    3  A    between atoms: C_4  and  C_11
REMARK    4  A    between atoms: C_19  and  C_20
REMARK    5  A    between atoms: C_20  and  N_21
REMARK    6  A    between atoms: C_20  and  C_25
REMARK    7  A    between atoms: C_25  and  C_27
REMARK                            x       y       z     vdW  Elec       q    Type
REMARK                         _______ _______ _______ _____ _____    ______ ____
ROOT
ATOM      1  O   UNL     1      35.054 -21.857 -19.416  0.00  0.00    -0.476 OA
ENDROOT
BRANCH   1   3
ATOM      2  N   UNL     1      37.424 -19.151 -19.998  0.00  0.00    -0.239 NA
ATOM      3  C   UNL     1      35.612 -20.731 -19.964  0.00  0.00    +0.158 C 
ATOM      4  C   UNL     1      35.565 -18.922 -21.527  0.00  0.00    +0.022 C 
ATOM      5  C   UNL     1      34.974 -20.059 -20.991  0.00  0.00    +0.040 C 
ATOM      6  C   UNL     1      36.819 -20.253 -19.502  0.00  0.00    +0.136 C 
ATOM      7  C   UNL     1      36.780 -18.511 -21.001  0.00  0.00    +0.099 C 
BRANCH   4  11
ATOM      8  N   UNL     1      33.317 -14.855 -24.997  0.00  0.00    -0.280 N 
ATOM      9  N   UNL     1      33.158 -16.048 -25.603  0.00  0.00    -0.173 NA
ATOM     10  C   UNL     1      34.196 -16.237 -23.591  0.00  0.00    +0.032 A 
ATOM     11  C   UNL     1      34.934 -18.190 -22.601  0.00  0.00    +0.002 C 
ATOM     12  C   UNL     1      33.696 -16.937 -24.750  0.00  0.00    +0.102 A 
ATOM     13  C   UNL     1      34.823 -16.787 -22.481  0.00  0.00    +0.003 C 
ATOM     14  C   UNL     1      33.937 -14.909 -23.783  0.00  0.00    +0.053 A 
ATOM     15  C   UNL     1      34.453 -18.927 -23.734  0.00  0.00    +0.002 C 
ATOM     16  C   UNL     1      33.818 -18.335 -24.849  0.00  0.00    +0.021 C 
ATOM     17  C   UNL     1      34.194 -13.700 -22.982  0.00  0.00    +0.051 C 
ATOM     18  H   UNL     1      33.011 -14.010 -25.399  0.00  0.00    +0.189 HD
ENDBRANCH   4  11
ENDBRANCH   1   3
BRANCH   1  19
ATOM     19  C   UNL     1      33.720 -21.744 -18.940  0.00  0.00    +0.184 C 
BRANCH  19  20
ATOM     20  C   UNL     1      33.411 -22.788 -17.858  0.00  0.00    -0.017 C 
BRANCH  20  21
ATOM     21  N   UNL     1      33.444 -24.122 -18.470  0.00  0.00    +0.384 N 
ATOM     22  H   UNL     1      32.526 -24.341 -18.856  0.00  0.00    -0.089 HD
ATOM     23  H   UNL     1      33.690 -24.814 -17.762  0.00  0.00    -0.089 HD
ATOM     24  H   UNL     1      34.140 -24.136 -19.215  0.00  0.00    -0.089 HD
ENDBRANCH  20  21
BRANCH  20  25
ATOM     25  C   UNL     1      34.393 -22.748 -16.657  0.00  0.00    +0.009 C 
BRANCH  25  27
ATOM     26  N   UNL     1      34.094 -25.035 -13.827  0.00  0.00    -0.312 N 
ATOM     27  C   UNL     1      33.998 -23.598 -15.516  0.00  0.00    -0.008 C 
ATOM     28  C   UNL     1      32.693 -23.721 -14.962  0.00  0.00    +0.011 C 
ATOM     29  C   UNL     1      32.781 -24.629 -13.904  0.00  0.00    +0.048 C 
ATOM     30  C   UNL     1      34.838 -24.419 -14.797  0.00  0.00    +0.058 C 
ATOM     31  C   UNL     1      31.443 -23.145 -15.259  0.00  0.00    +0.001 C 
ATOM     32  C   UNL     1      31.675 -24.990 -13.125  0.00  0.00    +0.015 C 
ATOM     33  C   UNL     1      30.328 -23.497 -14.489  0.00  0.00    +0.000 C 
ATOM     34  C   UNL     1      30.445 -24.406 -13.439  0.00  0.00    +0.001 C 
ATOM     35  H   UNL     1      34.446 -25.678 -13.170  0.00  0.00    +0.152 HD
ENDBRANCH  25  27
ENDBRANCH  20  25
ENDBRANCH  19  20
ENDBRANCH   1  19
TORSDOF 7
ENDMDL
MODEL 2
REMARK VINA RESULT:     -11.8      4.352     11.565
REMARK  Name = 10172943
REMARK  7 active torsions:
REMARK  status: ('A' for Active; 'I' for Inactive)
REMARK    1  A    between atoms: O_1  and  C_3
REMARK    2  A    between atoms: O_1  and  C_19
REMARK    3  A    between atoms: C_4  and  C_11
REMARK    4  A    between atoms: C_19  and  C_20
REMARK    5  A    between atoms: C_20  and  N_21
REMARK    6  A    between atoms: C_20  and  C_25
REMARK    7  A    between atoms: C_25  and  C_27
REMARK                            x       y       z     vdW  Elec       q    Type
REMARK                         _______ _______ _______ _____ _____    ______ ____
ROOT
ATOM      1  O   UNL     1      33.944 -13.761 -23.610  0.00  0.00    -0.476 OA
ENDROOT
BRANCH   1   3
ATOM      2  N   UNL     1      33.989 -16.913 -25.438  0.00  0.00    -0.239 NA
ATOM      3  C   UNL     1      34.118 -15.096 -23.868  0.00  0.00    +0.158 C 
ATOM      4  C   UNL     1      34.745 -17.296 -23.173  0.00  0.00    +0.022 C 
ATOM      5  C   UNL     1      34.577 -15.948 -22.881  0.00  0.00    +0.040 C 
ATOM      6  C   UNL     1      33.839 -15.608 -25.116  0.00  0.00    +0.136 C 
ATOM      7  C   UNL     1      34.439 -17.726 -24.455  0.00  0.00    +0.099 C 
BRANCH   4  11
ATOM      8  N   UNL     1      35.274 -21.366 -19.076  0.00  0.00    -0.280 N 
ATOM      9  N   UNL     1      36.503 -20.870 -19.327  0.00  0.00    -0.173 NA
ATOM     10  C   UNL     1      34.901 -19.885 -20.601  0.00  0.00    +0.032 A 
ATOM     11  C   UNL     1      35.223 -18.222 -22.173  0.00  0.00    +0.002 C 
ATOM     12  C   UNL     1      36.307 -19.940 -20.277  0.00  0.00    +0.102 A 
ATOM     13  C   UNL     1      34.283 -19.059 -21.531  0.00  0.00    +0.003 C 
ATOM     14  C   UNL     1      34.272 -20.809 -19.815  0.00  0.00    +0.053 A 
ATOM     15  C   UNL     1      36.627 -18.243 -21.883  0.00  0.00    +0.002 C 
ATOM     16  C   UNL     1      37.225 -19.097 -20.930  0.00  0.00    +0.021 C 
ATOM     17  C   UNL     1      32.869 -21.231 -19.672  0.00  0.00    +0.051 C 
ATOM     18  H   UNL     1      35.113 -22.074 -18.411  0.00  0.00    +0.189 HD
ENDBRANCH   4  11
ENDBRANCH   1   3
BRANCH   1  19
ATOM     19  C   UNL     1      33.030 -13.421 -22.576  0.00  0.00    +0.184 C 
BRANCH  19  20
ATOM     20  C   UNL     1      33.048 -11.918 -22.270  0.00  0.00    -0.017 C 
BRANCH  20  21
ATOM     21  N   UNL     1      33.436 -11.195 -23.487  0.00  0.00    +0.384 N 
ATOM     22  H   UNL     1      32.794 -10.417 -23.640  0.00  0.00    -0.089 HD
ATOM     23  H   UNL     1      33.399 -11.830 -24.285  0.00  0.00    -0.089 HD
ATOM     24  H   UNL     1      34.386 -10.838 -23.382  0.00  0.00    -0.089 HD
ENDBRANCH  20  21
BRANCH  20  25
ATOM     25  C   UNL     1      31.688 -11.371 -21.759  0.00  0.00    +0.009 C 
BRANCH  25  27
ATOM     26  N   UNL     1      31.968  -8.735 -19.248  0.00  0.00    -0.312 N 
ATOM     27  C   UNL     1      31.788 -10.129 -20.966  0.00  0.00    -0.008 C 
ATOM     28  C   UNL     1      31.781  -8.799 -21.470  0.00  0.00    +0.011 C 
ATOM     29  C   UNL     1      31.895  -7.943 -20.371  0.00  0.00    +0.048 C 
ATOM     30  C   UNL     1      31.904 -10.058 -19.596  0.00  0.00    +0.058 C 
ATOM     31  C   UNL     1      31.689  -8.238 -22.759  0.00  0.00    +0.001 C 
ATOM     32  C   UNL     1      31.922  -6.550 -20.499  0.00  0.00    +0.015 C 
ATOM     33  C   UNL     1      31.714  -6.846 -22.902  0.00  0.00    +0.000 C 
ATOM     34  C   UNL     1      31.830  -6.016 -21.787  0.00  0.00    +0.001 C 
ATOM     35  H   UNL     1      32.053  -8.399 -18.326  0.00  0.00    +0.152 HD
ENDBRANCH  25  27
ENDBRANCH  20  25
ENDBRANCH  19  20
ENDBRANCH   1  19
TORSDOF 7
ENDMDL
MODEL 3
REMARK VINA RESULT:     -11.7      1.956      3.262
REMARK  Name = 10172943
REMARK  7 active torsions:
REMARK  status: ('A' for Active; 'I' for Inactive)
REMARK    1  A    between atoms: O_1  and  C_3
REMARK    2  A    between atoms: O_1  and  C_19
REMARK    3  A    between atoms: C_4  and  C_11
REMARK    4  A    between atoms: C_19  and  C_20
REMARK    5  A    between atoms: C_20  and  N_21
REMARK    6  A    between atoms: C_20  and  C_25
REMARK    7  A    between atoms: C_25  and  C_27
REMARK                            x       y       z     vdW  Elec       q    Type
REMARK                         _______ _______ _______ _____ _____    ______ ____
ROOT
ATOM      1  O   UNL     1      33.019 -22.227 -18.673  0.00  0.00    -0.476 OA
ENDROOT
BRANCH   1   3
ATOM      2  N   UNL     1      36.455 -21.115 -19.162  0.00  0.00    -0.239 NA
ATOM      3  C   UNL     1      34.087 -21.534 -19.182  0.00  0.00    +0.158 C 
ATOM      4  C   UNL     1      35.007 -19.915 -20.682  0.00  0.00    +0.022 C 
ATOM      5  C   UNL     1      33.905 -20.600 -20.185  0.00  0.00    +0.040 C 
ATOM      6  C   UNL     1      35.359 -21.761 -18.704  0.00  0.00    +0.136 C 
ATOM      7  C   UNL     1      36.250 -20.206 -20.142  0.00  0.00    +0.099 C 
BRANCH   4  11
ATOM      8  N   UNL     1      34.451 -15.047 -23.785  0.00  0.00    -0.280 N 
ATOM      9  N   UNL     1      34.455 -16.086 -24.644  0.00  0.00    -0.173 NA
ATOM     10  C   UNL     1      34.662 -16.756 -22.483  0.00  0.00    +0.032 A 
ATOM     11  C   UNL     1      34.863 -18.932 -21.730  0.00  0.00    +0.002 C 
ATOM     12  C   UNL     1      34.585 -17.173 -23.863  0.00  0.00    +0.102 A 
ATOM     13  C   UNL     1      34.801 -17.569 -21.365  0.00  0.00    +0.003 C 
ATOM     14  C   UNL     1      34.574 -15.393 -22.471  0.00  0.00    +0.053 A 
ATOM     15  C   UNL     1      34.791 -19.391 -23.087  0.00  0.00    +0.002 C 
ATOM     16  C   UNL     1      34.650 -18.536 -24.203  0.00  0.00    +0.021 C 
ATOM     17  C   UNL     1      34.590 -14.386 -21.397  0.00  0.00    +0.051 C 
ATOM     18  H   UNL     1      34.367 -14.113 -24.082  0.00  0.00    +0.189 HD
ENDBRANCH   4  11
ENDBRANCH   1   3
BRANCH   1  19
ATOM     19  C   UNL     1      33.313 -23.299 -17.788  0.00  0.00    +0.184 C 
BRANCH  19  20
ATOM     20  C   UNL     1      32.931 -22.966 -16.340  0.00  0.00    -0.017 C 
BRANCH  20  21
ATOM     21  N   UNL     1      31.469 -23.013 -16.217  0.00  0.00    +0.384 N 
ATOM     22  H   UNL     1      31.208 -23.746 -15.557  0.00  0.00    -0.089 HD
ATOM     23  H   UNL     1      31.058 -23.214 -17.129  0.00  0.00    -0.089 HD
ATOM     24  H   UNL     1      31.127 -22.114 -15.881  0.00  0.00    -0.089 HD
ENDBRANCH  20  21
BRANCH  20  25
ATOM     25  C   UNL     1      33.568 -23.920 -15.294  0.00  0.00    +0.009 C 
BRANCH  25  27
ATOM     26  N   UNL     1      36.983 -22.713 -14.836  0.00  0.00    -0.312 N 
ATOM     27  C   UNL     1      35.012 -23.706 -15.071  0.00  0.00    -0.008 C 
ATOM     28  C   UNL     1      35.986 -24.708 -14.807  0.00  0.00    +0.011 C 
ATOM     29  C   UNL     1      37.215 -24.059 -14.664  0.00  0.00    +0.048 C 
ATOM     30  C   UNL     1      35.655 -22.489 -15.084  0.00  0.00    +0.058 C 
ATOM     31  C   UNL     1      35.941 -26.110 -14.675  0.00  0.00    +0.001 C 
ATOM     32  C   UNL     1      38.405 -24.745 -14.394  0.00  0.00    +0.015 C 
ATOM     33  C   UNL     1      37.124 -26.809 -14.405  0.00  0.00    +0.000 C 
ATOM     34  C   UNL     1      38.335 -26.135 -14.267  0.00  0.00    +0.001 C 
ATOM     35  H   UNL     1      37.673 -22.013 -14.790  0.00  0.00    +0.152 HD
ENDBRANCH  25  27
ENDBRANCH  20  25
ENDBRANCH  19  20
ENDBRANCH   1  19
TORSDOF 7
ENDMDL
MODEL 4
REMARK VINA RESULT:     -11.7      3.038      6.029
REMARK  Name = 10172943
REMARK  7 active torsions:
REMARK  status: ('A' for Active; 'I' for Inactive)
REMARK    1  A    between atoms: O_1  and  C_3
REMARK    2  A    between atoms: O_1  and  C_19
REMARK    3  A    between atoms: C_4  and  C_11
REMARK    4  A    between atoms: C_19  and  C_20
REMARK    5  A    between atoms: C_20  and  N_21
REMARK    6  A    between atoms: C_20  and  C_25
REMARK    7  A    between atoms: C_25  and  C_27
REMARK                            x       y       z     vdW  Elec       q    Type
REMARK                         _______ _______ _______ _____ _____    ______ ____
ROOT
ATOM      1  O   UNL     1      35.457 -17.218 -23.304  0.00  0.00    -0.476 OA
ENDROOT
BRANCH   1   3
ATOM      2  N   UNL     1      33.660 -14.979 -25.549  0.00  0.00    -0.239 NA
ATOM      3  C   UNL     1      34.694 -16.160 -23.727  0.00  0.00    +0.158 C 
ATOM      4  C   UNL     1      33.425 -14.184 -23.278  0.00  0.00    +0.022 C 
ATOM      5  C   UNL     1      34.198 -15.244 -22.818  0.00  0.00    +0.040 C 
ATOM      6  C   UNL     1      34.407 -15.997 -25.065  0.00  0.00    +0.136 C 
ATOM      7  C   UNL     1      33.188 -14.096 -24.640  0.00  0.00    +0.099 C 
BRANCH   4  11
ATOM      8  N   UNL     1      31.486  -9.358 -20.712  0.00  0.00    -0.280 N 
ATOM      9  N   UNL     1      31.368 -10.371 -19.830  0.00  0.00    -0.173 NA
ATOM     10  C   UNL     1      32.241 -11.055 -21.812  0.00  0.00    +0.032 A 
ATOM     11  C   UNL     1      32.886 -13.204 -22.364  0.00  0.00    +0.002 C 
ATOM     12  C   UNL     1      31.832 -11.448 -20.485  0.00  0.00    +0.102 A 
ATOM     13  C   UNL     1      32.774 -11.867 -22.805  0.00  0.00    +0.003 C 
ATOM     14  C   UNL     1      32.005  -9.713 -21.922  0.00  0.00    +0.053 A 
ATOM     15  C   UNL     1      32.493 -13.640 -21.055  0.00  0.00    +0.002 C 
ATOM     16  C   UNL     1      31.953 -12.787 -20.067  0.00  0.00    +0.021 C 
ATOM     17  C   UNL     1      32.201  -8.735 -23.005  0.00  0.00    +0.051 C 
ATOM     18  H   UNL     1      31.218  -8.435 -20.499  0.00  0.00    +0.189 HD
ENDBRANCH   4  11
ENDBRANCH   1   3
BRANCH   1  19
ATOM     19  C   UNL     1      34.762 -18.395 -22.914  0.00  0.00    +0.184 C 
BRANCH  19  20
ATOM     20  C   UNL     1      35.297 -18.962 -21.593  0.00  0.00    -0.017 C 
BRANCH  20  21
ATOM     21  N   UNL     1      35.358 -17.877 -20.606  0.00  0.00    +0.384 N 
ATOM     22  H   UNL     1      35.909 -18.179 -19.803  0.00  0.00    -0.089 HD
ATOM     23  H   UNL     1      34.414 -17.640 -20.303  0.00  0.00    -0.089 HD
ATOM     24  H   UNL     1      35.794 -17.058 -21.030  0.00  0.00    -0.089 HD
ENDBRANCH  20  21
BRANCH  20  25
ATOM     25  C   UNL     1      34.442 -20.126 -21.025  0.00  0.00    +0.009 C 
BRANCH  25  27
ATOM     26  N   UNL     1      36.569 -21.651 -18.479  0.00  0.00    -0.312 N 
ATOM     27  C   UNL     1      35.058 -20.838 -19.887  0.00  0.00    -0.008 C 
ATOM     28  C   UNL     1      34.376 -21.579 -18.881  0.00  0.00    +0.011 C 
ATOM     29  C   UNL     1      35.347 -22.078 -18.011  0.00  0.00    +0.048 C 
ATOM     30  C   UNL     1      36.405 -20.901 -19.613  0.00  0.00    +0.058 C 
ATOM     31  C   UNL     1      33.022 -21.873 -18.627  0.00  0.00    +0.001 C 
ATOM     32  C   UNL     1      35.030 -22.860 -16.894  0.00  0.00    +0.015 C 
ATOM     33  C   UNL     1      32.690 -22.653 -17.514  0.00  0.00    +0.000 C 
ATOM     34  C   UNL     1      33.680 -23.138 -16.661  0.00  0.00    +0.001 C 
ATOM     35  H   UNL     1      37.436 -21.856 -18.060  0.00  0.00    +0.152 HD
ENDBRANCH  25  27
ENDBRANCH  20  25
ENDBRANCH  19  20
ENDBRANCH   1  19
TORSDOF 7
ENDMDL
MODEL 5
REMARK VINA RESULT:     -11.7      6.506     13.142
REMARK  Name = 10172943
REMARK  7 active torsions:
REMARK  status: ('A' for Active; 'I' for Inactive)
REMARK    1  A    between atoms: O_1  and  C_3
REMARK    2  A    between atoms: O_1  and  C_19
REMARK    3  A    between atoms: C_4  and  C_11
REMARK    4  A    between atoms: C_19  and  C_20
REMARK    5  A    between atoms: C_20  and  N_21
REMARK    6  A    between atoms: C_20  and  C_25
REMARK    7  A    between atoms: C_25  and  C_27
REMARK                            x       y       z     vdW  Elec       q    Type
REMARK                         _______ _______ _______ _____ _____    ______ ____
ROOT
ATOM      1  O   UNL     1      31.932 -11.080 -21.104  0.00  0.00    -0.476 OA
ENDROOT
BRANCH   1   3
ATOM      2  N   UNL     1      33.937 -11.063 -24.147  0.00  0.00    -0.239 NA
ATOM      3  C   UNL     1      32.650 -11.547 -22.174  0.00  0.00    +0.158 C 
ATOM      4  C   UNL     1      33.553 -13.350 -23.461  0.00  0.00    +0.022 C 
ATOM      5  C   UNL     1      32.818 -12.906 -22.368  0.00  0.00    +0.040 C 
ATOM      6  C   UNL     1      33.217 -10.670 -23.073  0.00  0.00    +0.136 C 
ATOM      7  C   UNL     1      34.086 -12.397 -24.314  0.00  0.00    +0.099 C 
BRANCH   4  11
ATOM      8  N   UNL     1      34.997 -18.957 -23.137  0.00  0.00    -0.280 N 
ATOM      9  N   UNL     1      34.360 -18.762 -24.309  0.00  0.00    -0.173 NA
ATOM     10  C   UNL     1      34.536 -16.849 -23.096  0.00  0.00    +0.032 A 
ATOM     11  C   UNL     1      33.754 -14.760 -23.700  0.00  0.00    +0.002 C 
ATOM     12  C   UNL     1      34.057 -17.452 -24.317  0.00  0.00    +0.102 A 
ATOM     13  C   UNL     1      34.424 -15.518 -22.716  0.00  0.00    +0.003 C 
ATOM     14  C   UNL     1      35.130 -17.839 -22.367  0.00  0.00    +0.053 A 
ATOM     15  C   UNL     1      33.261 -15.317 -24.927  0.00  0.00    +0.002 C 
ATOM     16  C   UNL     1      33.391 -16.677 -25.285  0.00  0.00    +0.021 C 
ATOM     17  C   UNL     1      35.798 -17.870 -21.055  0.00  0.00    +0.051 C 
ATOM     18  H   UNL     1      35.338 -19.837 -22.859  0.00  0.00    +0.189 HD
ENDBRANCH   4  11
ENDBRANCH   1   3
BRANCH   1  19
ATOM     19  C   UNL     1      31.480  -9.734 -21.174  0.00  0.00    +0.184 C 
BRANCH  19  20
ATOM     20  C   UNL     1      31.763  -8.968 -19.875  0.00  0.00    -0.017 C 
BRANCH  20  21
ATOM     21  N   UNL     1      32.320  -9.904 -18.891  0.00  0.00    +0.384 N 
ATOM     22  H   UNL     1      33.286  -9.647 -18.687  0.00  0.00    -0.089 HD
ATOM     23  H   UNL     1      32.292 -10.851 -19.269  0.00  0.00    -0.089 HD
ATOM     24  H   UNL     1      31.769  -9.863 -18.034  0.00  0.00    -0.089 HD
ENDBRANCH  20  21
BRANCH  20  25
ATOM     25  C   UNL     1      32.737  -7.774 -20.058  0.00  0.00    +0.009 C 
BRANCH  25  27
ATOM     26  N   UNL     1      31.312  -5.436 -22.475  0.00  0.00    -0.312 N 
ATOM     27  C   UNL     1      32.399  -6.876 -21.182  0.00  0.00    -0.008 C 
ATOM     28  C   UNL     1      33.194  -6.626 -22.335  0.00  0.00    +0.011 C 
ATOM     29  C   UNL     1      32.489  -5.719 -23.130  0.00  0.00    +0.048 C 
ATOM     30  C   UNL     1      31.247  -6.131 -21.297  0.00  0.00    +0.058 C 
ATOM     31  C   UNL     1      34.450  -7.084 -22.780  0.00  0.00    +0.001 C 
ATOM     32  C   UNL     1      32.980  -5.246 -24.352  0.00  0.00    +0.015 C 
ATOM     33  C   UNL     1      34.954  -6.619 -24.000  0.00  0.00    +0.000 C 
ATOM     34  C   UNL     1      34.228  -5.714 -24.773  0.00  0.00    +0.001 C 
ATOM     35  H   UNL     1      30.617  -4.824 -22.806  0.00  0.00    +0.152 HD
ENDBRANCH  25  27
ENDBRANCH  20  25
ENDBRANCH  19  20
ENDBRANCH   1  19
TORSDOF 7
ENDMDL
MODEL 6
REMARK VINA RESULT:     -11.6      3.163      6.169
REMARK  Name = 10172943
REMARK  7 active torsions:
REMARK  status: ('A' for Active; 'I' for Inactive)
REMARK    1  A    between atoms: O_1  and  C_3
REMARK    2  A    between atoms: O_1  and  C_19
REMARK    3  A    between atoms: C_4  and  C_11
REMARK    4  A    between atoms: C_19  and  C_20
REMARK    5  A    between atoms: C_20  and  N_21
REMARK    6  A    between atoms: C_20  and  C_25
REMARK    7  A    between atoms: C_25  and  C_27
REMARK                            x       y       z     vdW  Elec       q    Type
REMARK                         _______ _______ _______ _____ _____    ______ ____
ROOT
ATOM      1  O   UNL     1      35.606 -17.046 -22.985  0.00  0.00    -0.476 OA
ENDROOT
BRANCH   1   3
ATOM      2  N   UNL     1      33.643 -15.079 -25.343  0.00  0.00    -0.239 NA
ATOM      3  C   UNL     1      34.779 -16.063 -23.466  0.00  0.00    +0.158 C 
ATOM      4  C   UNL     1      33.423 -14.122 -23.133  0.00  0.00    +0.022 C 
ATOM      5  C   UNL     1      34.260 -15.104 -22.616  0.00  0.00    +0.040 C 
ATOM      6  C   UNL     1      34.452 -16.018 -24.804  0.00  0.00    +0.136 C 
ATOM      7  C   UNL     1      33.148 -14.152 -24.491  0.00  0.00    +0.099 C 
BRANCH   4  11
ATOM      8  N   UNL     1      31.495  -9.168 -20.814  0.00  0.00    -0.280 N 
ATOM      9  N   UNL     1      31.270 -10.156 -19.925  0.00  0.00    -0.173 NA
ATOM     10  C   UNL     1      32.261 -10.917 -21.822  0.00  0.00    +0.032 A 
ATOM     11  C   UNL     1      32.857 -13.102 -22.282  0.00  0.00    +0.002 C 
ATOM     12  C   UNL     1      31.737 -11.265 -20.522  0.00  0.00    +0.102 A 
ATOM     13  C   UNL     1      32.834 -11.771 -22.755  0.00  0.00    +0.003 C 
ATOM     14  C   UNL     1      32.090  -9.570 -21.974  0.00  0.00    +0.053 A 
ATOM     15  C   UNL     1      32.348 -13.493 -20.999  0.00  0.00    +0.002 C 
ATOM     16  C   UNL     1      31.770 -12.598 -20.072  0.00  0.00    +0.021 C 
ATOM     17  C   UNL     1      32.408  -8.624 -23.057  0.00  0.00    +0.051 C 
ATOM     18  H   UNL     1      31.250  -8.231 -20.640  0.00  0.00    +0.189 HD
ENDBRANCH   4  11
ENDBRANCH   1   3
BRANCH   1  19
ATOM     19  C   UNL     1      35.300 -17.567 -21.699  0.00  0.00    +0.184 C 
BRANCH  19  20
ATOM     20  C   UNL     1      34.780 -19.009 -21.777  0.00  0.00    -0.017 C 
BRANCH  20  21
ATOM     21  N   UNL     1      34.978 -19.506 -23.144  0.00  0.00    +0.384 N 
ATOM     22  H   UNL     1      34.865 -18.737 -23.804  0.00  0.00    -0.089 HD
ATOM     23  H   UNL     1      34.290 -20.231 -23.344  0.00  0.00    -0.089 HD
ATOM     24  H   UNL     1      35.917 -19.895 -23.231  0.00  0.00    -0.089 HD
ENDBRANCH  20  21
BRANCH  20  25
ATOM     25  C   UNL     1      35.470 -19.973 -20.774  0.00  0.00    +0.009 C 
BRANCH  25  27
ATOM     26  N   UNL     1      32.679 -21.709 -19.184  0.00  0.00    -0.312 N 
ATOM     27  C   UNL     1      34.536 -20.759 -19.943  0.00  0.00    -0.008 C 
ATOM     28  C   UNL     1      34.859 -21.492 -18.767  0.00  0.00    +0.011 C 
ATOM     29  C   UNL     1      33.677 -22.078 -18.310  0.00  0.00    +0.048 C 
ATOM     30  C   UNL     1      33.187 -20.911 -20.173  0.00  0.00    +0.058 C 
ATOM     31  C   UNL     1      36.049 -21.714 -18.045  0.00  0.00    +0.001 C 
ATOM     32  C   UNL     1      33.624 -22.878 -17.163  0.00  0.00    +0.015 C 
ATOM     33  C   UNL     1      36.011 -22.512 -16.896  0.00  0.00    +0.000 C 
ATOM     34  C   UNL     1      34.816 -23.085 -16.464  0.00  0.00    +0.001 C 
ATOM     35  H   UNL     1      31.735 -21.978 -19.107  0.00  0.00    +0.152 HD
ENDBRANCH  25  27
ENDBRANCH  20  25
ENDBRANCH  19  20
ENDBRANCH   1  19
TORSDOF 7
ENDMDL
MODEL 7
REMARK VINA RESULT:     -11.6      2.592     10.110
REMARK  Name = 10172943
REMARK  7 active torsions:
REMARK  status: ('A' for Active; 'I' for Inactive)
REMARK    1  A    between atoms: O_1  and  C_3
REMARK    2  A    between atoms: O_1  and  C_19
REMARK    3  A    between atoms: C_4  and  C_11
REMARK    4  A    between atoms: C_19  and  C_20
REMARK    5  A    between atoms: C_20  and  N_21
REMARK    6  A    between atoms: C_20  and  C_25
REMARK    7  A    between atoms: C_25  and  C_27
REMARK                            x       y       z     vdW  Elec       q    Type
REMARK                         _______ _______ _______ _____ _____    ______ ____
ROOT
ATOM      1  O   UNL     1      34.130 -18.212 -23.219  0.00  0.00    -0.476 OA
ENDROOT
BRANCH   1   3
ATOM      2  N   UNL     1      37.299 -18.835 -21.531  0.00  0.00    -0.239 NA
ATOM      3  C   UNL     1      35.030 -18.719 -22.317  0.00  0.00    +0.158 C 
ATOM      4  C   UNL     1      35.549 -20.081 -20.422  0.00  0.00    +0.022 C 
ATOM      5  C   UNL     1      34.614 -19.585 -21.322  0.00  0.00    +0.040 C 
ATOM      6  C   UNL     1      36.361 -18.373 -22.388  0.00  0.00    +0.136 C 
ATOM      7  C   UNL     1      36.868 -19.681 -20.567  0.00  0.00    +0.099 C 
BRANCH   4  11
ATOM      8  N   UNL     1      35.336 -23.513 -15.752  0.00  0.00    -0.280 N 
ATOM      9  N   UNL     1      34.126 -23.547 -16.344  0.00  0.00    -0.173 NA
ATOM     10  C   UNL     1      35.586 -22.201 -17.447  0.00  0.00    +0.032 A 
ATOM     11  C   UNL     1      35.159 -20.987 -19.366  0.00  0.00    +0.002 C 
ATOM     12  C   UNL     1      34.246 -22.737 -17.410  0.00  0.00    +0.102 A 
ATOM     13  C   UNL     1      36.117 -21.326 -18.386  0.00  0.00    +0.003 C 
ATOM     14  C   UNL     1      36.254 -22.718 -16.373  0.00  0.00    +0.053 A 
ATOM     15  C   UNL     1      33.817 -21.494 -19.369  0.00  0.00    +0.002 C 
ATOM     16  C   UNL     1      33.308 -22.385 -18.398  0.00  0.00    +0.021 C 
ATOM     17  C   UNL     1      37.626 -22.562 -15.861  0.00  0.00    +0.051 C 
ATOM     18  H   UNL     1      35.541 -24.022 -14.934  0.00  0.00    +0.189 HD
ENDBRANCH   4  11
ENDBRANCH   1   3
BRANCH   1  19
ATOM     19  C   UNL     1      34.667 -17.555 -24.359  0.00  0.00    +0.184 C 
BRANCH  19  20
ATOM     20  C   UNL     1      34.237 -16.084 -24.426  0.00  0.00    -0.017 C 
BRANCH  20  21
ATOM     21  N   UNL     1      32.851 -16.022 -24.906  0.00  0.00    +0.384 N 
ATOM     22  H   UNL     1      32.308 -16.769 -24.472  0.00  0.00    -0.089 HD
ATOM     23  H   UNL     1      32.837 -16.135 -25.919  0.00  0.00    -0.089 HD
ATOM     24  H   UNL     1      32.446 -15.119 -24.659  0.00  0.00    -0.089 HD
ENDBRANCH  20  21
BRANCH  20  25
ATOM     25  C   UNL     1      34.344 -15.343 -23.067  0.00  0.00    +0.009 C 
BRANCH  25  27
ATOM     26  N   UNL     1      33.518 -11.852 -23.748  0.00  0.00    -0.312 N 
ATOM     27  C   UNL     1      33.872 -13.943 -23.094  0.00  0.00    -0.008 C 
ATOM     28  C   UNL     1      33.079 -13.296 -22.106  0.00  0.00    +0.011 C 
ATOM     29  C   UNL     1      32.872 -11.985 -22.540  0.00  0.00    +0.048 C 
ATOM     30  C   UNL     1      34.127 -13.029 -24.092  0.00  0.00    +0.058 C 
ATOM     31  C   UNL     1      32.515 -13.702 -20.880  0.00  0.00    +0.001 C 
ATOM     32  C   UNL     1      32.125 -11.056 -21.806  0.00  0.00    +0.015 C 
ATOM     33  C   UNL     1      31.767 -12.783 -20.135  0.00  0.00    +0.000 C 
ATOM     34  C   UNL     1      31.576 -11.481 -20.594  0.00  0.00    +0.001 C 
ATOM     35  H   UNL     1      33.541 -11.028 -24.286  0.00  0.00    +0.152 HD
ENDBRANCH  25  27
ENDBRANCH  20  25
ENDBRANCH  19  20
ENDBRANCH   1  19
TORSDOF 7
ENDMDL
MODEL 8
REMARK VINA RESULT:     -11.6      1.709     10.834
REMARK  Name = 10172943
REMARK  7 active torsions:
REMARK  status: ('A' for Active; 'I' for Inactive)
REMARK    1  A    between atoms: O_1  and  C_3
REMARK    2  A    between atoms: O_1  and  C_19
REMARK    3  A    between atoms: C_4  and  C_11
REMARK    4  A    between atoms: C_19  and  C_20
REMARK    5  A    between atoms: C_20  and  N_21
REMARK    6  A    between atoms: C_20  and  C_25
REMARK    7  A    between atoms: C_25  and  C_27
REMARK                            x       y       z     vdW  Elec       q    Type
REMARK                         _______ _______ _______ _____ _____    ______ ____
ROOT
ATOM      1  O   UNL     1      35.781 -20.976 -19.443  0.00  0.00    -0.476 OA
ENDROOT
BRANCH   1   3
ATOM      2  N   UNL     1      32.624 -22.436 -18.356  0.00  0.00    -0.239 NA
ATOM      3  C   UNL     1      34.875 -21.650 -18.665  0.00  0.00    +0.158 C 
ATOM      4  C   UNL     1      34.322 -22.886 -16.695  0.00  0.00    +0.022 C 
ATOM      5  C   UNL     1      35.262 -22.208 -17.460  0.00  0.00    +0.040 C 
ATOM      6  C   UNL     1      33.566 -21.784 -19.073  0.00  0.00    +0.136 C 
ATOM      7  C   UNL     1      33.027 -22.971 -17.181  0.00  0.00    +0.099 C 
BRANCH   4  11
ATOM      8  N   UNL     1      37.063 -25.384 -12.236  0.00  0.00    -0.280 N 
ATOM      9  N   UNL     1      35.779 -25.190 -11.874  0.00  0.00    -0.173 NA
ATOM     10  C   UNL     1      36.198 -24.460 -13.984  0.00  0.00    +0.032 A 
ATOM     11  C   UNL     1      34.682 -23.485 -15.430  0.00  0.00    +0.002 C 
ATOM     12  C   UNL     1      35.207 -24.613 -12.945  0.00  0.00    +0.102 A 
ATOM     13  C   UNL     1      36.016 -23.910 -15.246  0.00  0.00    +0.003 C 
ATOM     14  C   UNL     1      37.371 -24.963 -13.496  0.00  0.00    +0.053 A 
ATOM     15  C   UNL     1      33.666 -23.616 -14.427  0.00  0.00    +0.002 C 
ATOM     16  C   UNL     1      33.884 -24.182 -13.151  0.00  0.00    +0.021 C 
ATOM     17  C   UNL     1      38.727 -25.097 -14.054  0.00  0.00    +0.051 C 
ATOM     18  H   UNL     1      37.726 -25.798 -11.637  0.00  0.00    +0.189 HD
ENDBRANCH   4  11
ENDBRANCH   1   3
BRANCH   1  19
ATOM     19  C   UNL     1      35.259 -20.229 -20.533  0.00  0.00    +0.184 C 
BRANCH  19  20
ATOM     20  C   UNL     1      36.037 -18.926 -20.757  0.00  0.00    -0.017 C 
BRANCH  20  21
ATOM     21  N   UNL     1      37.207 -18.920 -19.870  0.00  0.00    +0.384 N 
ATOM     22  H   UNL     1      36.921 -18.635 -18.933  0.00  0.00    -0.089 HD
ATOM     23  H   UNL     1      37.901 -18.265 -20.228  0.00  0.00    -0.089 HD
ATOM     24  H   UNL     1      37.609 -19.856 -19.833  0.00  0.00    -0.089 HD
ENDBRANCH  20  21
BRANCH  20  25
ATOM     25  C   UNL     1      36.502 -18.723 -22.223  0.00  0.00    +0.009 C 
BRANCH  25  27
ATOM     26  N   UNL     1      33.795 -18.667 -24.674  0.00  0.00    -0.312 N 
ATOM     27  C   UNL     1      35.412 -18.420 -23.174  0.00  0.00    -0.008 C 
ATOM     28  C   UNL     1      34.891 -17.132 -23.482  0.00  0.00    +0.011 C 
ATOM     29  C   UNL     1      33.878 -17.316 -24.426  0.00  0.00    +0.048 C 
ATOM     30  C   UNL     1      34.719 -19.343 -23.922  0.00  0.00    +0.058 C 
ATOM     31  C   UNL     1      35.184 -15.825 -23.048  0.00  0.00    +0.001 C 
ATOM     32  C   UNL     1      33.140 -16.252 -24.959  0.00  0.00    +0.015 C 
ATOM     33  C   UNL     1      34.454 -14.751 -23.572  0.00  0.00    +0.000 C 
ATOM     34  C   UNL     1      33.448 -14.964 -24.513  0.00  0.00    +0.001 C 
ATOM     35  H   UNL     1      33.164 -19.087 -25.302  0.00  0.00    +0.152 HD
ENDBRANCH  25  27
ENDBRANCH  20  25
ENDBRANCH  19  20
ENDBRANCH   1  19
TORSDOF 7
ENDMDL
MODEL 9
REMARK VINA RESULT:     -11.6      6.383     11.153
REMARK  Name = 10172943
REMARK  7 active torsions:
REMARK  status: ('A' for Active; 'I' for Inactive)
REMARK    1  A    between atoms: O_1  and  C_3
REMARK    2  A    between atoms: O_1  and  C_19
REMARK    3  A    between atoms: C_4  and  C_11
REMARK    4  A    between atoms: C_19  and  C_20
REMARK    5  A    between atoms: C_20  and  N_21
REMARK    6  A    between atoms: C_20  and  C_25
REMARK    7  A    between atoms: C_25  and  C_27
REMARK                            x       y       z     vdW  Elec       q    Type
REMARK                         _______ _______ _______ _____ _____    ______ ____
ROOT
ATOM      1  O   UNL     1      31.585 -12.145 -21.581  0.00  0.00    -0.476 OA
ENDROOT
BRANCH   1   3
ATOM      2  N   UNL     1      31.995  -9.596 -19.008  0.00  0.00    -0.239 NA
ATOM      3  C   UNL     1      31.721 -10.908 -21.005  0.00  0.00    +0.158 C 
ATOM      4  C   UNL     1      31.867  -8.527 -21.173  0.00  0.00    +0.022 C 
ATOM      5  C   UNL     1      31.726  -9.767 -21.786  0.00  0.00    +0.040 C 
ATOM      6  C   UNL     1      31.856 -10.784 -19.639  0.00  0.00    +0.136 C 
ATOM      7  C   UNL     1      31.996  -8.495 -19.794  0.00  0.00    +0.099 C 
BRANCH   4  11
ATOM      8  N   UNL     1      33.093  -4.226 -24.865  0.00  0.00    -0.280 N 
ATOM      9  N   UNL     1      31.978  -3.885 -24.189  0.00  0.00    -0.173 NA
ATOM     10  C   UNL     1      32.782  -5.912 -23.554  0.00  0.00    +0.032 A 
ATOM     11  C   UNL     1      31.879  -7.310 -21.950  0.00  0.00    +0.002 C 
ATOM     12  C   UNL     1      31.754  -4.917 -23.359  0.00  0.00    +0.102 A 
ATOM     13  C   UNL     1      32.914  -7.126 -22.893  0.00  0.00    +0.003 C 
ATOM     14  C   UNL     1      33.620  -5.436 -24.523  0.00  0.00    +0.053 A 
ATOM     15  C   UNL     1      30.837  -6.350 -21.724  0.00  0.00    +0.002 C 
ATOM     16  C   UNL     1      30.731  -5.122 -22.414  0.00  0.00    +0.021 C 
ATOM     17  C   UNL     1      34.835  -5.968 -25.161  0.00  0.00    +0.051 C 
ATOM     18  H   UNL     1      33.496  -3.647 -25.552  0.00  0.00    +0.189 HD
ENDBRANCH   4  11
ENDBRANCH   1   3
BRANCH   1  19
ATOM     19  C   UNL     1      32.677 -13.043 -21.434  0.00  0.00    +0.184 C 
BRANCH  19  20
ATOM     20  C   UNL     1      33.266 -13.452 -22.791  0.00  0.00    -0.017 C 
BRANCH  20  21
ATOM     21  N   UNL     1      33.546 -12.237 -23.566  0.00  0.00    +0.384 N 
ATOM     22  H   UNL     1      32.666 -11.804 -23.847  0.00  0.00    -0.089 HD
ATOM     23  H   UNL     1      34.086 -12.481 -24.395  0.00  0.00    -0.089 HD
ATOM     24  H   UNL     1      34.079 -11.584 -22.992  0.00  0.00    -0.089 HD
ENDBRANCH  20  21
BRANCH  20  25
ATOM     25  C   UNL     1      34.561 -14.300 -22.676  0.00  0.00    +0.009 C 
BRANCH  25  27
ATOM     26  N   UNL     1      34.156 -17.252 -24.786  0.00  0.00    -0.312 N 
ATOM     27  C   UNL     1      34.473 -15.637 -23.296  0.00  0.00    -0.008 C 
ATOM     28  C   UNL     1      34.733 -16.884 -22.663  0.00  0.00    +0.011 C 
ATOM     29  C   UNL     1      34.527 -17.881 -23.620  0.00  0.00    +0.048 C 
ATOM     30  C   UNL     1      34.119 -15.895 -24.601  0.00  0.00    +0.058 C 
ATOM     31  C   UNL     1      35.127 -17.262 -21.364  0.00  0.00    +0.001 C 
ATOM     32  C   UNL     1      34.696 -19.242 -23.341  0.00  0.00    +0.015 C 
ATOM     33  C   UNL     1      35.299 -18.620 -21.071  0.00  0.00    +0.000 C 
ATOM     34  C   UNL     1      35.087 -19.593 -22.046  0.00  0.00    +0.001 C 
ATOM     35  H   UNL     1      33.946 -17.711 -25.631  0.00  0.00    +0.152 HD
ENDBRANCH  25  27
ENDBRANCH  20  25
ENDBRANCH  19  20
ENDBRANCH   1  19
TORSDOF 7
ENDMDL
