MODEL 1
REMARK VINA RESULT:     -11.7      0.000      0.000
REMARK  Name = 25243828
REMARK  6 active torsions:
REMARK  status: ('A' for Active; 'I' for Inactive)
REMARK    1  A    between atoms: C_1  and  C_18
REMARK    2  A    between atoms: C_4  and  O_7
REMARK    3  A    between atoms: O_7  and  C_9
REMARK    4  A    between atoms: C_11  and  C_17
REMARK    5  A    between atoms: C_18  and  C_21
REMARK    6  A    between atoms: C_26  and  O_27
REMARK                            x       y       z     vdW  Elec       q    Type
REMARK                         _______ _______ _______ _____ _____    ______ ____
ROOT
ATOM      1  C   UNL     1      33.770 -23.418 -14.670  0.00  0.00    -0.019 C 
ATOM      2  C   UNL     1      33.931 -23.548 -16.049  0.00  0.00    +0.033 C 
ATOM      3  C   UNL     1      32.528 -23.060 -14.143  0.00  0.00    -0.004 C 
ATOM      4  C   UNL     1      32.851 -23.320 -16.902  0.00  0.00    +0.147 C 
ATOM      5  C   UNL     1      31.448 -22.832 -14.996  0.00  0.00    +0.003 C 
ATOM      6  C   UNL     1      31.609 -22.962 -16.376  0.00  0.00    +0.038 C 
ENDROOT
BRANCH   4   7
ATOM      7  O   UNL     1      33.008 -23.444 -18.248  0.00  0.00    -0.436 OA
BRANCH   7   9
ATOM      8  N   UNL     1      32.777 -21.550 -19.590  0.00  0.00    -0.210 NA
ATOM      9  C   UNL     1      33.601 -22.393 -18.928  0.00  0.00    +0.230 C 
ATOM     10  C   UNL     1      34.979 -22.263 -18.893  0.00  0.00    +0.058 C 
ATOM     11  C   UNL     1      34.734 -20.308 -20.274  0.00  0.00    +0.091 C 
ATOM     12  C   UNL     1      35.550 -21.197 -19.582  0.00  0.00    +0.010 C 
ATOM     13  C   UNL     1      33.367 -20.526 -20.247  0.00  0.00    +0.106 C 
BRANCH  11  17
ATOM     14  F   UNL     1      34.831 -17.944 -20.624  0.00  0.00    -0.166 F 
ATOM     15  F   UNL     1      36.673 -19.056 -20.902  0.00  0.00    -0.166 F 
ATOM     16  F   UNL     1      35.072 -19.225 -22.364  0.00  0.00    -0.166 F 
ATOM     17  C   UNL     1      35.314 -19.160 -21.021  0.00  0.00    +0.420 C 
ENDBRANCH  11  17
ENDBRANCH   7   9
ENDBRANCH   4   7
BRANCH   1  18
ATOM     18  C   UNL     1      34.933 -23.662 -13.749  0.00  0.00    +0.027 C 
BRANCH  18  21
ATOM     19  O   UNL     1      41.021 -24.570 -14.052  0.00  0.00    -0.226 OA
ATOM     20  N   UNL     1      38.847 -25.255 -14.520  0.00  0.00    -0.246 N 
ATOM     21  C   UNL     1      36.107 -24.305 -14.483  0.00  0.00    +0.008 C 
ATOM     22  C   UNL     1      37.302 -23.341 -14.558  0.00  0.00    +0.022 C 
ATOM     23  C   UNL     1      36.522 -25.621 -13.804  0.00  0.00    +0.022 C 
ATOM     24  C   UNL     1      38.512 -24.007 -15.211  0.00  0.00    +0.097 C 
ATOM     25  C   UNL     1      37.748 -26.229 -14.483  0.00  0.00    +0.097 C 
ATOM     26  C   UNL     1      40.129 -25.416 -13.986  0.00  0.00    +0.402 C 
BRANCH  26  27
ATOM     27  O   UNL     1      40.376 -26.596 -13.348  0.00  0.00    -0.466 OA
ATOM     28  H   UNL     1      41.257 -26.897 -13.245  0.00  0.00    +0.297 HD
ENDBRANCH  26  27
ENDBRANCH  18  21
ENDBRANCH   1  18
TORSDOF 6
ENDMDL
MODEL 2
REMARK VINA RESULT:     -11.1      3.431      5.905
REMARK  Name = 25243828
REMARK  6 active torsions:
REMARK  status: ('A' for Active; 'I' for Inactive)
REMARK    1  A    between atoms: C_1  and  C_18
REMARK    2  A    between atoms: C_4  and  O_7
REMARK    3  A    between atoms: O_7  and  C_9
REMARK    4  A    between atoms: C_11  and  C_17
REMARK    5  A    between atoms: C_18  and  C_21
REMARK    6  A    between atoms: C_26  and  O_27
REMARK                            x       y       z     vdW  Elec       q    Type
REMARK                         _______ _______ _______ _____ _____    ______ ____
ROOT
ATOM      1  C   UNL     1      33.417 -23.996 -14.468  0.00  0.00    -0.019 C 
ATOM      2  C   UNL     1      33.056 -24.037 -15.814  0.00  0.00    +0.033 C 
ATOM      3  C   UNL     1      34.568 -23.312 -14.074  0.00  0.00    -0.004 C 
ATOM      4  C   UNL     1      33.847 -23.397 -16.768  0.00  0.00    +0.147 C 
ATOM      5  C   UNL     1      35.359 -22.672 -15.029  0.00  0.00    +0.003 C 
ATOM      6  C   UNL     1      34.998 -22.713 -16.376  0.00  0.00    +0.038 C 
ENDROOT
BRANCH   4   7
ATOM      7  O   UNL     1      33.497 -23.439 -18.083  0.00  0.00    -0.436 OA
BRANCH   7   9
ATOM      8  N   UNL     1      32.860 -21.619 -19.395  0.00  0.00    -0.210 NA
ATOM      9  C   UNL     1      33.861 -22.367 -18.881  0.00  0.00    +0.230 C 
ATOM     10  C   UNL     1      35.206 -22.123 -19.106  0.00  0.00    +0.058 C 
ATOM     11  C   UNL     1      34.543 -20.246 -20.455  0.00  0.00    +0.091 C 
ATOM     12  C   UNL     1      35.546 -21.039 -19.908  0.00  0.00    +0.010 C 
ATOM     13  C   UNL     1      33.228 -20.574 -20.171  0.00  0.00    +0.106 C 
BRANCH  11  17
ATOM     14  F   UNL     1      34.013 -18.909 -22.367  0.00  0.00    -0.166 F 
ATOM     15  F   UNL     1      34.867 -17.884 -20.656  0.00  0.00    -0.166 F 
ATOM     16  F   UNL     1      36.115 -19.175 -21.883  0.00  0.00    -0.166 F 
ATOM     17  C   UNL     1      34.875 -19.080 -21.319  0.00  0.00    +0.420 C 
ENDBRANCH  11  17
ENDBRANCH   7   9
ENDBRANCH   4   7
BRANCH   1  18
ATOM     18  C   UNL     1      32.566 -24.687 -13.438  0.00  0.00    +0.027 C 
BRANCH  18  21
ATOM     19  O   UNL     1      28.158 -22.090 -16.872  0.00  0.00    -0.226 OA
ATOM     20  N   UNL     1      28.815 -23.593 -15.222  0.00  0.00    -0.246 N 
ATOM     21  C   UNL     1      31.094 -24.308 -13.577  0.00  0.00    +0.008 C 
ATOM     22  C   UNL     1      30.945 -22.909 -14.196  0.00  0.00    +0.022 C 
ATOM     23  C   UNL     1      30.338 -25.350 -14.418  0.00  0.00    +0.022 C 
ATOM     24  C   UNL     1      29.475 -22.557 -14.423  0.00  0.00    +0.097 C 
ATOM     25  C   UNL     1      28.883 -24.936 -14.630  0.00  0.00    +0.097 C 
ATOM     26  C   UNL     1      28.194 -23.236 -16.423  0.00  0.00    +0.402 C 
BRANCH  26  27
ATOM     27  O   UNL     1      27.606 -24.246 -17.126  0.00  0.00    -0.466 OA
ATOM     28  H   UNL     1      27.912 -25.126 -17.024  0.00  0.00    +0.297 HD
ENDBRANCH  26  27
ENDBRANCH  18  21
ENDBRANCH   1  18
TORSDOF 6
ENDMDL
MODEL 3
REMARK VINA RESULT:     -11.1      5.158      8.807
REMARK  Name = 25243828
REMARK  6 active torsions:
REMARK  status: ('A' for Active; 'I' for Inactive)
REMARK    1  A    between atoms: C_1  and  C_18
REMARK    2  A    between atoms: C_4  and  O_7
REMARK    3  A    between atoms: O_7  and  C_9
REMARK    4  A    between atoms: C_11  and  C_17
REMARK    5  A    between atoms: C_18  and  C_21
REMARK    6  A    between atoms: C_26  and  O_27
REMARK                            x       y       z     vdW  Elec       q    Type
REMARK                         _______ _______ _______ _____ _____    ______ ____
ROOT
ATOM      1  C   UNL     1      35.176 -18.299 -22.108  0.00  0.00    -0.019 C 
ATOM      2  C   UNL     1      35.358 -16.925 -22.259  0.00  0.00    +0.033 C 
ATOM      3  C   UNL     1      34.527 -19.031 -23.103  0.00  0.00    -0.004 C 
ATOM      4  C   UNL     1      34.889 -16.281 -23.404  0.00  0.00    +0.147 C 
ATOM      5  C   UNL     1      34.059 -18.386 -24.249  0.00  0.00    +0.003 C 
ATOM      6  C   UNL     1      34.240 -17.011 -24.400  0.00  0.00    +0.038 C 
ENDROOT
BRANCH   4   7
ATOM      7  O   UNL     1      35.064 -14.939 -23.550  0.00  0.00    -0.436 OA
BRANCH   7   9
ATOM      8  N   UNL     1      33.835 -12.958 -23.464  0.00  0.00    -0.210 NA
ATOM      9  C   UNL     1      34.217 -14.098 -22.847  0.00  0.00    +0.230 C 
ATOM     10  C   UNL     1      33.813 -14.464 -21.574  0.00  0.00    +0.058 C 
ATOM     11  C   UNL     1      32.546 -12.421 -21.492  0.00  0.00    +0.091 C 
ATOM     12  C   UNL     1      32.960 -13.604 -20.889  0.00  0.00    +0.010 C 
ATOM     13  C   UNL     1      33.007 -12.147 -22.769  0.00  0.00    +0.106 C 
BRANCH  11  17
ATOM     14  F   UNL     1      31.921 -10.162 -21.012  0.00  0.00    -0.166 F 
ATOM     15  F   UNL     1      30.320 -11.622 -21.132  0.00  0.00    -0.166 F 
ATOM     16  F   UNL     1      31.671 -11.629 -19.427  0.00  0.00    -0.166 F 
ATOM     17  C   UNL     1      31.636 -11.480 -20.785  0.00  0.00    +0.420 C 
ENDBRANCH  11  17
ENDBRANCH   7   9
ENDBRANCH   4   7
BRANCH   1  18
ATOM     18  C   UNL     1      35.679 -18.995 -20.873  0.00  0.00    +0.027 C 
BRANCH  18  21
ATOM     19  O   UNL     1      33.941 -23.375 -16.903  0.00  0.00    -0.226 OA
ATOM     20  N   UNL     1      33.648 -22.228 -18.906  0.00  0.00    -0.246 N 
ATOM     21  C   UNL     1      34.974 -20.331 -20.653  0.00  0.00    +0.008 C 
ATOM     22  C   UNL     1      35.755 -21.206 -19.660  0.00  0.00    +0.022 C 
ATOM     23  C   UNL     1      33.534 -20.114 -20.159  0.00  0.00    +0.022 C 
ATOM     24  C   UNL     1      35.011 -22.507 -19.363  0.00  0.00    +0.097 C 
ATOM     25  C   UNL     1      32.848 -21.445 -19.858  0.00  0.00    +0.097 C 
ATOM     26  C   UNL     1      33.232 -22.714 -17.662  0.00  0.00    +0.402 C 
BRANCH  26  27
ATOM     27  O   UNL     1      31.956 -22.412 -17.289  0.00  0.00    -0.466 OA
ATOM     28  H   UNL     1      31.753 -22.277 -16.385  0.00  0.00    +0.297 HD
ENDBRANCH  26  27
ENDBRANCH  18  21
ENDBRANCH   1  18
TORSDOF 6
ENDMDL
MODEL 4
REMARK VINA RESULT:     -10.9      5.929     10.977
REMARK  Name = 25243828
REMARK  6 active torsions:
REMARK  status: ('A' for Active; 'I' for Inactive)
REMARK    1  A    between atoms: C_1  and  C_18
REMARK    2  A    between atoms: C_4  and  O_7
REMARK    3  A    between atoms: O_7  and  C_9
REMARK    4  A    between atoms: C_11  and  C_17
REMARK    5  A    between atoms: C_18  and  C_21
REMARK    6  A    between atoms: C_26  and  O_27
REMARK                            x       y       z     vdW  Elec       q    Type
REMARK                         _______ _______ _______ _____ _____    ______ ____
ROOT
ATOM      1  C   UNL     1      34.833 -16.463 -22.976  0.00  0.00    -0.019 C 
ATOM      2  C   UNL     1      35.547 -17.226 -22.052  0.00  0.00    +0.033 C 
ATOM      3  C   UNL     1      34.125 -17.091 -24.001  0.00  0.00    -0.004 C 
ATOM      4  C   UNL     1      35.553 -18.617 -22.153  0.00  0.00    +0.147 C 
ATOM      5  C   UNL     1      34.131 -18.482 -24.103  0.00  0.00    +0.003 C 
ATOM      6  C   UNL     1      34.845 -19.246 -23.178  0.00  0.00    +0.038 C 
ENDROOT
BRANCH   4   7
ATOM      7  O   UNL     1      36.250 -19.363 -21.253  0.00  0.00    -0.436 OA
BRANCH   7   9
ATOM      8  N   UNL     1      36.242 -20.949 -19.543  0.00  0.00    -0.210 NA
ATOM      9  C   UNL     1      35.531 -20.186 -20.403  0.00  0.00    +0.230 C 
ATOM     10  C   UNL     1      34.148 -20.182 -20.476  0.00  0.00    +0.058 C 
ATOM     11  C   UNL     1      34.145 -21.816 -18.710  0.00  0.00    +0.091 C 
ATOM     12  C   UNL     1      33.448 -21.015 -19.608  0.00  0.00    +0.010 C 
ATOM     13  C   UNL     1      35.529 -21.747 -18.716  0.00  0.00    +0.106 C 
BRANCH  11  17
ATOM     14  F   UNL     1      32.129 -22.351 -17.537  0.00  0.00    -0.166 F 
ATOM     15  F   UNL     1      33.352 -24.015 -18.203  0.00  0.00    -0.166 F 
ATOM     16  F   UNL     1      34.013 -22.779 -16.540  0.00  0.00    -0.166 F 
ATOM     17  C   UNL     1      33.425 -22.719 -17.771  0.00  0.00    +0.420 C 
ENDBRANCH  11  17
ENDBRANCH   7   9
ENDBRANCH   4   7
BRANCH   1  18
ATOM     18  C   UNL     1      34.827 -14.963 -22.870  0.00  0.00    +0.027 C 
BRANCH  18  21
ATOM     19  O   UNL     1      31.891 -11.061 -19.112  0.00  0.00    -0.226 OA
ATOM     20  N   UNL     1      31.933 -12.376 -21.031  0.00  0.00    -0.246 N 
ATOM     21  C   UNL     1      33.496 -14.442 -22.336  0.00  0.00    +0.008 C 
ATOM     22  C   UNL     1      33.570 -14.202 -20.820  0.00  0.00    +0.022 C 
ATOM     23  C   UNL     1      33.082 -13.152 -23.064  0.00  0.00    +0.022 C 
ATOM     24  C   UNL     1      32.271 -13.594 -20.290  0.00  0.00    +0.097 C 
ATOM     25  C   UNL     1      31.792 -12.579 -22.479  0.00  0.00    +0.097 C 
ATOM     26  C   UNL     1      31.770 -11.176 -20.332  0.00  0.00    +0.402 C 
BRANCH  26  27
ATOM     27  O   UNL     1      31.465 -10.076 -21.079  0.00  0.00    -0.466 OA
ATOM     28  H   UNL     1      32.131  -9.449 -21.281  0.00  0.00    +0.297 HD
ENDBRANCH  26  27
ENDBRANCH  18  21
ENDBRANCH   1  18
TORSDOF 6
ENDMDL
MODEL 5
REMARK VINA RESULT:     -10.4      3.767      5.711
REMARK  Name = 25243828
REMARK  6 active torsions:
REMARK  status: ('A' for Active; 'I' for Inactive)
REMARK    1  A    between atoms: C_1  and  C_18
REMARK    2  A    between atoms: C_4  and  O_7
REMARK    3  A    between atoms: O_7  and  C_9
REMARK    4  A    between atoms: C_11  and  C_17
REMARK    5  A    between atoms: C_18  and  C_21
REMARK    6  A    between atoms: C_26  and  O_27
REMARK                            x       y       z     vdW  Elec       q    Type
REMARK                         _______ _______ _______ _____ _____    ______ ____
ROOT
ATOM      1  C   UNL     1      34.477 -21.668 -19.142  0.00  0.00    -0.019 C 
ATOM      2  C   UNL     1      35.386 -20.867 -19.831  0.00  0.00    +0.033 C 
ATOM      3  C   UNL     1      33.107 -21.519 -19.362  0.00  0.00    -0.004 C 
ATOM      4  C   UNL     1      34.926 -19.914 -20.740  0.00  0.00    +0.147 C 
ATOM      5  C   UNL     1      32.647 -20.566 -20.271  0.00  0.00    +0.003 C 
ATOM      6  C   UNL     1      33.556 -19.764 -20.961  0.00  0.00    +0.038 C 
ENDROOT
BRANCH   4   7
ATOM      7  O   UNL     1      35.812 -19.129 -21.412  0.00  0.00    -0.436 OA
BRANCH   7   9
ATOM      8  N   UNL     1      35.166 -16.902 -21.156  0.00  0.00    -0.210 NA
ATOM      9  C   UNL     1      35.335 -17.960 -21.981  0.00  0.00    +0.230 C 
ATOM     10  C   UNL     1      35.063 -17.936 -23.339  0.00  0.00    +0.058 C 
ATOM     11  C   UNL     1      34.402 -15.639 -23.069  0.00  0.00    +0.091 C 
ATOM     12  C   UNL     1      34.588 -16.748 -23.886  0.00  0.00    +0.010 C 
ATOM     13  C   UNL     1      34.702 -15.766 -21.723  0.00  0.00    +0.106 C 
BRANCH  11  17
ATOM     14  F   UNL     1      32.643 -14.021 -23.183  0.00  0.00    -0.166 F 
ATOM     15  F   UNL     1      34.676 -13.276 -23.321  0.00  0.00    -0.166 F 
ATOM     16  F   UNL     1      33.804 -14.367 -24.988  0.00  0.00    -0.166 F 
ATOM     17  C   UNL     1      33.893 -14.356 -23.625  0.00  0.00    +0.420 C 
ENDBRANCH  11  17
ENDBRANCH   7   9
ENDBRANCH   4   7
BRANCH   1  18
ATOM     18  C   UNL     1      34.971 -22.695 -18.160  0.00  0.00    +0.027 C 
BRANCH  18  21
ATOM     19  O   UNL     1      31.971 -25.294 -13.446  0.00  0.00    -0.226 OA
ATOM     20  N   UNL     1      33.367 -23.633 -14.287  0.00  0.00    -0.246 N 
ATOM     21  C   UNL     1      34.323 -22.520 -16.788  0.00  0.00    +0.008 C 
ATOM     22  C   UNL     1      33.007 -23.309 -16.699  0.00  0.00    +0.022 C 
ATOM     23  C   UNL     1      35.286 -22.953 -15.670  0.00  0.00    +0.022 C 
ATOM     24  C   UNL     1      32.397 -23.214 -15.302  0.00  0.00    +0.097 C 
ATOM     25  C   UNL     1      34.616 -22.859 -14.300  0.00  0.00    +0.097 C 
ATOM     26  C   UNL     1      33.039 -24.681 -13.421  0.00  0.00    +0.402 C 
BRANCH  26  27
ATOM     27  O   UNL     1      33.987 -25.031 -12.506  0.00  0.00    -0.466 OA
ATOM     28  H   UNL     1      34.883 -25.111 -12.767  0.00  0.00    +0.297 HD
ENDBRANCH  26  27
ENDBRANCH  18  21
ENDBRANCH   1  18
TORSDOF 6
ENDMDL
MODEL 6
REMARK VINA RESULT:     -10.2      5.198      9.743
REMARK  Name = 25243828
REMARK  6 active torsions:
REMARK  status: ('A' for Active; 'I' for Inactive)
REMARK    1  A    between atoms: C_1  and  C_18
REMARK    2  A    between atoms: C_4  and  O_7
REMARK    3  A    between atoms: O_7  and  C_9
REMARK    4  A    between atoms: C_11  and  C_17
REMARK    5  A    between atoms: C_18  and  C_21
REMARK    6  A    between atoms: C_26  and  O_27
REMARK                            x       y       z     vdW  Elec       q    Type
REMARK                         _______ _______ _______ _____ _____    ______ ____
ROOT
ATOM      1  C   UNL     1      35.282 -19.582 -20.371  0.00  0.00    -0.019 C 
ATOM      2  C   UNL     1      34.082 -20.168 -19.970  0.00  0.00    +0.033 C 
ATOM      3  C   UNL     1      36.469 -20.313 -20.313  0.00  0.00    -0.004 C 
ATOM      4  C   UNL     1      34.068 -21.484 -19.509  0.00  0.00    +0.147 C 
ATOM      5  C   UNL     1      36.455 -21.629 -19.852  0.00  0.00    +0.003 C 
ATOM      6  C   UNL     1      35.255 -22.216 -19.450  0.00  0.00    +0.038 C 
ENDROOT
BRANCH   4   7
ATOM      7  O   UNL     1      32.897 -22.056 -19.115  0.00  0.00    -0.436 OA
BRANCH   7   9
ATOM      8  N   UNL     1      31.574 -22.579 -17.267  0.00  0.00    -0.210 NA
ATOM      9  C   UNL     1      32.810 -22.511 -17.810  0.00  0.00    +0.230 C 
ATOM     10  C   UNL     1      33.971 -22.868 -17.144  0.00  0.00    +0.058 C 
ATOM     11  C   UNL     1      32.601 -23.409 -15.242  0.00  0.00    +0.091 C 
ATOM     12  C   UNL     1      33.856 -23.325 -15.835  0.00  0.00    +0.010 C 
ATOM     13  C   UNL     1      31.501 -23.027 -15.993  0.00  0.00    +0.106 C 
BRANCH  11  17
ATOM     14  F   UNL     1      31.647 -23.096 -13.071  0.00  0.00    -0.166 F 
ATOM     15  F   UNL     1      31.895 -25.141 -13.751  0.00  0.00    -0.166 F 
ATOM     16  F   UNL     1      33.634 -23.970 -13.175  0.00  0.00    -0.166 F 
ATOM     17  C   UNL     1      32.446 -23.892 -13.843  0.00  0.00    +0.420 C 
ENDBRANCH  11  17
ENDBRANCH   7   9
ENDBRANCH   4   7
BRANCH   1  18
ATOM     18  C   UNL     1      35.299 -18.162 -20.867  0.00  0.00    +0.027 C 
BRANCH  18  21
ATOM     19  O   UNL     1      31.703 -17.833 -25.860  0.00  0.00    -0.226 OA
ATOM     20  N   UNL     1      33.740 -17.446 -24.805  0.00  0.00    -0.246 N 
ATOM     21  C   UNL     1      35.207 -18.096 -22.390  0.00  0.00    +0.008 C 
ATOM     22  C   UNL     1      34.063 -18.981 -22.909  0.00  0.00    +0.022 C 
ATOM     23  C   UNL     1      35.022 -16.645 -22.864  0.00  0.00    +0.022 C 
ATOM     24  C   UNL     1      33.904 -18.851 -24.423  0.00  0.00    +0.097 C 
ATOM     25  C   UNL     1      34.847 -16.579 -24.380  0.00  0.00    +0.097 C 
ATOM     26  C   UNL     1      32.600 -17.062 -25.519  0.00  0.00    +0.402 C 
BRANCH  26  27
ATOM     27  O   UNL     1      32.501 -15.740 -25.837  0.00  0.00    -0.466 OA
ATOM     28  H   UNL     1      32.149 -15.135 -25.214  0.00  0.00    +0.297 HD
ENDBRANCH  26  27
ENDBRANCH  18  21
ENDBRANCH   1  18
TORSDOF 6
ENDMDL
MODEL 7
REMARK VINA RESULT:     -10.1      5.153      9.501
REMARK  Name = 25243828
REMARK  6 active torsions:
REMARK  status: ('A' for Active; 'I' for Inactive)
REMARK    1  A    between atoms: C_1  and  C_18
REMARK    2  A    between atoms: C_4  and  O_7
REMARK    3  A    between atoms: O_7  and  C_9
REMARK    4  A    between atoms: C_11  and  C_17
REMARK    5  A    between atoms: C_18  and  C_21
REMARK    6  A    between atoms: C_26  and  O_27
REMARK                            x       y       z     vdW  Elec       q    Type
REMARK                         _______ _______ _______ _____ _____    ______ ____
ROOT
ATOM      1  C   UNL     1      36.031 -21.142 -19.430  0.00  0.00    -0.019 C 
ATOM      2  C   UNL     1      36.797 -21.050 -18.269  0.00  0.00    +0.033 C 
ATOM      3  C   UNL     1      34.839 -21.868 -19.425  0.00  0.00    -0.004 C 
ATOM      4  C   UNL     1      36.373 -21.686 -17.101  0.00  0.00    +0.147 C 
ATOM      5  C   UNL     1      34.415 -22.504 -18.257  0.00  0.00    +0.003 C 
ATOM      6  C   UNL     1      35.182 -22.412 -17.095  0.00  0.00    +0.038 C 
ENDROOT
BRANCH   4   7
ATOM      7  O   UNL     1      37.122 -21.599 -15.968  0.00  0.00    -0.436 OA
BRANCH   7   9
ATOM      8  N   UNL     1      38.151 -23.563 -15.246  0.00  0.00    -0.210 NA
ATOM      9  C   UNL     1      37.128 -22.689 -15.115  0.00  0.00    +0.230 C 
ATOM     10  C   UNL     1      36.107 -22.824 -14.188  0.00  0.00    +0.058 C 
ATOM     11  C   UNL     1      37.175 -24.847 -13.446  0.00  0.00    +0.091 C 
ATOM     12  C   UNL     1      36.139 -23.926 -13.341  0.00  0.00    +0.010 C 
ATOM     13  C   UNL     1      38.148 -24.623 -14.406  0.00  0.00    +0.106 C 
BRANCH  11  17
ATOM     14  F   UNL     1      36.328 -26.007 -11.532  0.00  0.00    -0.166 F 
ATOM     15  F   UNL     1      36.998 -27.220 -13.201  0.00  0.00    -0.166 F 
ATOM     16  F   UNL     1      38.453 -26.190 -11.956  0.00  0.00    -0.166 F 
ATOM     17  C   UNL     1      37.235 -26.038 -12.555  0.00  0.00    +0.420 C 
ENDBRANCH  11  17
ENDBRANCH   7   9
ENDBRANCH   4   7
BRANCH   1  18
ATOM     18  C   UNL     1      36.487 -20.460 -20.690  0.00  0.00    +0.027 C 
BRANCH  18  21
ATOM     19  O   UNL     1      35.303 -15.225 -23.717  0.00  0.00    -0.226 OA
ATOM     20  N   UNL     1      34.653 -17.344 -23.008  0.00  0.00    -0.246 N 
ATOM     21  C   UNL     1      35.440 -19.479 -21.210  0.00  0.00    +0.008 C 
ATOM     22  C   UNL     1      35.896 -18.026 -20.998  0.00  0.00    +0.022 C 
ATOM     23  C   UNL     1      35.141 -19.735 -22.697  0.00  0.00    +0.022 C 
ATOM     24  C   UNL     1      34.897 -17.038 -21.596  0.00  0.00    +0.097 C 
ATOM     25  C   UNL     1      34.155 -18.705 -23.246  0.00  0.00    +0.097 C 
ATOM     26  C   UNL     1      34.893 -16.358 -23.971  0.00  0.00    +0.402 C 
BRANCH  26  27
ATOM     27  O   UNL     1      34.656 -16.707 -25.268  0.00  0.00    -0.466 OA
ATOM     28  H   UNL     1      35.323 -17.137 -25.765  0.00  0.00    +0.297 HD
ENDBRANCH  26  27
ENDBRANCH  18  21
ENDBRANCH   1  18
TORSDOF 6
ENDMDL
MODEL 8
REMARK VINA RESULT:     -10.1      3.412      5.203
REMARK  Name = 25243828
REMARK  6 active torsions:
REMARK  status: ('A' for Active; 'I' for Inactive)
REMARK    1  A    between atoms: C_1  and  C_18
REMARK    2  A    between atoms: C_4  and  O_7
REMARK    3  A    between atoms: O_7  and  C_9
REMARK    4  A    between atoms: C_11  and  C_17
REMARK    5  A    between atoms: C_18  and  C_21
REMARK    6  A    between atoms: C_26  and  O_27
REMARK                            x       y       z     vdW  Elec       q    Type
REMARK                         _______ _______ _______ _____ _____    ______ ____
ROOT
ATOM      1  C   UNL     1      34.472 -21.714 -19.271  0.00  0.00    -0.019 C 
ATOM      2  C   UNL     1      35.384 -20.873 -19.909  0.00  0.00    +0.033 C 
ATOM      3  C   UNL     1      33.101 -21.514 -19.440  0.00  0.00    -0.004 C 
ATOM      4  C   UNL     1      34.926 -19.832 -20.716  0.00  0.00    +0.147 C 
ATOM      5  C   UNL     1      32.643 -20.472 -20.247  0.00  0.00    +0.003 C 
ATOM      6  C   UNL     1      33.555 -19.631 -20.886  0.00  0.00    +0.038 C 
ENDROOT
BRANCH   4   7
ATOM      7  O   UNL     1      35.815 -19.010 -21.337  0.00  0.00    -0.436 OA
BRANCH   7   9
ATOM      8  N   UNL     1      35.135 -17.824 -23.227  0.00  0.00    -0.210 NA
ATOM      9  C   UNL     1      35.329 -17.836 -21.889  0.00  0.00    +0.230 C 
ATOM     10  C   UNL     1      35.072 -16.758 -21.058  0.00  0.00    +0.058 C 
ATOM     11  C   UNL     1      34.370 -15.541 -23.010  0.00  0.00    +0.091 C 
ATOM     12  C   UNL     1      34.583 -15.592 -21.637  0.00  0.00    +0.010 C 
ATOM     13  C   UNL     1      34.659 -16.673 -23.754  0.00  0.00    +0.106 C 
BRANCH  11  17
ATOM     14  F   UNL     1      33.780 -14.389 -25.023  0.00  0.00    -0.166 F 
ATOM     15  F   UNL     1      32.585 -13.969 -23.262  0.00  0.00    -0.166 F 
ATOM     16  F   UNL     1      34.618 -13.208 -23.401  0.00  0.00    -0.166 F 
ATOM     17  C   UNL     1      33.849 -14.308 -23.660  0.00  0.00    +0.420 C 
ENDBRANCH  11  17
ENDBRANCH   7   9
ENDBRANCH   4   7
BRANCH   1  18
ATOM     18  C   UNL     1      34.964 -22.836 -18.398  0.00  0.00    +0.027 C 
BRANCH  18  21
ATOM     19  O   UNL     1      36.086 -24.389 -12.542  0.00  0.00    -0.226 OA
ATOM     20  N   UNL     1      36.202 -22.853 -14.285  0.00  0.00    -0.246 N 
ATOM     21  C   UNL     1      35.194 -22.373 -16.962  0.00  0.00    +0.008 C 
ATOM     22  C   UNL     1      34.460 -23.287 -15.968  0.00  0.00    +0.022 C 
ATOM     23  C   UNL     1      36.696 -22.324 -16.637  0.00  0.00    +0.022 C 
ATOM     24  C   UNL     1      34.756 -22.887 -14.523  0.00  0.00    +0.097 C 
ATOM     25  C   UNL     1      36.931 -21.941 -15.177  0.00  0.00    +0.097 C 
ATOM     26  C   UNL     1      36.745 -23.646 -13.270  0.00  0.00    +0.402 C 
BRANCH  26  27
ATOM     27  O   UNL     1      38.097 -23.577 -13.104  0.00  0.00    -0.466 OA
ATOM     28  H   UNL     1      38.548 -24.262 -12.651  0.00  0.00    +0.297 HD
ENDBRANCH  26  27
ENDBRANCH  18  21
ENDBRANCH   1  18
TORSDOF 6
ENDMDL
MODEL 9
REMARK VINA RESULT:     -10.0      2.818      4.205
REMARK  Name = 25243828
REMARK  6 active torsions:
REMARK  status: ('A' for Active; 'I' for Inactive)
REMARK    1  A    between atoms: C_1  and  C_18
REMARK    2  A    between atoms: C_4  and  O_7
REMARK    3  A    between atoms: O_7  and  C_9
REMARK    4  A    between atoms: C_11  and  C_17
REMARK    5  A    between atoms: C_18  and  C_21
REMARK    6  A    between atoms: C_26  and  O_27
REMARK                            x       y       z     vdW  Elec       q    Type
REMARK                         _______ _______ _______ _____ _____    ______ ____
ROOT
ATOM      1  C   UNL     1      35.820 -21.837 -17.546  0.00  0.00    -0.019 C 
ATOM      2  C   UNL     1      36.435 -21.283 -18.668  0.00  0.00    +0.033 C 
ATOM      3  C   UNL     1      34.469 -22.185 -17.591  0.00  0.00    -0.004 C 
ATOM      4  C   UNL     1      35.700 -21.075 -19.835  0.00  0.00    +0.147 C 
ATOM      5  C   UNL     1      33.734 -21.977 -18.758  0.00  0.00    +0.003 C 
ATOM      6  C   UNL     1      34.350 -21.423 -19.881  0.00  0.00    +0.038 C 
ENDROOT
BRANCH   4   7
ATOM      7  O   UNL     1      36.300 -20.532 -20.930  0.00  0.00    -0.436 OA
BRANCH   7   9
ATOM      8  N   UNL     1      35.776 -18.297 -20.516  0.00  0.00    -0.210 NA
ATOM      9  C   UNL     1      35.814 -19.322 -21.396  0.00  0.00    +0.230 C 
ATOM     10  C   UNL     1      35.403 -19.227 -22.716  0.00  0.00    +0.058 C 
ATOM     11  C   UNL     1      34.867 -16.922 -22.284  0.00  0.00    +0.091 C 
ATOM     12  C   UNL     1      34.922 -18.000 -23.161  0.00  0.00    +0.010 C 
ATOM     13  C   UNL     1      35.302 -17.120 -20.984  0.00  0.00    +0.106 C 
BRANCH  11  17
ATOM     14  F   UNL     1      35.295 -14.827 -23.357  0.00  0.00    -0.166 F 
ATOM     15  F   UNL     1      33.317 -15.678 -23.614  0.00  0.00    -0.166 F 
ATOM     16  F   UNL     1      33.894 -14.834 -21.696  0.00  0.00    -0.166 F 
ATOM     17  C   UNL     1      34.356 -15.597 -22.729  0.00  0.00    +0.420 C 
ENDBRANCH  11  17
ENDBRANCH   7   9
ENDBRANCH   4   7
BRANCH   1  18
ATOM     18  C   UNL     1      36.610 -22.060 -16.286  0.00  0.00    +0.027 C 
BRANCH  18  21
ATOM     19  O   UNL     1      37.082 -25.709 -11.343  0.00  0.00    -0.226 OA
ATOM     20  N   UNL     1      35.932 -25.015 -13.243  0.00  0.00    -0.246 N 
ATOM     21  C   UNL     1      36.248 -23.386 -15.621  0.00  0.00    +0.008 C 
ATOM     22  C   UNL     1      37.455 -23.969 -14.868  0.00  0.00    +0.022 C 
ATOM     23  C   UNL     1      35.054 -23.212 -14.669  0.00  0.00    +0.022 C 
ATOM     24  C   UNL     1      37.079 -25.249 -14.125  0.00  0.00    +0.097 C 
ATOM     25  C   UNL     1      34.738 -24.516 -13.938  0.00  0.00    +0.097 C 
ATOM     26  C   UNL     1      36.058 -25.281 -11.876  0.00  0.00    +0.402 C 
BRANCH  26  27
ATOM     27  O   UNL     1      34.959 -25.034 -11.107  0.00  0.00    -0.466 OA
ATOM     28  H   UNL     1      34.116 -24.956 -11.507  0.00  0.00    +0.297 HD
ENDBRANCH  26  27
ENDBRANCH  18  21
ENDBRANCH   1  18
TORSDOF 6
ENDMDL
