MODEL 1
REMARK VINA RESULT:     -11.6      0.000      0.000
REMARK  Name = 42628060
REMARK  6 active torsions:
REMARK  status: ('A' for Active; 'I' for Inactive)
REMARK    1  A    between atoms: N_2  and  C_6
REMARK    2  A    between atoms: C_3  and  C_19
REMARK    3  A    between atoms: C_9  and  N_13
REMARK    4  A    between atoms: C_19  and  N_20
REMARK    5  A    between atoms: C_21  and  N_27
REMARK    6  A    between atoms: C_28  and  C_32
REMARK                            x       y       z     vdW  Elec       q    Type
REMARK                         _______ _______ _______ _____ _____    ______ ____
ROOT
ATOM      1  O   UNL     1      32.637 -13.518 -22.880  0.00  0.00    -0.277 OA
ATOM      2  N   UNL     1      34.537 -14.522 -23.827  0.00  0.00    -0.284 N 
ATOM      3  C   UNL     1      33.565 -13.534 -23.683  0.00  0.00    +0.205 C 
ATOM      4  H   UNL     1      35.208 -14.372 -24.531  0.00  0.00    +0.155 HD
ENDROOT
BRANCH   2   6
ATOM      5  F   UNL     1      34.573 -17.019 -25.062  0.00  0.00    -0.203 F 
ATOM      6  C   UNL     1      34.672 -15.715 -23.079  0.00  0.00    +0.078 C 
ATOM      7  C   UNL     1      34.686 -16.950 -23.728  0.00  0.00    +0.155 C 
ATOM      8  C   UNL     1      34.789 -15.656 -21.690  0.00  0.00    +0.018 C 
ATOM      9  C   UNL     1      34.935 -18.065 -21.599  0.00  0.00    +0.061 C 
ATOM     10  C   UNL     1      34.818 -18.125 -22.988  0.00  0.00    +0.046 C 
ATOM     11  C   UNL     1      34.921 -16.831 -20.950  0.00  0.00    +0.017 C 
BRANCH   9  13
ATOM     12  O   UNL     1      37.412 -19.088 -20.512  0.00  0.00    -0.269 OA
ATOM     13  N   UNL     1      35.071 -19.287 -20.830  0.00  0.00    -0.233 N 
ATOM     14  C   UNL     1      36.353 -19.702 -20.385  0.00  0.00    +0.257 C 
ATOM     15  C   UNL     1      33.947 -20.048 -20.503  0.00  0.00    +0.072 C 
ATOM     16  C   UNL     1      36.411 -20.997 -19.637  0.00  0.00    +0.059 C 
ATOM     17  C   UNL     1      34.021 -21.185 -19.804  0.00  0.00    +0.017 C 
ATOM     18  C   UNL     1      35.293 -21.675 -19.366  0.00  0.00    +0.006 C 
ENDBRANCH   9  13
ENDBRANCH   2   6
BRANCH   3  19
ATOM     19  C   UNL     1      33.792 -12.422 -24.693  0.00  0.00    +0.010 C 
BRANCH  19  20
ATOM     20  N   UNL     1      34.375 -11.270 -24.021  0.00  0.00    +0.394 N 
ATOM     21  C   UNL     1      34.147  -9.146 -23.089  0.00  0.00    +0.049 C 
ATOM     22  C   UNL     1      35.255  -9.103 -24.145  0.00  0.00    -0.005 C 
ATOM     23  C   UNL     1      33.362 -10.417 -23.397  0.00  0.00    -0.057 C 
ATOM     24  C   UNL     1      35.091 -10.390 -24.944  0.00  0.00    -0.075 C 
ATOM     25  H   UNL     1      35.001 -11.679 -23.328  0.00  0.00    -0.079 HD
BRANCH  21  27
ATOM     26  O   UNL     1      33.036  -7.804 -20.807  0.00  0.00    -0.270 OA
ATOM     27  N   UNL     1      33.315  -7.974 -23.103  0.00  0.00    -0.304 N 
ATOM     28  C   UNL     1      32.820  -7.391 -21.943  0.00  0.00    +0.252 C 
ATOM     29  H   UNL     1      33.086  -7.568 -23.971  0.00  0.00    +0.150 HD
BRANCH  28  32
ATOM     30 CL   UNL     1      30.490  -2.820 -24.012  0.00  0.00    -0.075 Cl
ATOM     31  S   UNL     1      32.163  -5.223 -23.520  0.00  0.00    -0.071 S 
ATOM     32  C   UNL     1      31.953  -6.198 -22.129  0.00  0.00    +0.084 C 
ATOM     33  C   UNL     1      30.947  -5.727 -21.314  0.00  0.00    +0.012 C 
ATOM     34  C   UNL     1      30.342  -4.549 -21.840  0.00  0.00    +0.019 C 
ATOM     35  C   UNL     1      30.907  -4.165 -23.035  0.00  0.00    +0.087 C 
ENDBRANCH  28  32
ENDBRANCH  21  27
ENDBRANCH  19  20
ENDBRANCH   3  19
TORSDOF 6
ENDMDL
MODEL 2
REMARK VINA RESULT:     -11.1      5.471     11.694
REMARK  Name = 42628060
REMARK  6 active torsions:
REMARK  status: ('A' for Active; 'I' for Inactive)
REMARK    1  A    between atoms: N_2  and  C_6
REMARK    2  A    between atoms: C_3  and  C_19
REMARK    3  A    between atoms: C_9  and  N_13
REMARK    4  A    between atoms: C_19  and  N_20
REMARK    5  A    between atoms: C_21  and  N_27
REMARK    6  A    between atoms: C_28  and  C_32
REMARK                            x       y       z     vdW  Elec       q    Type
REMARK                         _______ _______ _______ _____ _____    ______ ____
ROOT
ATOM      1  O   UNL     1      34.190 -15.282 -26.202  0.00  0.00    -0.277 OA
ATOM      2  N   UNL     1      33.279 -14.984 -24.058  0.00  0.00    -0.284 N 
ATOM      3  C   UNL     1      33.684 -15.717 -25.172  0.00  0.00    +0.205 C 
ATOM      4  H   UNL     1      32.886 -15.499 -23.318  0.00  0.00    +0.155 HD
ENDROOT
BRANCH   2   6
ATOM      5  F   UNL     1      32.627 -13.801 -21.621  0.00  0.00    -0.203 F 
ATOM      6  C   UNL     1      33.367 -13.585 -23.868  0.00  0.00    +0.078 C 
ATOM      7  C   UNL     1      33.033 -13.024 -22.635  0.00  0.00    +0.155 C 
ATOM      8  C   UNL     1      33.787 -12.765 -24.916  0.00  0.00    +0.018 C 
ATOM      9  C   UNL     1      33.540 -10.825 -23.498  0.00  0.00    +0.061 C 
ATOM     10  C   UNL     1      33.120 -11.643 -22.450  0.00  0.00    +0.046 C 
ATOM     11  C   UNL     1      33.874 -11.385 -24.731  0.00  0.00    +0.017 C 
BRANCH   9  13
ATOM     12  O   UNL     1      31.417  -9.137 -22.493  0.00  0.00    -0.269 OA
ATOM     13  N   UNL     1      33.629  -9.390 -23.307  0.00  0.00    -0.233 N 
ATOM     14  C   UNL     1      32.500  -8.667 -22.843  0.00  0.00    +0.257 C 
ATOM     15  C   UNL     1      34.827  -8.715 -23.555  0.00  0.00    +0.072 C 
ATOM     16  C   UNL     1      32.664  -7.185 -22.717  0.00  0.00    +0.059 C 
ATOM     17  C   UNL     1      34.957  -7.393 -23.403  0.00  0.00    +0.017 C 
ATOM     18  C   UNL     1      33.838  -6.607 -22.978  0.00  0.00    +0.006 C 
ENDBRANCH   9  13
ENDBRANCH   2   6
BRANCH   3  19
ATOM     19  C   UNL     1      33.407 -17.195 -24.957  0.00  0.00    +0.010 C 
BRANCH  19  20
ATOM     20  N   UNL     1      34.435 -17.761 -24.098  0.00  0.00    +0.394 N 
ATOM     21  C   UNL     1      35.078 -19.263 -22.435  0.00  0.00    +0.049 C 
ATOM     22  C   UNL     1      35.480 -17.851 -22.003  0.00  0.00    -0.005 C 
ATOM     23  C   UNL     1      34.044 -19.056 -23.537  0.00  0.00    -0.057 C 
ATOM     24  C   UNL     1      34.716 -16.918 -22.935  0.00  0.00    -0.075 C 
ATOM     25  H   UNL     1      35.248 -17.845 -24.707  0.00  0.00    -0.079 HD
BRANCH  21  27
ATOM     26  O   UNL     1      36.536 -20.153 -20.127  0.00  0.00    -0.270 OA
ATOM     27  N   UNL     1      34.567 -20.056 -21.351  0.00  0.00    -0.304 N 
ATOM     28  C   UNL     1      35.349 -20.442 -20.269  0.00  0.00    +0.252 C 
ATOM     29  H   UNL     1      33.624 -20.337 -21.375  0.00  0.00    +0.150 HD
BRANCH  28  32
ATOM     30 CL   UNL     1      34.401 -23.684 -15.889  0.00  0.00    -0.075 Cl
ATOM     31  S   UNL     1      35.621 -21.991 -18.001  0.00  0.00    -0.071 S 
ATOM     32  C   UNL     1      34.679 -21.282 -19.243  0.00  0.00    +0.084 C 
ATOM     33  C   UNL     1      33.344 -21.599 -19.125  0.00  0.00    +0.012 C 
ATOM     34  C   UNL     1      33.091 -22.435 -17.999  0.00  0.00    +0.019 C 
ATOM     35  C   UNL     1      34.242 -22.724 -17.300  0.00  0.00    +0.087 C 
ENDBRANCH  28  32
ENDBRANCH  21  27
ENDBRANCH  19  20
ENDBRANCH   3  19
TORSDOF 6
ENDMDL
MODEL 3
REMARK VINA RESULT:     -11.1      7.523     13.837
REMARK  Name = 42628060
REMARK  6 active torsions:
REMARK  status: ('A' for Active; 'I' for Inactive)
REMARK    1  A    between atoms: N_2  and  C_6
REMARK    2  A    between atoms: C_3  and  C_19
REMARK    3  A    between atoms: C_9  and  N_13
REMARK    4  A    between atoms: C_19  and  N_20
REMARK    5  A    between atoms: C_21  and  N_27
REMARK    6  A    between atoms: C_28  and  C_32
REMARK                            x       y       z     vdW  Elec       q    Type
REMARK                         _______ _______ _______ _____ _____    ______ ____
ROOT
ATOM      1  O   UNL     1      33.364 -20.156 -20.421  0.00  0.00    -0.277 OA
ATOM      2  N   UNL     1      35.413 -19.466 -21.337  0.00  0.00    -0.284 N 
ATOM      3  C   UNL     1      34.568 -20.298 -20.604  0.00  0.00    +0.205 C 
ATOM      4  H   UNL     1      36.359 -19.732 -21.374  0.00  0.00    +0.155 HD
ENDROOT
BRANCH   2   6
ATOM      5  F   UNL     1      34.542 -19.535 -23.982  0.00  0.00    -0.203 F 
ATOM      6  C   UNL     1      35.067 -18.284 -22.033  0.00  0.00    +0.078 C 
ATOM      7  C   UNL     1      34.635 -18.353 -23.357  0.00  0.00    +0.155 C 
ATOM      8  C   UNL     1      35.161 -17.048 -21.394  0.00  0.00    +0.018 C 
ATOM      9  C   UNL     1      34.390 -15.950 -23.402  0.00  0.00    +0.061 C 
ATOM     10  C   UNL     1      34.295 -17.185 -24.042  0.00  0.00    +0.046 C 
ATOM     11  C   UNL     1      34.822 -15.880 -22.078  0.00  0.00    +0.017 C 
BRANCH   9  13
ATOM     12  O   UNL     1      33.380 -15.832 -26.110  0.00  0.00    -0.269 OA
ATOM     13  N   UNL     1      34.038 -14.736 -24.114  0.00  0.00    -0.233 N 
ATOM     14  C   UNL     1      33.590 -14.809 -25.458  0.00  0.00    +0.257 C 
ATOM     15  C   UNL     1      34.116 -13.494 -23.479  0.00  0.00    +0.072 C 
ATOM     16  C   UNL     1      33.292 -13.507 -26.133  0.00  0.00    +0.059 C 
ATOM     17  C   UNL     1      33.813 -12.347 -24.094  0.00  0.00    +0.017 C 
ATOM     18  C   UNL     1      33.395 -12.357 -25.464  0.00  0.00    +0.006 C 
ENDBRANCH   9  13
ENDBRANCH   2   6
BRANCH   3  19
ATOM     19  C   UNL     1      35.354 -21.460 -20.020  0.00  0.00    +0.010 C 
BRANCH  19  20
ATOM     20  N   UNL     1      35.023 -21.608 -18.610  0.00  0.00    +0.394 N 
ATOM     21  C   UNL     1      35.603 -22.296 -16.460  0.00  0.00    +0.049 C 
ATOM     22  C   UNL     1      34.282 -22.964 -16.850  0.00  0.00    -0.005 C 
ATOM     23  C   UNL     1      36.208 -21.826 -17.779  0.00  0.00    -0.057 C 
ATOM     24  C   UNL     1      34.168 -22.767 -18.357  0.00  0.00    -0.075 C 
ATOM     25  H   UNL     1      34.553 -20.734 -18.374  0.00  0.00    -0.079 HD
BRANCH  21  27
ATOM     26  O   UNL     1      35.383 -23.054 -13.700  0.00  0.00    -0.270 OA
ATOM     27  N   UNL     1      36.482 -23.174 -15.739  0.00  0.00    -0.304 N 
ATOM     28  C   UNL     1      36.298 -23.486 -14.398  0.00  0.00    +0.252 C 
ATOM     29  H   UNL     1      37.247 -23.572 -16.215  0.00  0.00    +0.150 HD
BRANCH  28  32
ATOM     30 CL   UNL     1      40.825 -26.555 -13.571  0.00  0.00    -0.075 Cl
ATOM     31  S   UNL     1      38.725 -24.770 -14.675  0.00  0.00    -0.071 S 
ATOM     32  C   UNL     1      37.310 -24.389 -13.790  0.00  0.00    +0.084 C 
ATOM     33  C   UNL     1      37.290 -25.003 -12.557  0.00  0.00    +0.012 C 
ATOM     34  C   UNL     1      38.452 -25.797 -12.336  0.00  0.00    +0.019 C 
ATOM     35  C   UNL     1      39.316 -25.759 -13.408  0.00  0.00    +0.087 C 
ENDBRANCH  28  32
ENDBRANCH  21  27
ENDBRANCH  19  20
ENDBRANCH   3  19
TORSDOF 6
ENDMDL
MODEL 4
REMARK VINA RESULT:     -10.9      5.665     12.039
REMARK  Name = 42628060
REMARK  6 active torsions:
REMARK  status: ('A' for Active; 'I' for Inactive)
REMARK    1  A    between atoms: N_2  and  C_6
REMARK    2  A    between atoms: C_3  and  C_19
REMARK    3  A    between atoms: C_9  and  N_13
REMARK    4  A    between atoms: C_19  and  N_20
REMARK    5  A    between atoms: C_21  and  N_27
REMARK    6  A    between atoms: C_28  and  C_32
REMARK                            x       y       z     vdW  Elec       q    Type
REMARK                         _______ _______ _______ _____ _____    ______ ____
ROOT
ATOM      1  O   UNL     1      35.671 -15.466 -23.790  0.00  0.00    -0.277 OA
ATOM      2  N   UNL     1      33.382 -15.003 -23.542  0.00  0.00    -0.284 N 
ATOM      3  C   UNL     1      34.500 -15.821 -23.696  0.00  0.00    +0.205 C 
ATOM      4  H   UNL     1      32.513 -15.462 -23.489  0.00  0.00    +0.155 HD
ENDROOT
BRANCH   2   6
ATOM      5  F   UNL     1      32.356 -13.708 -21.299  0.00  0.00    -0.203 F 
ATOM      6  C   UNL     1      33.351 -13.592 -23.453  0.00  0.00    +0.078 C 
ATOM      7  C   UNL     1      32.830 -12.974 -22.316  0.00  0.00    +0.155 C 
ATOM      8  C   UNL     1      33.839 -12.818 -24.506  0.00  0.00    +0.018 C 
ATOM      9  C   UNL     1      33.289 -10.808 -23.284  0.00  0.00    +0.061 C 
ATOM     10  C   UNL     1      32.800 -11.581 -22.231  0.00  0.00    +0.046 C 
ATOM     11  C   UNL     1      33.809 -11.425 -24.421  0.00  0.00    +0.017 C 
BRANCH   9  13
ATOM     12  O   UNL     1      35.562  -9.060 -23.660  0.00  0.00    -0.269 OA
ATOM     13  N   UNL     1      33.257  -9.361 -23.196  0.00  0.00    -0.233 N 
ATOM     14  C   UNL     1      34.453  -8.616 -23.362  0.00  0.00    +0.257 C 
ATOM     15  C   UNL     1      32.052  -8.691 -22.971  0.00  0.00    +0.072 C 
ATOM     16  C   UNL     1      34.339  -7.132 -23.211  0.00  0.00    +0.059 C 
ATOM     17  C   UNL     1      31.972  -7.360 -22.873  0.00  0.00    +0.017 C 
ATOM     18  C   UNL     1      33.153  -6.560 -22.990  0.00  0.00    +0.006 C 
ENDBRANCH   9  13
ENDBRANCH   2   6
BRANCH   3  19
ATOM     19  C   UNL     1      34.081 -17.280 -23.746  0.00  0.00    +0.010 C 
BRANCH  19  20
ATOM     20  N   UNL     1      34.992 -18.073 -22.934  0.00  0.00    +0.394 N 
ATOM     21  C   UNL     1      35.351 -19.740 -21.344  0.00  0.00    +0.049 C 
ATOM     22  C   UNL     1      36.032 -18.454 -20.870  0.00  0.00    -0.005 C 
ATOM     23  C   UNL     1      34.361 -19.287 -22.413  0.00  0.00    -0.057 C 
ATOM     24  C   UNL     1      35.453 -17.351 -21.748  0.00  0.00    -0.075 C 
ATOM     25  H   UNL     1      35.762 -18.290 -23.565  0.00  0.00    -0.079 HD
BRANCH  21  27
ATOM     26  O   UNL     1      36.605 -21.554 -19.506  0.00  0.00    -0.270 OA
ATOM     27  N   UNL     1      34.711 -20.460 -20.278  0.00  0.00    -0.304 N 
ATOM     28  C   UNL     1      35.401 -21.321 -19.434  0.00  0.00    +0.252 C 
ATOM     29  H   UNL     1      33.743 -20.338 -20.141  0.00  0.00    +0.150 HD
BRANCH  28  32
ATOM     30 CL   UNL     1      33.831 -23.881 -14.788  0.00  0.00    -0.075 Cl
ATOM     31  S   UNL     1      35.342 -22.501 -16.940  0.00  0.00    -0.071 S 
ATOM     32  C   UNL     1      34.589 -22.011 -18.397  0.00  0.00    +0.084 C 
ATOM     33  C   UNL     1      33.251 -22.336 -18.423  0.00  0.00    +0.012 C 
ATOM     34  C   UNL     1      32.838 -22.996 -17.230  0.00  0.00    +0.019 C 
ATOM     35  C   UNL     1      33.876 -23.151 -16.338  0.00  0.00    +0.087 C 
ENDBRANCH  28  32
ENDBRANCH  21  27
ENDBRANCH  19  20
ENDBRANCH   3  19
TORSDOF 6
ENDMDL
MODEL 5
REMARK VINA RESULT:     -10.7      5.179      8.639
REMARK  Name = 42628060
REMARK  6 active torsions:
REMARK  status: ('A' for Active; 'I' for Inactive)
REMARK    1  A    between atoms: N_2  and  C_6
REMARK    2  A    between atoms: C_3  and  C_19
REMARK    3  A    between atoms: C_9  and  N_13
REMARK    4  A    between atoms: C_19  and  N_20
REMARK    5  A    between atoms: C_21  and  N_27
REMARK    6  A    between atoms: C_28  and  C_32
REMARK                            x       y       z     vdW  Elec       q    Type
REMARK                         _______ _______ _______ _____ _____    ______ ____
ROOT
ATOM      1  O   UNL     1      36.654 -20.441 -19.507  0.00  0.00    -0.277 OA
ATOM      2  N   UNL     1      34.866 -21.720 -18.679  0.00  0.00    -0.284 N 
ATOM      3  C   UNL     1      35.513 -20.887 -19.589  0.00  0.00    +0.205 C 
ATOM      4  H   UNL     1      33.943 -21.977 -18.905  0.00  0.00    +0.155 HD
ENDROOT
BRANCH   2   6
ATOM      5  F   UNL     1      33.262 -23.156 -16.910  0.00  0.00    -0.203 F 
ATOM      6  C   UNL     1      35.381 -22.238 -17.467  0.00  0.00    +0.078 C 
ATOM      7  C   UNL     1      34.551 -22.953 -16.603  0.00  0.00    +0.155 C 
ATOM      8  C   UNL     1      36.720 -22.032 -17.136  0.00  0.00    +0.018 C 
ATOM      9  C   UNL     1      36.401 -23.256 -15.079  0.00  0.00    +0.061 C 
ATOM     10  C   UNL     1      35.061 -23.463 -15.409  0.00  0.00    +0.046 C 
ATOM     11  C   UNL     1      37.230 -22.542 -15.942  0.00  0.00    +0.017 C 
BRANCH   9  13
ATOM     12  O   UNL     1      37.620 -25.859 -14.756  0.00  0.00    -0.269 OA
ATOM     13  N   UNL     1      36.931 -23.785 -13.837  0.00  0.00    -0.233 N 
ATOM     14  C   UNL     1      37.469 -25.097 -13.800  0.00  0.00    +0.257 C 
ATOM     15  C   UNL     1      36.936 -23.004 -12.679  0.00  0.00    +0.072 C 
ATOM     16  C   UNL     1      37.953 -25.582 -12.470  0.00  0.00    +0.059 C 
ATOM     17  C   UNL     1      37.404 -23.450 -11.508  0.00  0.00    +0.017 C 
ATOM     18  C   UNL     1      37.922 -24.781 -11.403  0.00  0.00    +0.006 C 
ENDBRANCH   9  13
ENDBRANCH   2   6
BRANCH   3  19
ATOM     19  C   UNL     1      34.593 -20.569 -20.756  0.00  0.00    +0.010 C 
BRANCH  19  20
ATOM     20  N   UNL     1      35.167 -19.488 -21.544  0.00  0.00    +0.394 N 
ATOM     21  C   UNL     1      35.309 -17.220 -22.061  0.00  0.00    +0.049 C 
ATOM     22  C   UNL     1      34.989 -17.996 -23.341  0.00  0.00    -0.005 C 
ATOM     23  C   UNL     1      34.962 -18.177 -20.926  0.00  0.00    -0.057 C 
ATOM     24  C   UNL     1      34.555 -19.378 -22.868  0.00  0.00    -0.075 C 
ATOM     25  H   UNL     1      36.157 -19.725 -21.605  0.00  0.00    -0.079 HD
BRANCH  21  27
ATOM     26  O   UNL     1      35.288 -15.099 -23.997  0.00  0.00    -0.270 OA
ATOM     27  N   UNL     1      34.591 -15.978 -21.966  0.00  0.00    -0.304 N 
ATOM     28  C   UNL     1      34.640 -15.005 -22.956  0.00  0.00    +0.252 C 
ATOM     29  H   UNL     1      34.043 -15.811 -21.166  0.00  0.00    +0.150 HD
BRANCH  28  32
ATOM     30 CL   UNL     1      31.288 -11.255 -20.656  0.00  0.00    -0.075 Cl
ATOM     31  S   UNL     1      32.884 -13.676 -21.294  0.00  0.00    -0.071 S 
ATOM     32  C   UNL     1      33.863 -13.766 -22.695  0.00  0.00    +0.084 C 
ATOM     33  C   UNL     1      33.802 -12.611 -23.444  0.00  0.00    +0.012 C 
ATOM     34  C   UNL     1      32.940 -11.639 -22.859  0.00  0.00    +0.019 C 
ATOM     35  C   UNL     1      32.375 -12.088 -21.686  0.00  0.00    +0.087 C 
ENDBRANCH  28  32
ENDBRANCH  21  27
ENDBRANCH  19  20
ENDBRANCH   3  19
TORSDOF 6
ENDMDL
MODEL 6
REMARK VINA RESULT:     -10.2      5.362      8.940
REMARK  Name = 42628060
REMARK  6 active torsions:
REMARK  status: ('A' for Active; 'I' for Inactive)
REMARK    1  A    between atoms: N_2  and  C_6
REMARK    2  A    between atoms: C_3  and  C_19
REMARK    3  A    between atoms: C_9  and  N_13
REMARK    4  A    between atoms: C_19  and  N_20
REMARK    5  A    between atoms: C_21  and  N_27
REMARK    6  A    between atoms: C_28  and  C_32
REMARK                            x       y       z     vdW  Elec       q    Type
REMARK                         _______ _______ _______ _____ _____    ______ ____
ROOT
ATOM      1  O   UNL     1      32.801 -21.700 -18.536  0.00  0.00    -0.277 OA
ATOM      2  N   UNL     1      35.142 -21.599 -18.693  0.00  0.00    -0.284 N 
ATOM      3  C   UNL     1      33.834 -21.423 -19.139  0.00  0.00    +0.205 C 
ATOM      4  H   UNL     1      35.854 -21.324 -19.315  0.00  0.00    +0.155 HD
ENDROOT
BRANCH   2   6
ATOM      5  F   UNL     1      37.563 -20.842 -17.539  0.00  0.00    -0.203 F 
ATOM      6  C   UNL     1      35.567 -22.126 -17.451  0.00  0.00    +0.078 C 
ATOM      7  C   UNL     1      36.784 -21.726 -16.900  0.00  0.00    +0.155 C 
ATOM      8  C   UNL     1      34.766 -23.048 -16.777  0.00  0.00    +0.018 C 
ATOM      9  C   UNL     1      36.400 -23.171 -15.002  0.00  0.00    +0.061 C 
ATOM     10  C   UNL     1      37.201 -22.249 -15.675  0.00  0.00    +0.046 C 
ATOM     11  C   UNL     1      35.183 -23.571 -15.552  0.00  0.00    +0.017 C 
BRANCH   9  13
ATOM     12  O   UNL     1      37.646 -25.753 -14.625  0.00  0.00    -0.269 OA
ATOM     13  N   UNL     1      36.833 -23.715 -13.729  0.00  0.00    -0.233 N 
ATOM     14  C   UNL     1      37.397 -25.016 -13.672  0.00  0.00    +0.257 C 
ATOM     15  C   UNL     1      36.720 -22.959 -12.560  0.00  0.00    +0.072 C 
ATOM     16  C   UNL     1      37.774 -25.518 -12.314  0.00  0.00    +0.059 C 
ATOM     17  C   UNL     1      37.096 -23.419 -11.362  0.00  0.00    +0.017 C 
ATOM     18  C   UNL     1      37.633 -24.741 -11.238  0.00  0.00    +0.006 C 
ENDBRANCH   9  13
ENDBRANCH   2   6
BRANCH   3  19
ATOM     19  C   UNL     1      33.831 -20.825 -20.535  0.00  0.00    +0.010 C 
BRANCH  19  20
ATOM     20  N   UNL     1      34.788 -19.730 -20.595  0.00  0.00    +0.394 N 
ATOM     21  C   UNL     1      35.337 -17.560 -21.243  0.00  0.00    +0.049 C 
ATOM     22  C   UNL     1      36.387 -18.521 -21.806  0.00  0.00    -0.005 C 
ATOM     23  C   UNL     1      34.149 -18.445 -20.884  0.00  0.00    -0.057 C 
ATOM     24  C   UNL     1      35.772 -19.908 -21.662  0.00  0.00    -0.075 C 
ATOM     25  H   UNL     1      35.226 -19.734 -19.674  0.00  0.00    -0.079 HD
BRANCH  21  27
ATOM     26  O   UNL     1      34.359 -14.943 -20.580  0.00  0.00    -0.270 OA
ATOM     27  N   UNL     1      34.982 -16.517 -22.166  0.00  0.00    -0.304 N 
ATOM     28  C   UNL     1      34.514 -15.276 -21.753  0.00  0.00    +0.252 C 
ATOM     29  H   UNL     1      35.072 -16.691 -23.131  0.00  0.00    +0.150 HD
BRANCH  28  32
ATOM     30 CL   UNL     1      33.108 -13.100 -26.640  0.00  0.00    -0.075 Cl
ATOM     31  S   UNL     1      33.825 -14.912 -24.400  0.00  0.00    -0.071 S 
ATOM     32  C   UNL     1      34.164 -14.316 -22.832  0.00  0.00    +0.084 C 
ATOM     33  C   UNL     1      34.062 -12.943 -22.767  0.00  0.00    +0.012 C 
ATOM     34  C   UNL     1      33.701 -12.375 -24.022  0.00  0.00    +0.019 C 
ATOM     35  C   UNL     1      33.540 -13.333 -24.998  0.00  0.00    +0.087 C 
ENDBRANCH  28  32
ENDBRANCH  21  27
ENDBRANCH  19  20
ENDBRANCH   3  19
TORSDOF 6
ENDMDL
MODEL 7
REMARK VINA RESULT:      -9.9      5.781      9.694
REMARK  Name = 42628060
REMARK  6 active torsions:
REMARK  status: ('A' for Active; 'I' for Inactive)
REMARK    1  A    between atoms: N_2  and  C_6
REMARK    2  A    between atoms: C_3  and  C_19
REMARK    3  A    between atoms: C_9  and  N_13
REMARK    4  A    between atoms: C_19  and  N_20
REMARK    5  A    between atoms: C_21  and  N_27
REMARK    6  A    between atoms: C_28  and  C_32
REMARK                            x       y       z     vdW  Elec       q    Type
REMARK                         _______ _______ _______ _____ _____    ______ ____
ROOT
ATOM      1  O   UNL     1      33.664 -21.829 -18.417  0.00  0.00    -0.277 OA
ATOM      2  N   UNL     1      35.950 -22.075 -17.941  0.00  0.00    -0.284 N 
ATOM      3  C   UNL     1      34.846 -21.796 -18.744  0.00  0.00    +0.205 C 
ATOM      4  H   UNL     1      36.831 -22.003 -18.373  0.00  0.00    +0.155 HD
ENDROOT
BRANCH   2   6
ATOM      5  F   UNL     1      38.218 -21.775 -16.351  0.00  0.00    -0.203 F 
ATOM      6  C   UNL     1      35.952 -22.450 -16.577  0.00  0.00    +0.078 C 
ATOM      7  C   UNL     1      37.104 -22.287 -15.808  0.00  0.00    +0.155 C 
ATOM      8  C   UNL     1      34.799 -22.985 -16.002  0.00  0.00    +0.018 C 
ATOM      9  C   UNL     1      35.950 -23.194 -13.888  0.00  0.00    +0.061 C 
ATOM     10  C   UNL     1      37.103 -22.659 -14.463  0.00  0.00    +0.046 C 
ATOM     11  C   UNL     1      34.798 -23.357 -14.657  0.00  0.00    +0.017 C 
BRANCH   9  13
ATOM     12  O   UNL     1      37.700 -22.114 -11.854  0.00  0.00    -0.269 OA
ATOM     13  N   UNL     1      35.950 -23.581 -12.491  0.00  0.00    -0.233 N 
ATOM     14  C   UNL     1      36.889 -23.004 -11.597  0.00  0.00    +0.257 C 
ATOM     15  C   UNL     1      35.016 -24.503 -12.011  0.00  0.00    +0.072 C 
ATOM     16  C   UNL     1      36.849 -23.492 -10.183  0.00  0.00    +0.059 C 
ATOM     17  C   UNL     1      34.981 -24.898 -10.735  0.00  0.00    +0.017 C 
ATOM     18  C   UNL     1      35.931 -24.381  -9.797  0.00  0.00    +0.006 C 
ENDBRANCH   9  13
ENDBRANCH   2   6
BRANCH   3  19
ATOM     19  C   UNL     1      35.296 -21.434 -20.149  0.00  0.00    +0.010 C 
BRANCH  19  20
ATOM     20  N   UNL     1      35.652 -20.024 -20.195  0.00  0.00    +0.394 N 
ATOM     21  C   UNL     1      35.404 -17.907 -21.140  0.00  0.00    +0.049 C 
ATOM     22  C   UNL     1      36.885 -18.291 -21.177  0.00  0.00    -0.005 C 
ATOM     23  C   UNL     1      34.664 -19.223 -20.921  0.00  0.00    -0.057 C 
ATOM     24  C   UNL     1      36.914 -19.789 -20.896  0.00  0.00    -0.075 C 
ATOM     25  H   UNL     1      35.709 -19.751 -19.214  0.00  0.00    -0.079 HD
BRANCH  21  27
ATOM     26  O   UNL     1      34.546 -15.175 -21.345  0.00  0.00    -0.270 OA
ATOM     27  N   UNL     1      34.972 -17.231 -22.332  0.00  0.00    -0.304 N 
ATOM     28  C   UNL     1      34.572 -15.900 -22.338  0.00  0.00    +0.252 C 
ATOM     29  H   UNL     1      34.959 -17.731 -23.180  0.00  0.00    +0.150 HD
BRANCH  28  32
ATOM     30 CL   UNL     1      32.937 -12.463 -26.352  0.00  0.00    -0.075 Cl
ATOM     31  S   UNL     1      33.821 -13.677 -23.790  0.00  0.00    -0.071 S 
ATOM     32  C   UNL     1      34.129 -15.355 -23.647  0.00  0.00    +0.084 C 
ATOM     33  C   UNL     1      33.914 -16.023 -24.832  0.00  0.00    +0.012 C 
ATOM     34  C   UNL     1      33.492 -15.145 -25.872  0.00  0.00    +0.019 C 
ATOM     35  C   UNL     1      33.400 -13.840 -25.442  0.00  0.00    +0.087 C 
ENDBRANCH  28  32
ENDBRANCH  21  27
ENDBRANCH  19  20
ENDBRANCH   3  19
TORSDOF 6
ENDMDL
MODEL 8
REMARK VINA RESULT:      -9.8      8.290     13.162
REMARK  Name = 42628060
REMARK  6 active torsions:
REMARK  status: ('A' for Active; 'I' for Inactive)
REMARK    1  A    between atoms: N_2  and  C_6
REMARK    2  A    between atoms: C_3  and  C_19
REMARK    3  A    between atoms: C_9  and  N_13
REMARK    4  A    between atoms: C_19  and  N_20
REMARK    5  A    between atoms: C_21  and  N_27
REMARK    6  A    between atoms: C_28  and  C_32
REMARK                            x       y       z     vdW  Elec       q    Type
REMARK                         _______ _______ _______ _____ _____    ______ ____
ROOT
ATOM      1  O   UNL     1      35.442 -22.041 -15.727  0.00  0.00    -0.277 OA
ATOM      2  N   UNL     1      34.440 -23.109 -17.563  0.00  0.00    -0.284 N 
ATOM      3  C   UNL     1      34.901 -23.009 -16.252  0.00  0.00    +0.205 C 
ATOM      4  H   UNL     1      34.034 -23.969 -17.817  0.00  0.00    +0.155 HD
ENDROOT
BRANCH   2   6
ATOM      5  F   UNL     1      36.861 -22.101 -18.503  0.00  0.00    -0.203 F 
ATOM      6  C   UNL     1      34.487 -22.118 -18.572  0.00  0.00    +0.078 C 
ATOM      7  C   UNL     1      35.716 -21.634 -19.020  0.00  0.00    +0.155 C 
ATOM      8  C   UNL     1      33.302 -21.623 -19.116  0.00  0.00    +0.018 C 
ATOM      9  C   UNL     1      34.574 -20.161 -20.559  0.00  0.00    +0.061 C 
ATOM     10  C   UNL     1      35.759 -20.656 -20.015  0.00  0.00    +0.046 C 
ATOM     11  C   UNL     1      33.345 -20.645 -20.111  0.00  0.00    +0.017 C 
BRANCH   9  13
ATOM     12  O   UNL     1      35.662 -17.501 -20.237  0.00  0.00    -0.269 OA
ATOM     13  N   UNL     1      34.619 -19.144 -21.591  0.00  0.00    -0.233 N 
ATOM     14  C   UNL     1      35.144 -17.860 -21.295  0.00  0.00    +0.257 C 
ATOM     15  C   UNL     1      34.168 -19.425 -22.883  0.00  0.00    +0.072 C 
ATOM     16  C   UNL     1      35.111 -16.855 -22.404  0.00  0.00    +0.059 C 
ATOM     17  C   UNL     1      34.180 -18.519 -23.866  0.00  0.00    +0.017 C 
ATOM     18  C   UNL     1      34.660 -17.193 -23.614  0.00  0.00    +0.006 C 
ENDBRANCH   9  13
ENDBRANCH   2   6
BRANCH   3  19
ATOM     19  C   UNL     1      34.652 -24.310 -15.508  0.00  0.00    +0.010 C 
BRANCH  19  20
ATOM     20  N   UNL     1      33.506 -24.151 -14.625  0.00  0.00    +0.394 N 
ATOM     21  C   UNL     1      31.234 -23.729 -14.321  0.00  0.00    +0.049 C 
ATOM     22  C   UNL     1      32.035 -22.736 -13.475  0.00  0.00    -0.005 C 
ATOM     23  C   UNL     1      32.232 -24.273 -15.337  0.00  0.00    -0.057 C 
ATOM     24  C   UNL     1      33.462 -22.828 -14.002  0.00  0.00    -0.075 C 
ATOM     25  H   UNL     1      33.622 -24.890 -13.933  0.00  0.00    -0.079 HD
BRANCH  21  27
ATOM     26  O   UNL     1      28.558 -24.769 -14.349  0.00  0.00    -0.270 OA
ATOM     27  N   UNL     1      30.088 -23.132 -14.948  0.00  0.00    -0.304 N 
ATOM     28  C   UNL     1      28.824 -23.709 -14.911  0.00  0.00    +0.252 C 
ATOM     29  H   UNL     1      30.202 -22.278 -15.426  0.00  0.00    +0.150 HD
BRANCH  28  32
ATOM     30 CL   UNL     1      25.597 -21.639 -18.898  0.00  0.00    -0.075 Cl
ATOM     31  S   UNL     1      27.697 -23.047 -17.342  0.00  0.00    -0.071 S 
ATOM     32  C   UNL     1      27.749 -22.979 -15.632  0.00  0.00    +0.084 C 
ATOM     33  C   UNL     1      26.728 -22.213 -15.113  0.00  0.00    +0.012 C 
ATOM     34  C   UNL     1      25.892 -21.676 -16.134  0.00  0.00    +0.019 C 
ATOM     35  C   UNL     1      26.305 -22.051 -17.393  0.00  0.00    +0.087 C 
ENDBRANCH  28  32
ENDBRANCH  21  27
ENDBRANCH  19  20
ENDBRANCH   3  19
TORSDOF 6
ENDMDL
MODEL 9
REMARK VINA RESULT:      -9.7      5.161      9.044
REMARK  Name = 42628060
REMARK  6 active torsions:
REMARK  status: ('A' for Active; 'I' for Inactive)
REMARK    1  A    between atoms: N_2  and  C_6
REMARK    2  A    between atoms: C_3  and  C_19
REMARK    3  A    between atoms: C_9  and  N_13
REMARK    4  A    between atoms: C_19  and  N_20
REMARK    5  A    between atoms: C_21  and  N_27
REMARK    6  A    between atoms: C_28  and  C_32
REMARK                            x       y       z     vdW  Elec       q    Type
REMARK                         _______ _______ _______ _____ _____    ______ ____
ROOT
ATOM      1  O   UNL     1      35.911 -21.966 -20.106  0.00  0.00    -0.277 OA
ATOM      2  N   UNL     1      34.572 -21.378 -18.269  0.00  0.00    -0.284 N 
ATOM      3  C   UNL     1      34.999 -21.325 -19.594  0.00  0.00    +0.205 C 
ATOM      4  H   UNL     1      33.823 -20.787 -18.029  0.00  0.00    +0.155 HD
ENDROOT
BRANCH   2   6
ATOM      5  F   UNL     1      37.225 -21.167 -17.445  0.00  0.00    -0.203 F 
ATOM      6  C   UNL     1      35.089 -22.184 -17.228  0.00  0.00    +0.078 C 
ATOM      7  C   UNL     1      36.423 -22.054 -16.839  0.00  0.00    +0.155 C 
ATOM      8  C   UNL     1      34.265 -23.112 -16.591  0.00  0.00    +0.018 C 
ATOM      9  C   UNL     1      36.106 -23.778 -15.176  0.00  0.00    +0.061 C 
ATOM     10  C   UNL     1      36.931 -22.851 -15.813  0.00  0.00    +0.046 C 
ATOM     11  C   UNL     1      34.773 -23.909 -15.564  0.00  0.00    +0.017 C 
BRANCH   9  13
ATOM     12  O   UNL     1      36.281 -26.664 -15.234  0.00  0.00    -0.269 OA
ATOM     13  N   UNL     1      36.634 -24.607 -14.110  0.00  0.00    -0.233 N 
ATOM     14  C   UNL     1      36.628 -26.019 -14.244  0.00  0.00    +0.257 C 
ATOM     15  C   UNL     1      37.170 -24.025 -12.958  0.00  0.00    +0.072 C 
ATOM     16  C   UNL     1      37.149 -26.801 -13.079  0.00  0.00    +0.059 C 
ATOM     17  C   UNL     1      37.659 -24.746 -11.945  0.00  0.00    +0.017 C 
ATOM     18  C   UNL     1      37.641 -26.177 -12.007  0.00  0.00    +0.006 C 
ENDBRANCH   9  13
ENDBRANCH   2   6
BRANCH   3  19
ATOM     19  C   UNL     1      34.166 -20.322 -20.374  0.00  0.00    +0.010 C 
BRANCH  19  20
ATOM     20  N   UNL     1      35.008 -19.648 -21.350  0.00  0.00    +0.394 N 
ATOM     21  C   UNL     1      35.620 -17.712 -22.497  0.00  0.00    +0.049 C 
ATOM     22  C   UNL     1      35.299 -18.807 -23.517  0.00  0.00    -0.005 C 
ATOM     23  C   UNL     1      34.985 -18.192 -21.196  0.00  0.00    -0.057 C 
ATOM     24  C   UNL     1      34.571 -19.886 -22.725  0.00  0.00    -0.075 C 
ATOM     25  H   UNL     1      35.938 -20.029 -21.179  0.00  0.00    -0.079 HD
BRANCH  21  27
ATOM     26  O   UNL     1      34.342 -17.049 -24.980  0.00  0.00    -0.270 OA
ATOM     27  N   UNL     1      35.138 -16.418 -22.894  0.00  0.00    -0.304 N 
ATOM     28  C   UNL     1      34.530 -16.189 -24.122  0.00  0.00    +0.252 C 
ATOM     29  H   UNL     1      35.244 -15.663 -22.271  0.00  0.00    +0.150 HD
BRANCH  28  32
ATOM     30 CL   UNL     1      33.488 -10.783 -23.579  0.00  0.00    -0.075 Cl
ATOM     31  S   UNL     1      34.282 -13.614 -23.161  0.00  0.00    -0.071 S 
ATOM     32  C   UNL     1      34.110 -14.789 -24.393  0.00  0.00    +0.084 C 
ATOM     33  C   UNL     1      33.575 -14.256 -25.546  0.00  0.00    +0.012 C 
ATOM     34  C   UNL     1      33.303 -12.864 -25.414  0.00  0.00    +0.019 C 
ATOM     35  C   UNL     1      33.640 -12.386 -24.167  0.00  0.00    +0.087 C 
ENDBRANCH  28  32
ENDBRANCH  21  27
ENDBRANCH  19  20
ENDBRANCH   3  19
TORSDOF 6
ENDMDL
