MODEL 1
REMARK VINA RESULT:     -12.0      0.000      0.000
REMARK  Name = 10224714
REMARK  8 active torsions:
REMARK  status: ('A' for Active; 'I' for Inactive)
REMARK    1  A    between atoms: N_1  and  C_12
REMARK    2  A    between atoms: N_2  and  CA_30
REMARK    3  A    between atoms: N_15  and  C_17
REMARK    4  A    between atoms: C_17  and  C_18
REMARK    5  A    between atoms: C_21  and  C_25
REMARK    6  A    between atoms: CA_30  and  C_31
REMARK    7  A    between atoms: CA_30  and  C_33
REMARK    8  A    between atoms: C_33  and  O_34
REMARK                            x       y       z     vdW  Elec       q    Type
REMARK                         _______ _______ _______ _____ _____    ______ ____
ROOT
ATOM      1  N   UNL     1      31.716 -23.973 -15.024  0.00  0.00    -0.262 N 
ATOM      2  N   UNL     1      36.445 -24.153 -14.613  0.00  0.00    -0.258 N 
ATOM      3  N   UNL     1      34.105 -24.168 -14.633  0.00  0.00    -0.311 NA
ATOM      4  N   UNL     1      31.734 -22.892 -16.974  0.00  0.00    -0.240 NA
ATOM      5  N   UNL     1      35.385 -23.149 -16.445  0.00  0.00    -0.311 NA
ATOM      6  C   UNL     1      33.031 -23.785 -15.340  0.00  0.00    +0.220 C 
ATOM      7  C   UNL     1      33.020 -23.113 -16.551  0.00  0.00    +0.167 C 
ATOM      8  C   UNL     1      34.257 -22.793 -17.104  0.00  0.00    +0.215 C 
ATOM      9  C   UNL     1      35.269 -23.812 -15.252  0.00  0.00    +0.202 C 
ATOM     10  C   UNL     1      30.976 -23.420 -16.035  0.00  0.00    +0.222 C 
ATOM     11  H   UNL     1      37.297 -23.909 -15.042  0.00  0.00    +0.160 HD
ATOM     12  N   UNL     1      34.341 -22.111 -18.330  0.00  0.00    -0.302 N 
ATOM     13  H   UNL     1      33.504 -21.865 -18.789  0.00  0.00    +0.150 HD
ENDROOT
BRANCH   1  14
ATOM     14  C   UNL     1      31.194 -24.631 -13.850  0.00  0.00    +0.077 C 
ATOM     15  C   UNL     1      30.869 -23.636 -12.734  0.00  0.00    +0.022 C 
ATOM     16  C   UNL     1      29.995 -25.521 -14.178  0.00  0.00    +0.022 C 
ENDBRANCH   1  14
BRANCH  12  17
ATOM     17  C   UNL     1      35.586 -21.758 -18.944  0.00  0.00    +0.116 C 
BRANCH  17  18
ATOM     18  C   UNL     1      35.377 -20.690 -19.984  0.00  0.00    -0.003 C 
ATOM     19  C   UNL     1      36.450 -19.907 -20.388  0.00  0.00    -0.003 C 
ATOM     20  C   UNL     1      34.112 -20.501 -20.525  0.00  0.00    -0.003 C 
ATOM     21  C   UNL     1      34.990 -18.719 -21.901  0.00  0.00    +0.018 C 
ATOM     22  C   UNL     1      36.256 -18.917 -21.350  0.00  0.00    +0.001 C 
ATOM     23  C   UNL     1      33.918 -19.511 -21.489  0.00  0.00    +0.001 C 
BRANCH  21  25
ATOM     24  N   UNL     1      35.157 -16.450 -22.520  0.00  0.00    -0.244 NA
ATOM     25  C   UNL     1      34.789 -17.693 -22.901  0.00  0.00    +0.081 C 
ATOM     26  C   UNL     1      34.255 -18.003 -24.140  0.00  0.00    +0.019 C 
ATOM     27  C   UNL     1      34.089 -16.967 -25.052  0.00  0.00    +0.003 C 
ATOM     28  C   UNL     1      34.981 -15.469 -23.433  0.00  0.00    +0.099 C 
ATOM     29  C   UNL     1      34.456 -15.673 -24.700  0.00  0.00    +0.021 C 
ENDBRANCH  21  25
ENDBRANCH  17  18
ENDBRANCH  12  17
BRANCH   2  30
ATOM     30  CA  UNL     1      36.492 -24.854 -13.343  0.00  0.00    +0.109 C 
BRANCH  30  31
ATOM     31  C   UNL     1      37.490 -24.164 -12.405  0.00  0.00    +0.023 C 
ATOM     32  C   UNL     1      36.830 -23.134 -11.498  0.00  0.00    +0.002 C 
ENDBRANCH  30  31
BRANCH  30  33
ATOM     33  C   UNL     1      36.897 -26.305 -13.597  0.00  0.00    +0.157 C 
BRANCH  33  34
ATOM     34  O   UNL     1      35.956 -26.910 -14.478  0.00  0.00    -0.380 OA
ATOM     35  H   UNL     1      36.281 -26.850 -15.390  0.00  0.00    +0.211 HD
ENDBRANCH  33  34
ENDBRANCH  30  33
ENDBRANCH   2  30
TORSDOF 8
ENDMDL
MODEL 2
REMARK VINA RESULT:     -10.9      1.201      1.707
REMARK  Name = 10224714
REMARK  8 active torsions:
REMARK  status: ('A' for Active; 'I' for Inactive)
REMARK    1  A    between atoms: N_1  and  C_12
REMARK    2  A    between atoms: N_2  and  CA_30
REMARK    3  A    between atoms: N_15  and  C_17
REMARK    4  A    between atoms: C_17  and  C_18
REMARK    5  A    between atoms: C_21  and  C_25
REMARK    6  A    between atoms: CA_30  and  C_31
REMARK    7  A    between atoms: CA_30  and  C_33
REMARK    8  A    between atoms: C_33  and  O_34
REMARK                            x       y       z     vdW  Elec       q    Type
REMARK                         _______ _______ _______ _____ _____    ______ ____
ROOT
ATOM      1  N   UNL     1      32.313 -23.859 -14.851  0.00  0.00    -0.262 N 
ATOM      2  N   UNL     1      37.038 -23.541 -14.483  0.00  0.00    -0.258 N 
ATOM      3  N   UNL     1      34.710 -23.784 -14.473  0.00  0.00    -0.311 NA
ATOM      4  N   UNL     1      32.218 -22.968 -16.893  0.00  0.00    -0.240 NA
ATOM      5  N   UNL     1      35.879 -22.820 -16.387  0.00  0.00    -0.311 NA
ATOM      6  C   UNL     1      33.602 -23.574 -15.199  0.00  0.00    +0.220 C 
ATOM      7  C   UNL     1      33.522 -23.023 -16.467  0.00  0.00    +0.167 C 
ATOM      8  C   UNL     1      34.719 -22.638 -17.063  0.00  0.00    +0.215 C 
ATOM      9  C   UNL     1      35.832 -23.376 -15.137  0.00  0.00    +0.202 C 
ATOM     10  C   UNL     1      31.519 -23.477 -15.900  0.00  0.00    +0.222 C 
ATOM     11  H   UNL     1      37.860 -23.256 -14.944  0.00  0.00    +0.160 HD
ATOM     12  N   UNL     1      34.732 -22.068 -18.348  0.00  0.00    -0.302 N 
ATOM     13  H   UNL     1      33.874 -21.948 -18.817  0.00  0.00    +0.150 HD
ENDROOT
BRANCH   1  14
ATOM     14  C   UNL     1      31.861 -24.451 -13.615  0.00  0.00    +0.077 C 
ATOM     15  C   UNL     1      31.626 -23.400 -12.529  0.00  0.00    +0.022 C 
ATOM     16  C   UNL     1      30.630 -25.335 -13.819  0.00  0.00    +0.022 C 
ENDBRANCH   1  14
BRANCH  12  17
ATOM     17  C   UNL     1      35.935 -21.655 -19.008  0.00  0.00    +0.116 C 
BRANCH  17  18
ATOM     18  C   UNL     1      35.636 -20.596 -20.033  0.00  0.00    -0.003 C 
ATOM     19  C   UNL     1      36.653 -19.756 -20.467  0.00  0.00    -0.003 C 
ATOM     20  C   UNL     1      34.346 -20.470 -20.531  0.00  0.00    -0.003 C 
ATOM     21  C   UNL     1      35.084 -18.639 -21.925  0.00  0.00    +0.018 C 
ATOM     22  C   UNL     1      36.376 -18.773 -21.417  0.00  0.00    +0.001 C 
ATOM     23  C   UNL     1      34.069 -19.487 -21.482  0.00  0.00    +0.001 C 
BRANCH  21  25
ATOM     24  N   UNL     1      34.323 -18.085 -24.087  0.00  0.00    -0.244 NA
ATOM     25  C   UNL     1      34.797 -17.620 -22.911  0.00  0.00    +0.081 C 
ATOM     26  C   UNL     1      35.008 -16.281 -22.630  0.00  0.00    +0.019 C 
ATOM     27  C   UNL     1      34.710 -15.356 -23.623  0.00  0.00    +0.003 C 
ATOM     28  C   UNL     1      34.045 -17.156 -25.029  0.00  0.00    +0.099 C 
ATOM     29  C   UNL     1      34.220 -15.793 -24.849  0.00  0.00    +0.021 C 
ENDBRANCH  21  25
ENDBRANCH  17  18
ENDBRANCH  12  17
BRANCH   2  30
ATOM     30  CA  UNL     1      37.157 -24.112 -13.155  0.00  0.00    +0.109 C 
BRANCH  30  31
ATOM     31  C   UNL     1      36.509 -25.501 -13.125  0.00  0.00    +0.023 C 
ATOM     32  C   UNL     1      37.362 -26.563 -13.806  0.00  0.00    +0.002 C 
ENDBRANCH  30  31
BRANCH  30  33
ATOM     33  C   UNL     1      36.482 -23.173 -12.155  0.00  0.00    +0.157 C 
BRANCH  33  34
ATOM     34  O   UNL     1      37.423 -22.792 -11.156  0.00  0.00    -0.380 OA
ATOM     35  H   UNL     1      37.126 -23.118 -10.292  0.00  0.00    +0.211 HD
ENDBRANCH  33  34
ENDBRANCH  30  33
ENDBRANCH   2  30
TORSDOF 8
ENDMDL
MODEL 3
REMARK VINA RESULT:     -10.5      1.624      4.209
REMARK  Name = 10224714
REMARK  8 active torsions:
REMARK  status: ('A' for Active; 'I' for Inactive)
REMARK    1  A    between atoms: N_1  and  C_12
REMARK    2  A    between atoms: N_2  and  CA_30
REMARK    3  A    between atoms: N_15  and  C_17
REMARK    4  A    between atoms: C_17  and  C_18
REMARK    5  A    between atoms: C_21  and  C_25
REMARK    6  A    between atoms: CA_30  and  C_31
REMARK    7  A    between atoms: CA_30  and  C_33
REMARK    8  A    between atoms: C_33  and  O_34
REMARK                            x       y       z     vdW  Elec       q    Type
REMARK                         _______ _______ _______ _____ _____    ______ ____
ROOT
ATOM      1  N   UNL     1      36.148 -23.283 -13.327  0.00  0.00    -0.262 N 
ATOM      2  N   UNL     1      31.702 -24.169 -14.744  0.00  0.00    -0.258 N 
ATOM      3  N   UNL     1      33.831 -23.785 -13.852  0.00  0.00    -0.311 NA
ATOM      4  N   UNL     1      36.880 -22.692 -15.349  0.00  0.00    -0.240 NA
ATOM      5  N   UNL     1      33.365 -23.440 -16.223  0.00  0.00    -0.311 NA
ATOM      6  C   UNL     1      35.076 -23.399 -14.166  0.00  0.00    +0.220 C 
ATOM      7  C   UNL     1      35.551 -23.028 -15.414  0.00  0.00    +0.167 C 
ATOM      8  C   UNL     1      34.642 -23.059 -16.467  0.00  0.00    +0.215 C 
ATOM      9  C   UNL     1      33.013 -23.784 -14.946  0.00  0.00    +0.202 C 
ATOM     10  C   UNL     1      37.207 -22.856 -14.084  0.00  0.00    +0.222 C 
ATOM     11  H   UNL     1      31.093 -24.174 -15.517  0.00  0.00    +0.160 HD
ATOM     12  N   UNL     1      35.036 -22.701 -17.767  0.00  0.00    -0.302 N 
ATOM     13  H   UNL     1      35.971 -22.427 -17.916  0.00  0.00    +0.150 HD
ENDROOT
BRANCH   1  14
ATOM     14  C   UNL     1      36.171 -23.555 -11.911  0.00  0.00    +0.077 C 
ATOM     15  C   UNL     1      36.240 -25.055 -11.617  0.00  0.00    +0.022 C 
ATOM     16  C   UNL     1      37.288 -22.791 -11.198  0.00  0.00    +0.022 C 
ENDBRANCH   1  14
BRANCH  12  17
ATOM     17  C   UNL     1      34.142 -22.714 -18.887  0.00  0.00    +0.116 C 
BRANCH  17  18
ATOM     18  C   UNL     1      34.297 -21.458 -19.699  0.00  0.00    -0.003 C 
ATOM     19  C   UNL     1      33.168 -20.820 -20.196  0.00  0.00    -0.003 C 
ATOM     20  C   UNL     1      35.567 -20.952 -19.943  0.00  0.00    -0.003 C 
ATOM     21  C   UNL     1      34.583 -19.139 -21.201  0.00  0.00    +0.018 C 
ATOM     22  C   UNL     1      33.312 -19.656 -20.951  0.00  0.00    +0.001 C 
ATOM     23  C   UNL     1      35.711 -19.787 -20.697  0.00  0.00    +0.001 C 
BRANCH  21  25
ATOM     24  N   UNL     1      34.835 -16.795 -21.258  0.00  0.00    -0.244 NA
ATOM     25  C   UNL     1      34.731 -17.930 -21.982  0.00  0.00    +0.081 C 
ATOM     26  C   UNL     1      34.758 -17.979 -23.365  0.00  0.00    +0.019 C 
ATOM     27  C   UNL     1      34.903 -16.779 -24.053  0.00  0.00    +0.003 C 
ATOM     28  C   UNL     1      34.975 -15.649 -21.961  0.00  0.00    +0.099 C 
ATOM     29  C   UNL     1      35.014 -15.587 -23.345  0.00  0.00    +0.021 C 
ENDBRANCH  21  25
ENDBRANCH  17  18
ENDBRANCH  12  17
BRANCH   2  30
ATOM     30  CA  UNL     1      31.173 -24.566 -13.452  0.00  0.00    +0.109 C 
BRANCH  30  31
ATOM     31  C   UNL     1      29.967 -25.492 -13.645  0.00  0.00    +0.023 C 
ATOM     32  C   UNL     1      29.072 -25.061 -14.799  0.00  0.00    +0.002 C 
ENDBRANCH  30  31
BRANCH  30  33
ATOM     33  C   UNL     1      30.777 -23.309 -12.677  0.00  0.00    +0.157 C 
BRANCH  33  34
ATOM     34  O   UNL     1      31.919 -22.790 -12.003  0.00  0.00    -0.380 OA
ATOM     35  H   UNL     1      32.022 -23.238 -11.149  0.00  0.00    +0.211 HD
ENDBRANCH  33  34
ENDBRANCH  30  33
ENDBRANCH   2  30
TORSDOF 8
ENDMDL
