MODEL 1
REMARK VINA RESULT:     -12.0      0.000      0.000
REMARK  Name = 11697676
REMARK  7 active torsions:
REMARK  status: ('A' for Active; 'I' for Inactive)
REMARK    1  A    between atoms: N_1  and  C_18
REMARK    2  A    between atoms: N_2  and  C_8
REMARK    3  A    between atoms: C_18  and  C_19
REMARK    4  A    between atoms: C_19  and  C_20
REMARK    5  A    between atoms: C_20  and  C_21
REMARK    6  A    between atoms: C_21  and  O_22
REMARK    7  A    between atoms: O_22  and  C_28
REMARK                            x       y       z     vdW  Elec       q    Type
REMARK                         _______ _______ _______ _____ _____    ______ ____
ROOT
ATOM      1  N   UNL     1      31.568  -9.195 -20.345  0.00  0.00    +0.389 N 
ATOM      2  N   UNL     1      31.846  -6.969 -22.112  0.00  0.00    -0.312 N 
ATOM      3  C   UNL     1      32.455  -8.077 -19.997  0.00  0.00    -0.055 C 
ATOM      4  C   UNL     1      31.564  -9.395 -21.799  0.00  0.00    -0.055 C 
ATOM      5  C   UNL     1      31.989  -6.780 -20.664  0.00  0.00    +0.068 C 
ATOM      6  C   UNL     1      31.070  -8.142 -22.525  0.00  0.00    +0.068 C 
ATOM      7  H   UNL     1      30.621  -8.971 -20.040  0.00  0.00    -0.080 HD
ENDROOT
BRANCH   2   8
ATOM      8  C   UNL     1      31.873  -5.832 -22.929  0.00  0.00    +0.048 C 
ATOM      9  C   UNL     1      32.907  -5.589 -23.876  0.00  0.00    +0.013 C 
ATOM     10  C   UNL     1      30.835  -4.882 -22.814  0.00  0.00    +0.015 C 
ATOM     11  C   UNL     1      32.887  -4.423 -24.676  0.00  0.00    +0.001 C 
ATOM     12  C   UNL     1      33.960  -6.506 -24.024  0.00  0.00    +0.001 C 
ATOM     13  C   UNL     1      30.815  -3.735 -23.603  0.00  0.00    +0.001 C 
ATOM     14  C   UNL     1      31.833  -3.506 -24.528  0.00  0.00    +0.000 C 
ATOM     15  C   UNL     1      33.920  -4.208 -25.603  0.00  0.00    +0.000 C 
ATOM     16  C   UNL     1      34.979  -6.276 -24.949  0.00  0.00    +0.000 C 
ATOM     17  C   UNL     1      34.959  -5.129 -25.737  0.00  0.00    +0.000 C 
ENDBRANCH   2   8
BRANCH   1  18
ATOM     18  C   UNL     1      31.991 -10.416 -19.660  0.00  0.00    -0.077 C 
BRANCH  18  19
ATOM     19  C   UNL     1      31.297 -11.633 -20.269  0.00  0.00    -0.019 C 
BRANCH  19  20
ATOM     20  C   UNL     1      32.299 -12.744 -20.576  0.00  0.00    +0.045 C 
BRANCH  20  21
ATOM     21  C   UNL     1      32.542 -12.885 -22.072  0.00  0.00    +0.208 C 
BRANCH  21  22
ATOM     22  O   UNL     1      33.900 -13.231 -22.310  0.00  0.00    -0.452 OA
BRANCH  22  28
ATOM     23  O   UNL     1      36.103 -19.465 -20.072  0.00  0.00    -0.275 OA
ATOM     24  N   UNL     1      35.323 -17.446 -20.840  0.00  0.00    -0.263 N 
ATOM     25  N   UNL     1      34.603 -15.322 -21.593  0.00  0.00    -0.357 NA
ATOM     26  C   UNL     1      34.693 -17.166 -23.154  0.00  0.00    +0.090 C 
ATOM     27  C   UNL     1      34.897 -18.634 -23.378  0.00  0.00    +0.022 C 
ATOM     28  C   UNL     1      34.161 -14.543 -22.606  0.00  0.00    +0.278 C 
ATOM     29  C   UNL     1      34.872 -16.617 -21.885  0.00  0.00    +0.170 C 
ATOM     30  C   UNL     1      35.970 -19.177 -22.449  0.00  0.00    +0.086 C 
ATOM     31  C   UNL     1      34.221 -16.330 -24.168  0.00  0.00    -0.012 C 
ATOM     32  C   UNL     1      33.959 -14.994 -23.898  0.00  0.00    +0.068 C 
ATOM     33  C   UNL     1      35.778 -18.739 -21.012  0.00  0.00    +0.228 C 
ATOM     34  H   UNL     1      35.313 -17.080 -19.926  0.00  0.00    +0.157 HD
ENDBRANCH  22  28
ENDBRANCH  21  22
ENDBRANCH  20  21
ENDBRANCH  19  20
ENDBRANCH  18  19
ENDBRANCH   1  18
TORSDOF 7
ENDMDL
MODEL 2
REMARK VINA RESULT:     -11.8      3.687      6.824
REMARK  Name = 11697676
REMARK  7 active torsions:
REMARK  status: ('A' for Active; 'I' for Inactive)
REMARK    1  A    between atoms: N_1  and  C_18
REMARK    2  A    between atoms: N_2  and  C_8
REMARK    3  A    between atoms: C_18  and  C_19
REMARK    4  A    between atoms: C_19  and  C_20
REMARK    5  A    between atoms: C_20  and  C_21
REMARK    6  A    between atoms: C_21  and  O_22
REMARK    7  A    between atoms: O_22  and  C_28
REMARK                            x       y       z     vdW  Elec       q    Type
REMARK                         _______ _______ _______ _____ _____    ______ ____
ROOT
ATOM      1  N   UNL     1      34.043 -15.825 -23.398  0.00  0.00    +0.389 N 
ATOM      2  N   UNL     1      33.244 -13.153 -22.782  0.00  0.00    -0.312 N 
ATOM      3  C   UNL     1      34.577 -15.145 -22.211  0.00  0.00    -0.055 C 
ATOM      4  C   UNL     1      33.818 -14.850 -24.472  0.00  0.00    -0.055 C 
ATOM      5  C   UNL     1      33.602 -14.081 -21.702  0.00  0.00    +0.068 C 
ATOM      6  C   UNL     1      32.817 -13.775 -24.038  0.00  0.00    +0.068 C 
ATOM      7  H   UNL     1      33.153 -16.260 -23.156  0.00  0.00    -0.080 HD
ENDROOT
BRANCH   2   8
ATOM      8  C   UNL     1      32.747 -11.893 -22.427  0.00  0.00    +0.048 C 
ATOM      9  C   UNL     1      33.334 -10.679 -22.880  0.00  0.00    +0.013 C 
ATOM     10  C   UNL     1      31.616 -11.816 -21.585  0.00  0.00    +0.015 C 
ATOM     11  C   UNL     1      32.791  -9.431 -22.491  0.00  0.00    +0.001 C 
ATOM     12  C   UNL     1      34.460 -10.707 -23.718  0.00  0.00    +0.001 C 
ATOM     13  C   UNL     1      31.082 -10.589 -21.204  0.00  0.00    +0.001 C 
ATOM     14  C   UNL     1      31.664  -9.404 -21.653  0.00  0.00    +0.000 C 
ATOM     15  C   UNL     1      33.390  -8.248 -22.952  0.00  0.00    +0.000 C 
ATOM     16  C   UNL     1      35.042  -9.521 -24.168  0.00  0.00    +0.000 C 
ATOM     17  C   UNL     1      34.509  -8.294 -23.785  0.00  0.00    +0.000 C 
ENDBRANCH   2   8
BRANCH   1  18
ATOM     18  C   UNL     1      34.958 -16.875 -23.842  0.00  0.00    -0.077 C 
BRANCH  18  19
ATOM     19  C   UNL     1      34.245 -18.226 -23.866  0.00  0.00    -0.019 C 
BRANCH  19  20
ATOM     20  C   UNL     1      34.965 -19.247 -22.987  0.00  0.00    +0.045 C 
BRANCH  20  21
ATOM     21  C   UNL     1      34.600 -19.080 -21.518  0.00  0.00    +0.208 C 
BRANCH  21  22
ATOM     22  O   UNL     1      33.621 -20.042 -21.152  0.00  0.00    -0.452 OA
BRANCH  22  28
ATOM     23  O   UNL     1      31.130 -23.680 -15.740  0.00  0.00    -0.275 OA
ATOM     24  N   UNL     1      31.994 -22.537 -17.535  0.00  0.00    -0.263 N 
ATOM     25  N   UNL     1      32.827 -21.280 -19.358  0.00  0.00    -0.357 NA
ATOM     26  C   UNL     1      34.381 -22.344 -17.843  0.00  0.00    +0.090 C 
ATOM     27  C   UNL     1      34.596 -23.277 -16.689  0.00  0.00    +0.022 C 
ATOM     28  C   UNL     1      33.889 -20.809 -20.048  0.00  0.00    +0.278 C 
ATOM     29  C   UNL     1      33.088 -22.030 -18.261  0.00  0.00    +0.170 C 
ATOM     30  C   UNL     1      33.468 -23.152 -15.677  0.00  0.00    +0.086 C 
ATOM     31  C   UNL     1      35.450 -21.851 -18.592  0.00  0.00    -0.012 C 
ATOM     32  C   UNL     1      35.206 -21.061 -19.709  0.00  0.00    +0.068 C 
ATOM     33  C   UNL     1      32.097 -23.186 -16.320  0.00  0.00    +0.228 C 
ATOM     34  H   UNL     1      31.095 -22.422 -17.919  0.00  0.00    +0.157 HD
ENDBRANCH  22  28
ENDBRANCH  21  22
ENDBRANCH  20  21
ENDBRANCH  19  20
ENDBRANCH  18  19
ENDBRANCH   1  18
TORSDOF 7
ENDMDL
MODEL 3
REMARK VINA RESULT:     -11.7      0.639      2.160
REMARK  Name = 11697676
REMARK  7 active torsions:
REMARK  status: ('A' for Active; 'I' for Inactive)
REMARK    1  A    between atoms: N_1  and  C_18
REMARK    2  A    between atoms: N_2  and  C_8
REMARK    3  A    between atoms: C_18  and  C_19
REMARK    4  A    between atoms: C_19  and  C_20
REMARK    5  A    between atoms: C_20  and  C_21
REMARK    6  A    between atoms: C_21  and  O_22
REMARK    7  A    between atoms: O_22  and  C_28
REMARK                            x       y       z     vdW  Elec       q    Type
REMARK                         _______ _______ _______ _____ _____    ______ ____
ROOT
ATOM      1  N   UNL     1      32.272  -9.492 -20.597  0.00  0.00    +0.389 N 
ATOM      2  N   UNL     1      32.871  -7.466 -22.519  0.00  0.00    -0.312 N 
ATOM      3  C   UNL     1      31.678  -9.544 -21.939  0.00  0.00    -0.055 C 
ATOM      4  C   UNL     1      32.437  -8.095 -20.177  0.00  0.00    -0.055 C 
ATOM      5  C   UNL     1      32.570  -8.833 -22.961  0.00  0.00    +0.068 C 
ATOM      6  C   UNL     1      33.353  -7.337 -21.141  0.00  0.00    +0.068 C 
ATOM      7  H   UNL     1      33.188  -9.939 -20.625  0.00  0.00    -0.080 HD
ENDROOT
BRANCH   2   8
ATOM      8  C   UNL     1      33.272  -6.536 -23.485  0.00  0.00    +0.048 C 
ATOM      9  C   UNL     1      32.528  -5.360 -23.778  0.00  0.00    +0.013 C 
ATOM     10  C   UNL     1      34.465  -6.769 -24.204  0.00  0.00    +0.015 C 
ATOM     11  C   UNL     1      32.979  -4.452 -24.765  0.00  0.00    +0.001 C 
ATOM     12  C   UNL     1      31.336  -5.087 -23.088  0.00  0.00    +0.001 C 
ATOM     13  C   UNL     1      34.910  -5.876 -25.175  0.00  0.00    +0.001 C 
ATOM     14  C   UNL     1      34.173  -4.725 -25.454  0.00  0.00    +0.000 C 
ATOM     15  C   UNL     1      32.225  -3.299 -25.034  0.00  0.00    +0.000 C 
ATOM     16  C   UNL     1      30.599  -3.936 -23.368  0.00  0.00    +0.000 C 
ATOM     17  C   UNL     1      31.042  -3.044 -24.339  0.00  0.00    +0.000 C 
ENDBRANCH   2   8
BRANCH   1  18
ATOM     18  C   UNL     1      31.439 -10.220 -19.640  0.00  0.00    -0.077 C 
BRANCH  18  19
ATOM     19  C   UNL     1      30.901 -11.503 -20.273  0.00  0.00    -0.019 C 
BRANCH  19  20
ATOM     20  C   UNL     1      31.969 -12.594 -20.303  0.00  0.00    +0.045 C 
BRANCH  20  21
ATOM     21  C   UNL     1      32.300 -13.018 -21.728  0.00  0.00    +0.208 C 
BRANCH  21  22
ATOM     22  O   UNL     1      33.695 -13.257 -21.848  0.00  0.00    -0.452 OA
BRANCH  22  28
ATOM     23  O   UNL     1      36.290 -19.491 -20.079  0.00  0.00    -0.275 OA
ATOM     24  N   UNL     1      35.386 -17.473 -20.699  0.00  0.00    -0.263 N 
ATOM     25  N   UNL     1      34.532 -15.348 -21.290  0.00  0.00    -0.357 NA
ATOM     26  C   UNL     1      34.844 -17.020 -23.008  0.00  0.00    +0.090 C 
ATOM     27  C   UNL     1      35.178 -18.439 -23.355  0.00  0.00    +0.022 C 
ATOM     28  C   UNL     1      34.077 -14.511 -22.249  0.00  0.00    +0.278 C 
ATOM     29  C   UNL     1      34.918 -16.584 -21.685  0.00  0.00    +0.170 C 
ATOM     30  C   UNL     1      36.247 -18.987 -22.423  0.00  0.00    +0.086 C 
ATOM     31  C   UNL     1      34.355 -16.129 -23.964  0.00  0.00    -0.012 C 
ATOM     32  C   UNL     1      33.972 -14.849 -23.586  0.00  0.00    +0.068 C 
ATOM     33  C   UNL     1      35.952 -18.705 -20.964  0.00  0.00    +0.228 C 
ATOM     34  H   UNL     1      35.303 -17.199 -19.757  0.00  0.00    +0.157 HD
ENDBRANCH  22  28
ENDBRANCH  21  22
ENDBRANCH  20  21
ENDBRANCH  19  20
ENDBRANCH  18  19
ENDBRANCH   1  18
TORSDOF 7
ENDMDL
MODEL 4
REMARK VINA RESULT:     -11.6      6.706     11.264
REMARK  Name = 11697676
REMARK  7 active torsions:
REMARK  status: ('A' for Active; 'I' for Inactive)
REMARK    1  A    between atoms: N_1  and  C_18
REMARK    2  A    between atoms: N_2  and  C_8
REMARK    3  A    between atoms: C_18  and  C_19
REMARK    4  A    between atoms: C_19  and  C_20
REMARK    5  A    between atoms: C_20  and  C_21
REMARK    6  A    between atoms: C_21  and  O_22
REMARK    7  A    between atoms: O_22  and  C_28
REMARK                            x       y       z     vdW  Elec       q    Type
REMARK                         _______ _______ _______ _____ _____    ______ ____
ROOT
ATOM      1  N   UNL     1      36.099 -20.156 -19.873  0.00  0.00    +0.389 N 
ATOM      2  N   UNL     1      35.228 -18.377 -21.931  0.00  0.00    -0.312 N 
ATOM      3  C   UNL     1      37.079 -19.459 -20.715  0.00  0.00    -0.055 C 
ATOM      4  C   UNL     1      34.893 -20.457 -20.655  0.00  0.00    -0.055 C 
ATOM      5  C   UNL     1      36.507 -18.143 -21.249  0.00  0.00    +0.068 C 
ATOM      6  C   UNL     1      34.249 -19.175 -21.188  0.00  0.00    +0.068 C 
ATOM      7  H   UNL     1      35.844 -19.549 -19.094  0.00  0.00    -0.080 HD
ENDROOT
BRANCH   2   8
ATOM      8  C   UNL     1      34.788 -17.417 -22.849  0.00  0.00    +0.048 C 
ATOM      9  C   UNL     1      34.472 -16.081 -22.475  0.00  0.00    +0.013 C 
ATOM     10  C   UNL     1      34.649 -17.782 -24.206  0.00  0.00    +0.015 C 
ATOM     11  C   UNL     1      34.030 -15.150 -23.444  0.00  0.00    +0.001 C 
ATOM     12  C   UNL     1      34.595 -15.674 -21.136  0.00  0.00    +0.001 C 
ATOM     13  C   UNL     1      34.215 -16.865 -25.160  0.00  0.00    +0.001 C 
ATOM     14  C   UNL     1      33.908 -15.558 -24.782  0.00  0.00    +0.000 C 
ATOM     15  C   UNL     1      33.725 -13.838 -23.046  0.00  0.00    +0.000 C 
ATOM     16  C   UNL     1      34.287 -14.367 -20.759  0.00  0.00    +0.000 C 
ATOM     17  C   UNL     1      33.852 -13.450 -21.712  0.00  0.00    +0.000 C 
ENDBRANCH   2   8
BRANCH   1  18
ATOM     18  C   UNL     1      36.675 -21.384 -19.325  0.00  0.00    -0.077 C 
BRANCH  18  19
ATOM     19  C   UNL     1      35.947 -21.786 -18.044  0.00  0.00    -0.019 C 
BRANCH  19  20
ATOM     20  C   UNL     1      36.906 -21.836 -16.856  0.00  0.00    +0.045 C 
BRANCH  20  21
ATOM     21  C   UNL     1      36.280 -22.536 -15.657  0.00  0.00    +0.208 C 
BRANCH  21  22
ATOM     22  O   UNL     1      35.396 -23.555 -16.101  0.00  0.00    -0.452 OA
BRANCH  22  28
ATOM     23  O   UNL     1      28.542 -22.466 -16.856  0.00  0.00    -0.275 OA
ATOM     24  N   UNL     1      30.783 -22.887 -16.576  0.00  0.00    -0.263 N 
ATOM     25  N   UNL     1      33.110 -23.227 -16.325  0.00  0.00    -0.357 NA
ATOM     26  C   UNL     1      31.644 -23.625 -14.445  0.00  0.00    +0.090 C 
ATOM     27  C   UNL     1      30.242 -23.734 -13.927  0.00  0.00    +0.022 C 
ATOM     28  C   UNL     1      34.148 -23.582 -15.535  0.00  0.00    +0.278 C 
ATOM     29  C   UNL     1      31.877 -23.244 -15.766  0.00  0.00    +0.170 C 
ATOM     30  C   UNL     1      29.334 -22.721 -14.607  0.00  0.00    +0.086 C 
ATOM     31  C   UNL     1      32.741 -23.998 -13.668  0.00  0.00    -0.012 C 
ATOM     32  C   UNL     1      34.018 -23.969 -14.213  0.00  0.00    +0.068 C 
ATOM     33  C   UNL     1      29.494 -22.711 -16.113  0.00  0.00    +0.228 C 
ATOM     34  H   UNL     1      30.947 -22.754 -17.538  0.00  0.00    +0.157 HD
ENDBRANCH  22  28
ENDBRANCH  21  22
ENDBRANCH  20  21
ENDBRANCH  19  20
ENDBRANCH  18  19
ENDBRANCH   1  18
TORSDOF 7
ENDMDL
MODEL 5
REMARK VINA RESULT:     -11.5      3.743      7.412
REMARK  Name = 11697676
REMARK  7 active torsions:
REMARK  status: ('A' for Active; 'I' for Inactive)
REMARK    1  A    between atoms: N_1  and  C_18
REMARK    2  A    between atoms: N_2  and  C_8
REMARK    3  A    between atoms: C_18  and  C_19
REMARK    4  A    between atoms: C_19  and  C_20
REMARK    5  A    between atoms: C_20  and  C_21
REMARK    6  A    between atoms: C_21  and  O_22
REMARK    7  A    between atoms: O_22  and  C_28
REMARK                            x       y       z     vdW  Elec       q    Type
REMARK                         _______ _______ _______ _____ _____    ______ ____
ROOT
ATOM      1  N   UNL     1      33.961 -16.193 -24.030  0.00  0.00    +0.389 N 
ATOM      2  N   UNL     1      33.862 -13.355 -23.730  0.00  0.00    -0.312 N 
ATOM      3  C   UNL     1      34.871 -15.513 -23.100  0.00  0.00    -0.055 C 
ATOM      4  C   UNL     1      33.696 -15.332 -25.189  0.00  0.00    -0.055 C 
ATOM      5  C   UNL     1      34.264 -14.200 -22.600  0.00  0.00    +0.068 C 
ATOM      6  C   UNL     1      33.050 -14.013 -24.758  0.00  0.00    +0.068 C 
ATOM      7  H   UNL     1      33.081 -16.381 -23.550  0.00  0.00    -0.080 HD
ENDROOT
BRANCH   2   8
ATOM      8  C   UNL     1      33.715 -11.981 -23.505  0.00  0.00    +0.048 C 
ATOM      9  C   UNL     1      32.829 -11.452 -22.525  0.00  0.00    +0.013 C 
ATOM     10  C   UNL     1      34.475 -11.076 -24.277  0.00  0.00    +0.015 C 
ATOM     11  C   UNL     1      32.719 -10.054 -22.338  0.00  0.00    +0.001 C 
ATOM     12  C   UNL     1      32.053 -12.315 -21.734  0.00  0.00    +0.001 C 
ATOM     13  C   UNL     1      34.367  -9.700 -24.092  0.00  0.00    +0.001 C 
ATOM     14  C   UNL     1      33.496  -9.192 -23.129  0.00  0.00    +0.000 C 
ATOM     15  C   UNL     1      31.836  -9.559 -21.365  0.00  0.00    +0.000 C 
ATOM     16  C   UNL     1      31.181 -11.805 -20.771  0.00  0.00    +0.000 C 
ATOM     17  C   UNL     1      31.072 -10.430 -20.587  0.00  0.00    +0.000 C 
ENDBRANCH   2   8
BRANCH   1  18
ATOM     18  C   UNL     1      34.528 -17.472 -24.459  0.00  0.00    -0.077 C 
BRANCH  18  19
ATOM     19  C   UNL     1      34.154 -18.576 -23.472  0.00  0.00    -0.019 C 
BRANCH  19  20
ATOM     20  C   UNL     1      35.391 -19.134 -22.772  0.00  0.00    +0.045 C 
BRANCH  20  21
ATOM     21  C   UNL     1      35.182 -19.250 -21.268  0.00  0.00    +0.208 C 
BRANCH  21  22
ATOM     22  O   UNL     1      34.089 -20.118 -20.998  0.00  0.00    -0.452 OA
BRANCH  22  28
ATOM     23  O   UNL     1      30.790 -23.494 -15.856  0.00  0.00    -0.275 OA
ATOM     24  N   UNL     1      31.916 -22.441 -17.559  0.00  0.00    -0.263 N 
ATOM     25  N   UNL     1      33.024 -21.271 -19.291  0.00  0.00    -0.357 NA
ATOM     26  C   UNL     1      34.329 -22.468 -17.645  0.00  0.00    +0.090 C 
ATOM     27  C   UNL     1      34.351 -23.413 -16.481  0.00  0.00    +0.022 C 
ATOM     28  C   UNL     1      34.184 -20.902 -19.878  0.00  0.00    +0.278 C 
ATOM     29  C   UNL     1      33.114 -22.039 -18.179  0.00  0.00    +0.170 C 
ATOM     30  C   UNL     1      33.151 -23.183 -15.576  0.00  0.00    +0.086 C 
ATOM     31  C   UNL     1      35.502 -22.077 -18.291  0.00  0.00    -0.012 C 
ATOM     32  C   UNL     1      35.436 -21.273 -19.421  0.00  0.00    +0.068 C 
ATOM     33  C   UNL     1      31.848 -23.093 -16.343  0.00  0.00    +0.228 C 
ATOM     34  H   UNL     1      31.070 -22.245 -18.023  0.00  0.00    +0.157 HD
ENDBRANCH  22  28
ENDBRANCH  21  22
ENDBRANCH  20  21
ENDBRANCH  19  20
ENDBRANCH  18  19
ENDBRANCH   1  18
TORSDOF 7
ENDMDL
MODEL 6
REMARK VINA RESULT:     -11.4      6.643     11.634
REMARK  Name = 11697676
REMARK  7 active torsions:
REMARK  status: ('A' for Active; 'I' for Inactive)
REMARK    1  A    between atoms: N_1  and  C_18
REMARK    2  A    between atoms: N_2  and  C_8
REMARK    3  A    between atoms: C_18  and  C_19
REMARK    4  A    between atoms: C_19  and  C_20
REMARK    5  A    between atoms: C_20  and  C_21
REMARK    6  A    between atoms: C_21  and  O_22
REMARK    7  A    between atoms: O_22  and  C_28
REMARK                            x       y       z     vdW  Elec       q    Type
REMARK                         _______ _______ _______ _____ _____    ______ ____
ROOT
ATOM      1  N   UNL     1      35.969 -20.456 -20.538  0.00  0.00    +0.389 N 
ATOM      2  N   UNL     1      35.146 -18.221 -22.115  0.00  0.00    -0.312 N 
ATOM      3  C   UNL     1      34.549 -20.089 -20.621  0.00  0.00    -0.055 C 
ATOM      4  C   UNL     1      36.802 -19.250 -20.609  0.00  0.00    -0.055 C 
ATOM      5  C   UNL     1      34.246 -19.367 -21.936  0.00  0.00    +0.068 C 
ATOM      6  C   UNL     1      36.572 -18.500 -21.924  0.00  0.00    +0.068 C 
ATOM      7  H   UNL     1      36.198 -21.063 -21.326  0.00  0.00    -0.080 HD
ENDROOT
BRANCH   2   8
ATOM      8  C   UNL     1      34.748 -17.203 -22.989  0.00  0.00    +0.048 C 
ATOM      9  C   UNL     1      34.444 -15.885 -22.548  0.00  0.00    +0.013 C 
ATOM     10  C   UNL     1      34.642 -17.488 -24.367  0.00  0.00    +0.015 C 
ATOM     11  C   UNL     1      34.046 -14.892 -23.474  0.00  0.00    +0.001 C 
ATOM     12  C   UNL     1      34.535 -15.556 -21.186  0.00  0.00    +0.001 C 
ATOM     13  C   UNL     1      34.252 -16.511 -25.279  0.00  0.00    +0.001 C 
ATOM     14  C   UNL     1      33.956 -15.222 -24.837  0.00  0.00    +0.000 C 
ATOM     15  C   UNL     1      33.751 -13.600 -23.012  0.00  0.00    +0.000 C 
ATOM     16  C   UNL     1      34.239 -14.266 -20.743  0.00  0.00    +0.000 C 
ATOM     17  C   UNL     1      33.847 -13.290 -21.655  0.00  0.00    +0.000 C 
ENDBRANCH   2   8
BRANCH   1  18
ATOM     18  C   UNL     1      36.236 -21.193 -19.303  0.00  0.00    -0.077 C 
BRANCH  18  19
ATOM     19  C   UNL     1      34.974 -21.910 -18.829  0.00  0.00    -0.019 C 
BRANCH  19  20
ATOM     20  C   UNL     1      35.114 -22.377 -17.381  0.00  0.00    +0.045 C 
BRANCH  20  21
ATOM     21  C   UNL     1      33.794 -22.895 -16.826  0.00  0.00    +0.208 C 
BRANCH  21  22
ATOM     22  O   UNL     1      33.970 -24.205 -16.306  0.00  0.00    -0.452 OA
BRANCH  22  28
ATOM     23  O   UNL     1      40.066 -26.245 -13.584  0.00  0.00    -0.275 OA
ATOM     24  N   UNL     1      38.066 -25.513 -14.443  0.00  0.00    -0.263 N 
ATOM     25  N   UNL     1      35.994 -24.849 -15.373  0.00  0.00    -0.357 NA
ATOM     26  C   UNL     1      36.367 -24.586 -12.999  0.00  0.00    +0.090 C 
ATOM     27  C   UNL     1      37.324 -24.651 -11.847  0.00  0.00    +0.022 C 
ATOM     28  C   UNL     1      34.760 -24.327 -15.192  0.00  0.00    +0.278 C 
ATOM     29  C   UNL     1      36.774 -24.980 -14.273  0.00  0.00    +0.170 C 
ATOM     30  C   UNL     1      38.302 -25.802 -12.021  0.00  0.00    +0.086 C 
ATOM     31  C   UNL     1      35.091 -24.039 -12.859  0.00  0.00    -0.012 C 
ATOM     32  C   UNL     1      34.266 -23.914 -13.969  0.00  0.00    +0.068 C 
ATOM     33  C   UNL     1      38.915 -25.845 -13.406  0.00  0.00    +0.228 C 
ATOM     34  H   UNL     1      38.386 -25.657 -15.363  0.00  0.00    +0.157 HD
ENDBRANCH  22  28
ENDBRANCH  21  22
ENDBRANCH  20  21
ENDBRANCH  19  20
ENDBRANCH  18  19
ENDBRANCH   1  18
TORSDOF 7
ENDMDL
MODEL 7
REMARK VINA RESULT:     -11.3      3.739      6.942
REMARK  Name = 11697676
REMARK  7 active torsions:
REMARK  status: ('A' for Active; 'I' for Inactive)
REMARK    1  A    between atoms: N_1  and  C_18
REMARK    2  A    between atoms: N_2  and  C_8
REMARK    3  A    between atoms: C_18  and  C_19
REMARK    4  A    between atoms: C_19  and  C_20
REMARK    5  A    between atoms: C_20  and  C_21
REMARK    6  A    between atoms: C_21  and  O_22
REMARK    7  A    between atoms: O_22  and  C_28
REMARK                            x       y       z     vdW  Elec       q    Type
REMARK                         _______ _______ _______ _____ _____    ______ ____
ROOT
ATOM      1  N   UNL     1      34.050 -15.822 -23.282  0.00  0.00    +0.389 N 
ATOM      2  N   UNL     1      33.246 -13.139 -22.722  0.00  0.00    -0.312 N 
ATOM      3  C   UNL     1      34.524 -15.143 -22.069  0.00  0.00    -0.055 C 
ATOM      4  C   UNL     1      33.895 -14.849 -24.371  0.00  0.00    -0.055 C 
ATOM      5  C   UNL     1      33.533 -14.066 -21.620  0.00  0.00    +0.068 C 
ATOM      6  C   UNL     1      32.883 -13.763 -23.997  0.00  0.00    +0.068 C 
ATOM      7  H   UNL     1      33.143 -16.247 -23.088  0.00  0.00    -0.080 HD
ENDROOT
BRANCH   2   8
ATOM      8  C   UNL     1      32.743 -11.873 -22.401  0.00  0.00    +0.048 C 
ATOM      9  C   UNL     1      33.339 -10.667 -22.866  0.00  0.00    +0.013 C 
ATOM     10  C   UNL     1      31.598 -11.779 -21.581  0.00  0.00    +0.015 C 
ATOM     11  C   UNL     1      32.791  -9.412 -22.511  0.00  0.00    +0.001 C 
ATOM     12  C   UNL     1      34.480 -10.712 -23.683  0.00  0.00    +0.001 C 
ATOM     13  C   UNL     1      31.057 -10.544 -21.232  0.00  0.00    +0.001 C 
ATOM     14  C   UNL     1      31.649  -9.369 -21.694  0.00  0.00    +0.000 C 
ATOM     15  C   UNL     1      33.399  -8.238 -22.984  0.00  0.00    +0.000 C 
ATOM     16  C   UNL     1      35.072  -9.535 -24.144  0.00  0.00    +0.000 C 
ATOM     17  C   UNL     1      34.532  -8.300 -23.795  0.00  0.00    +0.000 C 
ENDBRANCH   2   8
BRANCH   1  18
ATOM     18  C   UNL     1      34.977 -16.884 -23.671  0.00  0.00    -0.077 C 
BRANCH  18  19
ATOM     19  C   UNL     1      35.513 -17.600 -22.432  0.00  0.00    -0.019 C 
BRANCH  19  20
ATOM     20  C   UNL     1      34.980 -19.028 -22.345  0.00  0.00    +0.045 C 
BRANCH  20  21
ATOM     21  C   UNL     1      34.735 -19.450 -20.903  0.00  0.00    +0.208 C 
BRANCH  21  22
ATOM     22  O   UNL     1      35.507 -20.604 -20.600  0.00  0.00    -0.452 OA
BRANCH  22  28
ATOM     23  O   UNL     1      37.653 -23.042 -14.421  0.00  0.00    -0.275 OA
ATOM     24  N   UNL     1      36.889 -22.213 -16.422  0.00  0.00    -0.263 N 
ATOM     25  N   UNL     1      36.180 -21.405 -18.530  0.00  0.00    -0.357 NA
ATOM     26  C   UNL     1      34.612 -22.596 -17.128  0.00  0.00    +0.090 C 
ATOM     27  C   UNL     1      34.314 -23.220 -15.798  0.00  0.00    +0.022 C 
ATOM     28  C   UNL     1      35.194 -21.272 -19.445  0.00  0.00    +0.278 C 
ATOM     29  C   UNL     1      35.878 -22.073 -17.391  0.00  0.00    +0.170 C 
ATOM     30  C   UNL     1      35.556 -23.883 -15.223  0.00  0.00    +0.086 C 
ATOM     31  C   UNL     1      33.619 -22.424 -18.093  0.00  0.00    -0.012 C 
ATOM     32  C   UNL     1      33.911 -21.760 -19.277  0.00  0.00    +0.068 C 
ATOM     33  C   UNL     1      36.779 -22.992 -15.286  0.00  0.00    +0.228 C 
ATOM     34  H   UNL     1      37.731 -21.723 -16.563  0.00  0.00    +0.157 HD
ENDBRANCH  22  28
ENDBRANCH  21  22
ENDBRANCH  20  21
ENDBRANCH  19  20
ENDBRANCH  18  19
ENDBRANCH   1  18
TORSDOF 7
ENDMDL
MODEL 8
REMARK VINA RESULT:     -11.2      3.794      7.656
REMARK  Name = 11697676
REMARK  7 active torsions:
REMARK  status: ('A' for Active; 'I' for Inactive)
REMARK    1  A    between atoms: N_1  and  C_18
REMARK    2  A    between atoms: N_2  and  C_8
REMARK    3  A    between atoms: C_18  and  C_19
REMARK    4  A    between atoms: C_19  and  C_20
REMARK    5  A    between atoms: C_20  and  C_21
REMARK    6  A    between atoms: C_21  and  O_22
REMARK    7  A    between atoms: O_22  and  C_28
REMARK                            x       y       z     vdW  Elec       q    Type
REMARK                         _______ _______ _______ _____ _____    ______ ____
ROOT
ATOM      1  N   UNL     1      34.041 -16.453 -23.841  0.00  0.00    +0.389 N 
ATOM      2  N   UNL     1      33.847 -13.611 -23.628  0.00  0.00    -0.312 N 
ATOM      3  C   UNL     1      34.959 -15.710 -22.969  0.00  0.00    -0.055 C 
ATOM      4  C   UNL     1      33.700 -15.641 -25.016  0.00  0.00    -0.055 C 
ATOM      5  C   UNL     1      34.322 -14.404 -22.487  0.00  0.00    +0.068 C 
ATOM      6  C   UNL     1      33.022 -14.332 -24.601  0.00  0.00    +0.068 C 
ATOM      7  H   UNL     1      33.187 -16.657 -23.322  0.00  0.00    -0.080 HD
ENDROOT
BRANCH   2   8
ATOM      8  C   UNL     1      33.657 -12.237 -23.439  0.00  0.00    +0.048 C 
ATOM      9  C   UNL     1      32.808 -11.709 -22.428  0.00  0.00    +0.013 C 
ATOM     10  C   UNL     1      34.333 -11.332 -24.286  0.00  0.00    +0.015 C 
ATOM     11  C   UNL     1      32.651 -10.310 -22.281  0.00  0.00    +0.001 C 
ATOM     12  C   UNL     1      32.115 -12.572 -21.563  0.00  0.00    +0.001 C 
ATOM     13  C   UNL     1      34.180  -9.955 -24.141  0.00  0.00    +0.001 C 
ATOM     14  C   UNL     1      33.345  -9.447 -23.145  0.00  0.00    +0.000 C 
ATOM     15  C   UNL     1      31.807  -9.815 -21.274  0.00  0.00    +0.000 C 
ATOM     16  C   UNL     1      31.280 -12.063 -20.568  0.00  0.00    +0.000 C 
ATOM     17  C   UNL     1      31.126 -10.687 -20.424  0.00  0.00    +0.000 C 
ENDBRANCH   2   8
BRANCH   1  18
ATOM     18  C   UNL     1      34.639 -17.723 -24.251  0.00  0.00    -0.077 C 
BRANCH  18  19
ATOM     19  C   UNL     1      34.227 -18.838 -23.292  0.00  0.00    -0.019 C 
BRANCH  19  20
ATOM     20  C   UNL     1      35.333 -19.132 -22.280  0.00  0.00    +0.045 C 
BRANCH  20  21
ATOM     21  C   UNL     1      34.780 -19.760 -21.008  0.00  0.00    +0.208 C 
BRANCH  21  22
ATOM     22  O   UNL     1      35.741 -20.645 -20.449  0.00  0.00    -0.452 OA
BRANCH  22  28
ATOM     23  O   UNL     1      37.588 -23.040 -14.157  0.00  0.00    -0.275 OA
ATOM     24  N   UNL     1      36.920 -22.226 -16.199  0.00  0.00    -0.263 N 
ATOM     25  N   UNL     1      36.314 -21.433 -18.343  0.00  0.00    -0.357 NA
ATOM     26  C   UNL     1      34.689 -22.642 -17.024  0.00  0.00    +0.090 C 
ATOM     27  C   UNL     1      34.330 -23.268 -15.710  0.00  0.00    +0.022 C 
ATOM     28  C   UNL     1      35.376 -21.315 -19.310  0.00  0.00    +0.278 C 
ATOM     29  C   UNL     1      35.960 -22.102 -17.221  0.00  0.00    +0.170 C 
ATOM     30  C   UNL     1      35.548 -23.912 -15.068  0.00  0.00    +0.086 C 
ATOM     31  C   UNL     1      33.747 -22.486 -18.041  0.00  0.00    -0.012 C 
ATOM     32  C   UNL     1      34.093 -21.821 -19.210  0.00  0.00    +0.068 C 
ATOM     33  C   UNL     1      36.760 -23.004 -15.068  0.00  0.00    +0.228 C 
ATOM     34  H   UNL     1      37.761 -21.724 -16.296  0.00  0.00    +0.157 HD
ENDBRANCH  22  28
ENDBRANCH  21  22
ENDBRANCH  20  21
ENDBRANCH  19  20
ENDBRANCH  18  19
ENDBRANCH   1  18
TORSDOF 7
ENDMDL
MODEL 9
REMARK VINA RESULT:     -11.1      6.644     15.427
REMARK  Name = 11697676
REMARK  7 active torsions:
REMARK  status: ('A' for Active; 'I' for Inactive)
REMARK    1  A    between atoms: N_1  and  C_18
REMARK    2  A    between atoms: N_2  and  C_8
REMARK    3  A    between atoms: C_18  and  C_19
REMARK    4  A    between atoms: C_19  and  C_20
REMARK    5  A    between atoms: C_20  and  C_21
REMARK    6  A    between atoms: C_21  and  O_22
REMARK    7  A    between atoms: O_22  and  C_28
REMARK                            x       y       z     vdW  Elec       q    Type
REMARK                         _______ _______ _______ _____ _____    ______ ____
ROOT
ATOM      1  N   UNL     1      34.219 -22.363 -17.553  0.00  0.00    +0.389 N 
ATOM      2  N   UNL     1      35.125 -23.554 -15.120  0.00  0.00    -0.312 N 
ATOM      3  C   UNL     1      33.579 -23.581 -17.039  0.00  0.00    -0.055 C 
ATOM      4  C   UNL     1      35.648 -22.370 -17.216  0.00  0.00    -0.055 C 
ATOM      5  C   UNL     1      33.717 -23.673 -15.517  0.00  0.00    +0.068 C 
ATOM      6  C   UNL     1      35.854 -22.422 -15.700  0.00  0.00    +0.068 C 
ATOM      7  H   UNL     1      33.781 -21.552 -17.118  0.00  0.00    -0.080 HD
ENDROOT
BRANCH   2   8
ATOM      8  C   UNL     1      35.498 -24.051 -13.866  0.00  0.00    +0.048 C 
ATOM      9  C   UNL     1      36.772 -24.633 -13.616  0.00  0.00    +0.013 C 
ATOM     10  C   UNL     1      34.577 -23.975 -12.799  0.00  0.00    +0.015 C 
ATOM     11  C   UNL     1      37.098 -25.120 -12.329  0.00  0.00    +0.001 C 
ATOM     12  C   UNL     1      37.720 -24.729 -14.648  0.00  0.00    +0.001 C 
ATOM     13  C   UNL     1      34.898 -24.454 -11.531  0.00  0.00    +0.001 C 
ATOM     14  C   UNL     1      36.150 -25.023 -11.297  0.00  0.00    +0.000 C 
ATOM     15  C   UNL     1      38.363 -25.690 -12.110  0.00  0.00    +0.000 C 
ATOM     16  C   UNL     1      38.972 -25.299 -14.413  0.00  0.00    +0.000 C 
ATOM     17  C   UNL     1      39.293 -25.779 -13.146  0.00  0.00    +0.000 C 
ENDBRANCH   2   8
BRANCH   1  18
ATOM     18  C   UNL     1      34.034 -22.259 -19.000  0.00  0.00    -0.077 C 
BRANCH  18  19
ATOM     19  C   UNL     1      35.156 -21.428 -19.620  0.00  0.00    -0.019 C 
BRANCH  19  20
ATOM     20  C   UNL     1      34.603 -20.187 -20.318  0.00  0.00    +0.045 C 
BRANCH  20  21
ATOM     21  C   UNL     1      35.709 -19.368 -20.971  0.00  0.00    +0.208 C 
BRANCH  21  22
ATOM     22  O   UNL     1      35.419 -17.983 -20.849  0.00  0.00    -0.452 OA
BRANCH  22  28
ATOM     23  O   UNL     1      33.789 -11.935 -23.931  0.00  0.00    -0.275 OA
ATOM     24  N   UNL     1      34.366 -13.942 -22.973  0.00  0.00    -0.263 N 
ATOM     25  N   UNL     1      34.895 -15.988 -21.911  0.00  0.00    -0.357 NA
ATOM     26  C   UNL     1      34.228 -15.996 -24.234  0.00  0.00    +0.090 C 
ATOM     27  C   UNL     1      33.900 -15.207 -25.466  0.00  0.00    +0.022 C 
ATOM     28  C   UNL     1      35.020 -17.332 -21.987  0.00  0.00    +0.278 C 
ATOM     29  C   UNL     1      34.492 -15.342 -23.031  0.00  0.00    +0.170 C 
ATOM     30  C   UNL     1      33.161 -13.928 -25.107  0.00  0.00    +0.086 C 
ATOM     31  C   UNL     1      34.383 -17.382 -24.274  0.00  0.00    -0.012 C 
ATOM     32  C   UNL     1      34.776 -18.068 -23.132  0.00  0.00    +0.068 C 
ATOM     33  C   UNL     1      33.824 -13.165 -23.979  0.00  0.00    +0.228 C 
ATOM     34  H   UNL     1      34.686 -13.484 -22.162  0.00  0.00    +0.157 HD
ENDBRANCH  22  28
ENDBRANCH  21  22
ENDBRANCH  20  21
ENDBRANCH  19  20
ENDBRANCH  18  19
ENDBRANCH   1  18
TORSDOF 7
ENDMDL
