MODEL 1
REMARK VINA RESULT:     -11.7      0.000      0.000
REMARK  Name = 42627755
REMARK  2 active torsions:
REMARK  status: ('A' for Active; 'I' for Inactive)
REMARK    1  A    between atoms: N_5  and  C_20
REMARK    2  A    between atoms: C_7  and  C_28
REMARK                            x       y       z     vdW  Elec       q    Type
REMARK                         _______ _______ _______ _____ _____    ______ ____
ROOT
ATOM      1  N   UNL     1      35.426 -21.697 -18.928  0.00  0.00    -0.239 N 
ATOM      2  N   UNL     1      34.739 -22.296 -17.941  0.00  0.00    -0.166 NA
ATOM      3  N   UNL     1      32.338 -22.433 -17.520  0.00  0.00    -0.271 N 
ATOM      4  N   UNL     1      33.295 -23.657 -15.715  0.00  0.00    -0.322 NA
ATOM      5  N   UNL     1      34.192 -24.869 -13.923  0.00  0.00    -0.247 N 
ATOM      6  N   UNL     1      31.864 -24.653 -14.051  0.00  0.00    -0.170 NA
ATOM      7  C   UNL     1      34.638 -21.060 -19.841  0.00  0.00    +0.045 C 
ATOM      8  C   UNL     1      33.344 -21.258 -19.421  0.00  0.00    +0.048 C 
ATOM      9  C   UNL     1      33.467 -22.024 -18.248  0.00  0.00    +0.152 C 
ATOM     10  C   UNL     1      32.189 -23.192 -16.334  0.00  0.00    +0.199 C 
ATOM     11  C   UNL     1      30.906 -23.415 -15.879  0.00  0.00    +0.070 C 
ATOM     12  C   UNL     1      33.062 -24.369 -14.595  0.00  0.00    +0.150 C 
ATOM     13  C   UNL     1      30.802 -24.158 -14.721  0.00  0.00    +0.116 C 
ATOM     14  H   UNL     1      36.409 -21.716 -18.988  0.00  0.00    +0.174 HD
ATOM     15  H   UNL     1      31.486 -22.134 -17.909  0.00  0.00    +0.156 HD
ATOM     16  H   UNL     1      33.975 -25.383 -13.112  0.00  0.00    +0.165 HD
ENDROOT
BRANCH   5  20
ATOM     17  N   UNL     1      38.839 -26.547 -13.979  0.00  0.00    -0.315 N 
ATOM     18  N   UNL     1      39.669 -24.694 -14.882  0.00  0.00    -0.315 N 
ATOM     19  C   UNL     1      37.766 -25.713 -14.151  0.00  0.00    +0.060 C 
ATOM     20  C   UNL     1      35.578 -24.778 -14.185  0.00  0.00    +0.059 C 
ATOM     21  C   UNL     1      38.309 -24.562 -14.716  0.00  0.00    +0.059 C 
ATOM     22  C   UNL     1      36.408 -25.859 -13.870  0.00  0.00    +0.031 C 
ATOM     23  C   UNL     1      36.093 -23.611 -14.753  0.00  0.00    +0.017 C 
ATOM     24  C   UNL     1      37.462 -23.485 -15.026  0.00  0.00    +0.017 C 
ATOM     25  C   UNL     1      39.953 -25.894 -14.429  0.00  0.00    +0.182 C 
ATOM     26  H   UNL     1      38.814 -27.455 -13.598  0.00  0.00    +0.148 HD
ATOM     27  H   UNL     1      40.294 -24.032 -15.258  0.00  0.00    +0.148 HD
ENDBRANCH   5  20
BRANCH   7  28
ATOM     28  C   UNL     1      35.104 -20.290 -21.068  0.00  0.00    +0.037 C 
ATOM     29  C   UNL     1      36.282 -19.370 -20.938  0.00  0.00    +0.006 C 
ATOM     30  C   UNL     1      34.902 -18.803 -21.106  0.00  0.00    +0.006 C 
ENDBRANCH   7  28
TORSDOF 2
ENDMDL
MODEL 2
REMARK VINA RESULT:     -11.2      1.993      5.642
REMARK  Name = 42627755
REMARK  2 active torsions:
REMARK  status: ('A' for Active; 'I' for Inactive)
REMARK    1  A    between atoms: N_5  and  C_20
REMARK    2  A    between atoms: C_7  and  C_28
REMARK                            x       y       z     vdW  Elec       q    Type
REMARK                         _______ _______ _______ _____ _____    ______ ____
ROOT
ATOM      1  N   UNL     1      33.890 -22.092 -18.477  0.00  0.00    -0.239 N 
ATOM      2  N   UNL     1      34.159 -22.574 -17.253  0.00  0.00    -0.166 NA
ATOM      3  N   UNL     1      36.259 -22.716 -16.016  0.00  0.00    -0.271 N 
ATOM      4  N   UNL     1      34.665 -23.664 -14.522  0.00  0.00    -0.322 NA
ATOM      5  N   UNL     1      33.132 -24.603 -13.022  0.00  0.00    -0.247 N 
ATOM      6  N   UNL     1      35.375 -24.467 -12.364  0.00  0.00    -0.170 NA
ATOM      7  C   UNL     1      34.984 -21.604 -19.130  0.00  0.00    +0.045 C 
ATOM      8  C   UNL     1      36.042 -21.778 -18.271  0.00  0.00    +0.048 C 
ATOM      9  C   UNL     1      35.476 -22.380 -17.132  0.00  0.00    +0.152 C 
ATOM     10  C   UNL     1      35.945 -23.315 -14.772  0.00  0.00    +0.199 C 
ATOM     11  C   UNL     1      36.979 -23.508 -13.880  0.00  0.00    +0.070 C 
ATOM     12  C   UNL     1      34.455 -24.226 -13.317  0.00  0.00    +0.150 C 
ATOM     13  C   UNL     1      36.633 -24.094 -12.680  0.00  0.00    +0.116 C 
ATOM     14  H   UNL     1      32.986 -22.091 -18.869  0.00  0.00    +0.174 HD
ATOM     15  H   UNL     1      37.212 -22.491 -16.119  0.00  0.00    +0.156 HD
ATOM     16  H   UNL     1      33.025 -25.009 -12.132  0.00  0.00    +0.165 HD
ENDROOT
BRANCH   5  20
ATOM     17  N   UNL     1      30.059 -22.569 -16.314  0.00  0.00    -0.315 N 
ATOM     18  N   UNL     1      28.459 -24.078 -15.995  0.00  0.00    -0.315 N 
ATOM     19  C   UNL     1      30.550 -23.427 -15.366  0.00  0.00    +0.060 C 
ATOM     20  C   UNL     1      31.926 -24.511 -13.755  0.00  0.00    +0.059 C 
ATOM     21  C   UNL     1      29.534 -24.360 -15.183  0.00  0.00    +0.059 C 
ATOM     22  C   UNL     1      31.760 -23.468 -14.672  0.00  0.00    +0.031 C 
ATOM     23  C   UNL     1      30.925 -25.462 -13.550  0.00  0.00    +0.017 C 
ATOM     24  C   UNL     1      29.718 -25.403 -14.259  0.00  0.00    +0.017 C 
ATOM     25  C   UNL     1      28.807 -22.999 -16.658  0.00  0.00    +0.182 C 
ATOM     26  H   UNL     1      30.523 -21.783 -16.682  0.00  0.00    +0.148 HD
ATOM     27  H   UNL     1      27.613 -24.577 -16.064  0.00  0.00    +0.148 HD
ENDBRANCH   5  20
BRANCH   7  28
ATOM     28  C   UNL     1      35.016 -20.994 -20.524  0.00  0.00    +0.037 C 
ATOM     29  C   UNL     1      35.661 -19.652 -20.710  0.00  0.00    +0.006 C 
ATOM     30  C   UNL     1      34.169 -19.786 -20.801  0.00  0.00    +0.006 C 
ENDBRANCH   7  28
TORSDOF 2
ENDMDL
MODEL 3
REMARK VINA RESULT:     -11.1      1.378      6.640
REMARK  Name = 42627755
REMARK  2 active torsions:
REMARK  status: ('A' for Active; 'I' for Inactive)
REMARK    1  A    between atoms: N_5  and  C_20
REMARK    2  A    between atoms: C_7  and  C_28
REMARK                            x       y       z     vdW  Elec       q    Type
REMARK                         _______ _______ _______ _____ _____    ______ ____
ROOT
ATOM      1  N   UNL     1      37.337 -23.923 -15.204  0.00  0.00    -0.239 N 
ATOM      2  N   UNL     1      36.006 -23.819 -15.355  0.00  0.00    -0.166 NA
ATOM      3  N   UNL     1      34.171 -24.656 -13.978  0.00  0.00    -0.271 N 
ATOM      4  N   UNL     1      33.065 -23.538 -15.766  0.00  0.00    -0.322 NA
ATOM      5  N   UNL     1      31.935 -22.450 -17.505  0.00  0.00    -0.247 N 
ATOM      6  N   UNL     1      30.657 -23.476 -15.833  0.00  0.00    -0.170 NA
ATOM      7  C   UNL     1      37.713 -24.617 -14.092  0.00  0.00    +0.045 C 
ATOM      8  C   UNL     1      36.546 -24.991 -13.471  0.00  0.00    +0.048 C 
ATOM      9  C   UNL     1      35.528 -24.474 -14.293  0.00  0.00    +0.152 C 
ATOM     10  C   UNL     1      32.978 -24.247 -14.622  0.00  0.00    +0.199 C 
ATOM     11  C   UNL     1      31.783 -24.603 -14.030  0.00  0.00    +0.070 C 
ATOM     12  C   UNL     1      31.883 -23.190 -16.310  0.00  0.00    +0.150 C 
ATOM     13  C   UNL     1      30.644 -24.187 -14.686  0.00  0.00    +0.116 C 
ATOM     14  H   UNL     1      37.982 -23.533 -15.838  0.00  0.00    +0.174 HD
ATOM     15  H   UNL     1      34.022 -25.167 -13.151  0.00  0.00    +0.156 HD
ATOM     16  H   UNL     1      31.050 -22.218 -17.866  0.00  0.00    +0.165 HD
ENDROOT
BRANCH   5  20
ATOM     17  N   UNL     1      33.983 -19.740 -21.094  0.00  0.00    -0.315 N 
ATOM     18  N   UNL     1      36.044 -20.465 -20.688  0.00  0.00    -0.315 N 
ATOM     19  C   UNL     1      33.862 -20.616 -20.048  0.00  0.00    +0.060 C 
ATOM     20  C   UNL     1      33.013 -21.974 -18.288  0.00  0.00    +0.059 C 
ATOM     21  C   UNL     1      35.162 -21.056 -19.813  0.00  0.00    +0.059 C 
ATOM     22  C   UNL     1      32.761 -21.051 -19.309  0.00  0.00    +0.031 C 
ATOM     23  C   UNL     1      34.305 -22.433 -18.028  0.00  0.00    +0.017 C 
ATOM     24  C   UNL     1      35.396 -21.983 -18.783  0.00  0.00    +0.017 C 
ATOM     25  C   UNL     1      35.305 -19.683 -21.442  0.00  0.00    +0.182 C 
ATOM     26  H   UNL     1      33.250 -19.240 -21.520  0.00  0.00    +0.148 HD
ATOM     27  H   UNL     1      37.018 -20.599 -20.739  0.00  0.00    +0.148 HD
ENDBRANCH   5  20
BRANCH   7  28
ATOM     28  C   UNL     1      39.137 -24.910 -13.640  0.00  0.00    +0.037 C 
ATOM     29  C   UNL     1      40.211 -25.042 -14.678  0.00  0.00    +0.006 C 
ATOM     30  C   UNL     1      39.726 -26.257 -13.943  0.00  0.00    +0.006 C 
ENDBRANCH   7  28
TORSDOF 2
ENDMDL
MODEL 4
REMARK VINA RESULT:     -11.1      1.939      7.107
REMARK  Name = 42627755
REMARK  2 active torsions:
REMARK  status: ('A' for Active; 'I' for Inactive)
REMARK    1  A    between atoms: N_5  and  C_20
REMARK    2  A    between atoms: C_7  and  C_28
REMARK                            x       y       z     vdW  Elec       q    Type
REMARK                         _______ _______ _______ _____ _____    ______ ____
ROOT
ATOM      1  N   UNL     1      30.924 -22.817 -16.750  0.00  0.00    -0.239 N 
ATOM      2  N   UNL     1      32.255 -22.810 -16.571  0.00  0.00    -0.166 NA
ATOM      3  N   UNL     1      33.632 -23.723 -14.773  0.00  0.00    -0.271 N 
ATOM      4  N   UNL     1      35.221 -22.750 -16.256  0.00  0.00    -0.322 NA
ATOM      5  N   UNL     1      36.818 -21.807 -17.685  0.00  0.00    -0.247 N 
ATOM      6  N   UNL     1      37.571 -22.858 -15.732  0.00  0.00    -0.170 NA
ATOM      7  C   UNL     1      30.237 -23.440 -15.751  0.00  0.00    +0.045 C 
ATOM      8  C   UNL     1      31.186 -23.873 -14.857  0.00  0.00    +0.048 C 
ATOM      9  C   UNL     1      32.410 -23.456 -15.412  0.00  0.00    +0.152 C 
ATOM     10  C   UNL     1      34.973 -23.421 -15.112  0.00  0.00    +0.199 C 
ATOM     11  C   UNL     1      35.957 -23.838 -14.240  0.00  0.00    +0.070 C 
ATOM     12  C   UNL     1      36.523 -22.505 -16.501  0.00  0.00    +0.150 C 
ATOM     13  C   UNL     1      37.251 -23.526 -14.604  0.00  0.00    +0.116 C 
ATOM     14  H   UNL     1      30.484 -22.409 -17.531  0.00  0.00    +0.174 HD
ATOM     15  H   UNL     1      33.537 -24.214 -13.926  0.00  0.00    +0.156 HD
ATOM     16  H   UNL     1      37.781 -21.651 -17.823  0.00  0.00    +0.165 HD
ENDROOT
BRANCH   5  20
ATOM     17  N   UNL     1      35.898 -19.035 -21.671  0.00  0.00    -0.315 N 
ATOM     18  N   UNL     1      33.767 -19.651 -21.807  0.00  0.00    -0.315 N 
ATOM     19  C   UNL     1      35.702 -19.906 -20.631  0.00  0.00    +0.060 C 
ATOM     20  C   UNL     1      36.003 -21.286 -18.716  0.00  0.00    +0.059 C 
ATOM     21  C   UNL     1      34.365 -20.276 -20.737  0.00  0.00    +0.059 C 
ATOM     22  C   UNL     1      36.554 -20.387 -19.636  0.00  0.00    +0.031 C 
ATOM     23  C   UNL     1      34.666 -21.676 -18.796  0.00  0.00    +0.017 C 
ATOM     24  C   UNL     1      33.828 -21.180 -19.804  0.00  0.00    +0.017 C 
ATOM     25  C   UNL     1      34.713 -18.915 -22.344  0.00  0.00    +0.182 C 
ATOM     26  H   UNL     1      36.741 -18.578 -21.895  0.00  0.00    +0.148 HD
ATOM     27  H   UNL     1      32.833 -19.737 -22.105  0.00  0.00    +0.148 HD
ENDBRANCH   5  20
BRANCH   7  28
ATOM     28  C   UNL     1      28.727 -23.616 -15.655  0.00  0.00    +0.037 C 
ATOM     29  C   UNL     1      27.864 -23.040 -16.738  0.00  0.00    +0.006 C 
ATOM     30  C   UNL     1      27.878 -22.411 -15.375  0.00  0.00    +0.006 C 
ENDBRANCH   7  28
TORSDOF 2
ENDMDL
MODEL 5
REMARK VINA RESULT:     -10.6      1.896      5.584
REMARK  Name = 42627755
REMARK  2 active torsions:
REMARK  status: ('A' for Active; 'I' for Inactive)
REMARK    1  A    between atoms: N_5  and  C_20
REMARK    2  A    between atoms: C_7  and  C_28
REMARK                            x       y       z     vdW  Elec       q    Type
REMARK                         _______ _______ _______ _____ _____    ______ ____
ROOT
ATOM      1  N   UNL     1      34.206 -20.865 -19.769  0.00  0.00    -0.239 N 
ATOM      2  N   UNL     1      34.605 -21.475 -18.641  0.00  0.00    -0.166 NA
ATOM      3  N   UNL     1      36.839 -21.836 -17.722  0.00  0.00    -0.271 N 
ATOM      4  N   UNL     1      35.402 -22.847 -16.115  0.00  0.00    -0.322 NA
ATOM      5  N   UNL     1      34.027 -23.853 -14.508  0.00  0.00    -0.247 N 
ATOM      6  N   UNL     1      36.342 -23.888 -14.155  0.00  0.00    -0.170 NA
ATOM      7  C   UNL     1      35.232 -20.368 -20.520  0.00  0.00    +0.045 C 
ATOM      8  C   UNL     1      36.381 -20.675 -19.833  0.00  0.00    +0.048 C 
ATOM      9  C   UNL     1      35.936 -21.357 -18.686  0.00  0.00    +0.152 C 
ATOM     10  C   UNL     1      36.656 -22.537 -16.506  0.00  0.00    +0.199 C 
ATOM     11  C   UNL     1      37.786 -22.864 -15.785  0.00  0.00    +0.070 C 
ATOM     12  C   UNL     1      35.319 -23.513 -14.947  0.00  0.00    +0.150 C 
ATOM     13  C   UNL     1      37.567 -23.547 -14.607  0.00  0.00    +0.116 C 
ATOM     14  H   UNL     1      33.260 -20.782 -20.031  0.00  0.00    +0.174 HD
ATOM     15  H   UNL     1      37.781 -21.648 -17.935  0.00  0.00    +0.156 HD
ATOM     16  H   UNL     1      34.015 -24.337 -13.652  0.00  0.00    +0.165 HD
ENDROOT
BRANCH   5  20
ATOM     17  N   UNL     1      29.098 -24.193 -14.598  0.00  0.00    -0.315 N 
ATOM     18  N   UNL     1      28.895 -23.087 -16.515  0.00  0.00    -0.315 N 
ATOM     19  C   UNL     1      30.377 -23.872 -14.972  0.00  0.00    +0.060 C 
ATOM     20  C   UNL     1      32.743 -23.633 -15.057  0.00  0.00    +0.059 C 
ATOM     21  C   UNL     1      30.224 -23.182 -16.171  0.00  0.00    +0.059 C 
ATOM     22  C   UNL     1      31.617 -24.119 -14.383  0.00  0.00    +0.031 C 
ATOM     23  C   UNL     1      32.622 -22.938 -16.262  0.00  0.00    +0.017 C 
ATOM     24  C   UNL     1      31.366 -22.702 -16.835  0.00  0.00    +0.017 C 
ATOM     25  C   UNL     1      28.249 -23.703 -15.551  0.00  0.00    +0.182 C 
ATOM     26  H   UNL     1      28.837 -24.688 -13.788  0.00  0.00    +0.148 HD
ATOM     27  H   UNL     1      28.512 -22.651 -17.310  0.00  0.00    +0.148 HD
ENDBRANCH   5  20
BRANCH   7  28
ATOM     28  C   UNL     1      35.115 -19.628 -21.845  0.00  0.00    +0.037 C 
ATOM     29  C   UNL     1      36.263 -18.774 -22.297  0.00  0.00    +0.006 C 
ATOM     30  C   UNL     1      34.991 -18.132 -21.826  0.00  0.00    +0.006 C 
ENDBRANCH   7  28
TORSDOF 2
ENDMDL
MODEL 6
REMARK VINA RESULT:     -10.6      1.896      6.745
REMARK  Name = 42627755
REMARK  2 active torsions:
REMARK  status: ('A' for Active; 'I' for Inactive)
REMARK    1  A    between atoms: N_5  and  C_20
REMARK    2  A    between atoms: C_7  and  C_28
REMARK                            x       y       z     vdW  Elec       q    Type
REMARK                         _______ _______ _______ _____ _____    ______ ____
ROOT
ATOM      1  N   UNL     1      30.863 -23.025 -16.359  0.00  0.00    -0.239 N 
ATOM      2  N   UNL     1      32.180 -23.131 -16.115  0.00  0.00    -0.166 NA
ATOM      3  N   UNL     1      33.387 -24.223 -14.296  0.00  0.00    -0.271 N 
ATOM      4  N   UNL     1      35.121 -23.317 -15.653  0.00  0.00    -0.322 NA
ATOM      5  N   UNL     1      36.858 -22.444 -16.959  0.00  0.00    -0.247 N 
ATOM      6  N   UNL     1      37.425 -23.631 -15.022  0.00  0.00    -0.170 NA
ATOM      7  C   UNL     1      30.079 -23.634 -15.423  0.00  0.00    +0.045 C 
ATOM      8  C   UNL     1      30.945 -24.176 -14.504  0.00  0.00    +0.048 C 
ATOM      9  C   UNL     1      32.224 -23.835 -14.980  0.00  0.00    +0.152 C 
ATOM     10  C   UNL     1      34.763 -24.013 -14.554  0.00  0.00    +0.199 C 
ATOM     11  C   UNL     1      35.666 -24.543 -13.656  0.00  0.00    +0.070 C 
ATOM     12  C   UNL     1      36.449 -23.166 -15.823  0.00  0.00    +0.150 C 
ATOM     13  C   UNL     1      36.997 -24.318 -13.942  0.00  0.00    +0.116 C 
ATOM     14  H   UNL     1      30.496 -22.552 -17.141  0.00  0.00    +0.174 HD
ATOM     15  H   UNL     1      33.211 -24.740 -13.477  0.00  0.00    +0.156 HD
ATOM     16  H   UNL     1      37.835 -22.358 -17.042  0.00  0.00    +0.165 HD
ENDROOT
BRANCH   5  20
ATOM     17  N   UNL     1      32.775 -21.267 -19.481  0.00  0.00    -0.315 N 
ATOM     18  N   UNL     1      33.864 -20.059 -20.996  0.00  0.00    -0.315 N 
ATOM     19  C   UNL     1      34.095 -21.331 -19.120  0.00  0.00    +0.060 C 
ATOM     20  C   UNL     1      36.139 -21.818 -18.004  0.00  0.00    +0.059 C 
ATOM     21  C   UNL     1      34.755 -20.570 -20.080  0.00  0.00    +0.059 C 
ATOM     22  C   UNL     1      34.750 -21.971 -18.067  0.00  0.00    +0.031 C 
ATOM     23  C   UNL     1      36.829 -21.060 -18.952  0.00  0.00    +0.017 C 
ATOM     24  C   UNL     1      36.151 -20.426 -20.001  0.00  0.00    +0.017 C 
ATOM     25  C   UNL     1      32.687 -20.496 -20.608  0.00  0.00    +0.182 C 
ATOM     26  H   UNL     1      32.023 -21.698 -19.015  0.00  0.00    +0.148 HD
ATOM     27  H   UNL     1      34.065 -19.489 -21.774  0.00  0.00    +0.148 HD
ENDBRANCH   5  20
BRANCH   7  28
ATOM     28  C   UNL     1      28.558 -23.695 -15.409  0.00  0.00    +0.037 C 
ATOM     29  C   UNL     1      27.805 -23.192 -16.605  0.00  0.00    +0.006 C 
ATOM     30  C   UNL     1      27.786 -22.410 -15.324  0.00  0.00    +0.006 C 
ENDBRANCH   7  28
TORSDOF 2
ENDMDL
MODEL 7
REMARK VINA RESULT:     -10.1      1.807      5.519
REMARK  Name = 42627755
REMARK  2 active torsions:
REMARK  status: ('A' for Active; 'I' for Inactive)
REMARK    1  A    between atoms: N_5  and  C_20
REMARK    2  A    between atoms: C_7  and  C_28
REMARK                            x       y       z     vdW  Elec       q    Type
REMARK                         _______ _______ _______ _____ _____    ______ ____
ROOT
ATOM      1  N   UNL     1      31.879 -23.853 -14.677  0.00  0.00    -0.239 N 
ATOM      2  N   UNL     1      32.883 -23.416 -15.456  0.00  0.00    -0.166 NA
ATOM      3  N   UNL     1      32.856 -22.380 -17.666  0.00  0.00    -0.271 N 
ATOM      4  N   UNL     1      35.171 -22.469 -17.117  0.00  0.00    -0.322 NA
ATOM      5  N   UNL     1      37.459 -22.536 -16.619  0.00  0.00    -0.247 N 
ATOM      6  N   UNL     1      36.805 -21.620 -18.672  0.00  0.00    -0.170 NA
ATOM      7  C   UNL     1      30.642 -23.687 -15.227  0.00  0.00    +0.045 C 
ATOM      8  C   UNL     1      30.852 -23.097 -16.450  0.00  0.00    +0.048 C 
ATOM      9  C   UNL     1      32.249 -22.955 -16.538  0.00  0.00    +0.152 C 
ATOM     10  C   UNL     1      34.209 -22.126 -17.999  0.00  0.00    +0.199 C 
ATOM     11  C   UNL     1      34.463 -21.534 -19.219  0.00  0.00    +0.070 C 
ATOM     12  C   UNL     1      36.429 -22.191 -17.513  0.00  0.00    +0.150 C 
ATOM     13  C   UNL     1      35.792 -21.303 -19.506  0.00  0.00    +0.116 C 
ATOM     14  H   UNL     1      32.023 -24.258 -13.791  0.00  0.00    +0.174 HD
ATOM     15  H   UNL     1      32.217 -22.100 -18.360  0.00  0.00    +0.156 HD
ATOM     16  H   UNL     1      38.359 -22.315 -16.948  0.00  0.00    +0.165 HD
ENDROOT
BRANCH   5  20
ATOM     17  N   UNL     1      35.830 -23.162 -11.996  0.00  0.00    -0.315 N 
ATOM     18  N   UNL     1      37.283 -24.778 -11.530  0.00  0.00    -0.315 N 
ATOM     19  C   UNL     1      36.568 -23.330 -13.138  0.00  0.00    +0.060 C 
ATOM     20  C   UNL     1      37.452 -23.137 -15.339  0.00  0.00    +0.059 C 
ATOM     21  C   UNL     1      37.468 -24.344 -12.823  0.00  0.00    +0.059 C 
ATOM     22  C   UNL     1      36.528 -22.701 -14.383  0.00  0.00    +0.031 C 
ATOM     23  C   UNL     1      38.367 -24.151 -15.053  0.00  0.00    +0.017 C 
ATOM     24  C   UNL     1      38.389 -24.769 -13.796  0.00  0.00    +0.017 C 
ATOM     25  C   UNL     1      36.294 -24.049 -11.064  0.00  0.00    +0.182 C 
ATOM     26  H   UNL     1      35.096 -22.518 -11.867  0.00  0.00    +0.148 HD
ATOM     27  H   UNL     1      37.782 -25.483 -11.058  0.00  0.00    +0.148 HD
ENDBRANCH   5  20
BRANCH   7  28
ATOM     28  C   UNL     1      29.308 -24.076 -14.605  0.00  0.00    +0.037 C 
ATOM     29  C   UNL     1      29.072 -25.514 -14.247  0.00  0.00    +0.006 C 
ATOM     30  C   UNL     1      28.351 -24.903 -15.413  0.00  0.00    +0.006 C 
ENDBRANCH   7  28
TORSDOF 2
ENDMDL
MODEL 8
REMARK VINA RESULT:      -9.1      2.068      6.300
REMARK  Name = 42627755
REMARK  2 active torsions:
REMARK  status: ('A' for Active; 'I' for Inactive)
REMARK    1  A    between atoms: N_5  and  C_20
REMARK    2  A    between atoms: C_7  and  C_28
REMARK                            x       y       z     vdW  Elec       q    Type
REMARK                         _______ _______ _______ _____ _____    ______ ____
ROOT
ATOM      1  N   UNL     1      36.071 -23.785 -13.764  0.00  0.00    -0.239 N 
ATOM      2  N   UNL     1      34.808 -23.697 -14.215  0.00  0.00    -0.166 NA
ATOM      3  N   UNL     1      32.698 -24.392 -13.204  0.00  0.00    -0.271 N 
ATOM      4  N   UNL     1      32.038 -23.460 -15.293  0.00  0.00    -0.322 NA
ATOM      5  N   UNL     1      31.343 -22.552 -17.337  0.00  0.00    -0.247 N 
ATOM      6  N   UNL     1      29.706 -23.405 -15.897  0.00  0.00    -0.170 NA
ATOM      7  C   UNL     1      36.177 -24.364 -12.533  0.00  0.00    +0.045 C 
ATOM      8  C   UNL     1      34.894 -24.675 -12.153  0.00  0.00    +0.048 C 
ATOM      9  C   UNL     1      34.094 -24.243 -13.226  0.00  0.00    +0.152 C 
ATOM     10  C   UNL     1      31.685 -24.051 -14.133  0.00  0.00    +0.199 C 
ATOM     11  C   UNL     1      30.382 -24.345 -13.789  0.00  0.00    +0.070 C 
ATOM     12  C   UNL     1      31.012 -23.168 -16.117  0.00  0.00    +0.150 C 
ATOM     13  C   UNL     1      29.424 -23.998 -14.718  0.00  0.00    +0.116 C 
ATOM     14  H   UNL     1      36.848 -23.462 -14.274  0.00  0.00    +0.174 HD
ATOM     15  H   UNL     1      32.358 -24.818 -12.384  0.00  0.00    +0.156 HD
ATOM     16  H   UNL     1      30.564 -22.357 -17.906  0.00  0.00    +0.165 HD
ENDROOT
BRANCH   5  20
ATOM     17  N   UNL     1      36.270 -22.202 -17.497  0.00  0.00    -0.315 N 
ATOM     18  N   UNL     1      36.290 -21.079 -19.415  0.00  0.00    -0.315 N 
ATOM     19  C   UNL     1      34.954 -22.063 -17.853  0.00  0.00    +0.060 C 
ATOM     20  C   UNL     1      32.577 -22.156 -17.905  0.00  0.00    +0.059 C 
ATOM     21  C   UNL     1      34.992 -21.359 -19.053  0.00  0.00    +0.059 C 
ATOM     22  C   UNL     1      33.768 -22.479 -17.246  0.00  0.00    +0.031 C 
ATOM     23  C   UNL     1      32.583 -21.451 -19.109  0.00  0.00    +0.017 C 
ATOM     24  C   UNL     1      33.785 -21.043 -19.700  0.00  0.00    +0.017 C 
ATOM     25  C   UNL     1      37.029 -21.598 -18.461  0.00  0.00    +0.182 C 
ATOM     26  H   UNL     1      36.609 -22.656 -16.692  0.00  0.00    +0.148 HD
ATOM     27  H   UNL     1      36.597 -20.595 -20.216  0.00  0.00    +0.148 HD
ENDBRANCH   5  20
BRANCH   7  28
ATOM     28  C   UNL     1      37.460 -24.611 -11.750  0.00  0.00    +0.037 C 
ATOM     29  C   UNL     1      38.759 -24.679 -12.497  0.00  0.00    +0.006 C 
ATOM     30  C   UNL     1      38.162 -25.927 -11.914  0.00  0.00    +0.006 C 
ENDBRANCH   7  28
TORSDOF 2
ENDMDL
MODEL 9
REMARK VINA RESULT:      -9.1     12.577     16.449
REMARK  Name = 42627755
REMARK  2 active torsions:
REMARK  status: ('A' for Active; 'I' for Inactive)
REMARK    1  A    between atoms: N_5  and  C_20
REMARK    2  A    between atoms: C_7  and  C_28
REMARK                            x       y       z     vdW  Elec       q    Type
REMARK                         _______ _______ _______ _____ _____    ______ ____
ROOT
ATOM      1  N   UNL     1      33.735 -12.022 -24.585  0.00  0.00    -0.239 N 
ATOM      2  N   UNL     1      33.332 -11.311 -23.518  0.00  0.00    -0.166 NA
ATOM      3  N   UNL     1      32.259 -12.015 -21.441  0.00  0.00    -0.271 N 
ATOM      4  N   UNL     1      32.471  -9.656 -21.191  0.00  0.00    -0.322 NA
ATOM      5  N   UNL     1      32.658  -7.340 -20.903  0.00  0.00    -0.247 N 
ATOM      6  N   UNL     1      31.676  -8.588 -19.183  0.00  0.00    -0.170 NA
ATOM      7  C   UNL     1      33.497 -13.361 -24.477  0.00  0.00    +0.045 C 
ATOM      8  C   UNL     1      32.898 -13.537 -23.254  0.00  0.00    +0.048 C 
ATOM      9  C   UNL     1      32.821 -12.243 -22.708  0.00  0.00    +0.152 C 
ATOM     10  C   UNL     1      32.065 -10.837 -20.679  0.00  0.00    +0.199 C 
ATOM     11  C   UNL     1      31.467 -10.971 -19.444  0.00  0.00    +0.070 C 
ATOM     12  C   UNL     1      32.249  -8.588 -20.401  0.00  0.00    +0.150 C 
ATOM     13  C   UNL     1      31.295  -9.802 -18.732  0.00  0.00    +0.116 C 
ATOM     14  H   UNL     1      34.163 -11.614 -25.373  0.00  0.00    +0.174 HD
ATOM     15  H   UNL     1      31.938 -12.832 -20.998  0.00  0.00    +0.156 HD
ATOM     16  H   UNL     1      32.477  -6.589 -20.293  0.00  0.00    +0.165 HD
ENDROOT
BRANCH   5  20
ATOM     17  N   UNL     1      32.874  -5.032 -25.267  0.00  0.00    -0.315 N 
ATOM     18  N   UNL     1      34.940  -5.721 -25.712  0.00  0.00    -0.315 N 
ATOM     19  C   UNL     1      33.245  -5.793 -24.190  0.00  0.00    +0.060 C 
ATOM     20  C   UNL     1      33.280  -6.953 -22.113  0.00  0.00    +0.059 C 
ATOM     21  C   UNL     1      34.538  -6.212 -24.491  0.00  0.00    +0.059 C 
ATOM     22  C   UNL     1      32.581  -6.142 -23.014  0.00  0.00    +0.031 C 
ATOM     23  C   UNL     1      34.578  -7.389 -22.386  0.00  0.00    +0.017 C 
ATOM     24  C   UNL     1      35.225  -7.027 -23.574  0.00  0.00    +0.017 C 
ATOM     25  C   UNL     1      33.920  -5.019 -26.149  0.00  0.00    +0.182 C 
ATOM     26  H   UNL     1      32.010  -4.576 -25.386  0.00  0.00    +0.148 HD
ATOM     27  H   UNL     1      35.805  -5.864 -26.160  0.00  0.00    +0.148 HD
ENDBRANCH   5  20
BRANCH   7  28
ATOM     28  C   UNL     1      33.831 -14.431 -25.507  0.00  0.00    +0.037 C 
ATOM     29  C   UNL     1      33.024 -15.696 -25.520  0.00  0.00    +0.006 C 
ATOM     30  C   UNL     1      34.444 -15.718 -25.036  0.00  0.00    +0.006 C 
ENDBRANCH   7  28
TORSDOF 2
ENDMDL
