MODEL 1
REMARK VINA RESULT:     -12.6      0.000      0.000
REMARK  Name = 9998128
REMARK  2 active torsions:
REMARK  status: ('A' for Active; 'I' for Inactive)
REMARK    1  A    between atoms: N_1  and  C_15
REMARK    2  A    between atoms: C_7  and  C_24
REMARK                            x       y       z     vdW  Elec       q    Type
REMARK                         _______ _______ _______ _____ _____    ______ ____
ROOT
ATOM      1  N   UNL     1      35.792 -22.970 -15.932  0.00  0.00    -0.290 N 
ATOM      2  N   UNL     1      33.445 -23.110 -16.017  0.00  0.00    -0.327 NA
ATOM      3  N   UNL     1      32.231 -22.265 -17.919  0.00  0.00    -0.342 NA
ATOM      4  C   UNL     1      34.622 -22.102 -17.871  0.00  0.00    +0.143 C 
ATOM      5  C   UNL     1      34.581 -22.721 -16.625  0.00  0.00    +0.184 C 
ATOM      6  C   UNL     1      33.384 -21.888 -18.498  0.00  0.00    +0.133 C 
ATOM      7  C   UNL     1      32.323 -22.855 -16.710  0.00  0.00    +0.165 C 
ATOM      8  C   UNL     1      35.823 -21.703 -18.486  0.00  0.00    -0.011 C 
ATOM      9  C   UNL     1      33.385 -21.270 -19.746  0.00  0.00    +0.029 C 
ATOM     10  C   UNL     1      35.795 -21.089 -19.733  0.00  0.00    -0.004 C 
ATOM     11  C   UNL     1      34.574 -20.872 -20.364  0.00  0.00    +0.002 C 
ATOM     12  H   UNL     1      36.502 -22.315 -16.124  0.00  0.00    +0.154 HD
ENDROOT
BRANCH   1  15
ATOM     13  N   UNL     1      37.422 -26.688 -12.210  0.00  0.00    -0.236 N 
ATOM     14  N   UNL     1      38.060 -25.959 -11.280  0.00  0.00    -0.180 NA
ATOM     15  C   UNL     1      36.175 -23.970 -15.025  0.00  0.00    +0.050 C 
ATOM     16  C   UNL     1      37.268 -24.638 -12.972  0.00  0.00    +0.037 C 
ATOM     17  C   UNL     1      36.923 -25.955 -13.252  0.00  0.00    +0.067 C 
ATOM     18  C   UNL     1      36.893 -23.623 -13.867  0.00  0.00    +0.018 C 
ATOM     19  C   UNL     1      35.844 -25.307 -15.276  0.00  0.00    +0.016 C 
ATOM     20  C   UNL     1      36.211 -26.329 -14.394  0.00  0.00    +0.017 C 
ATOM     21  C   UNL     1      37.965 -24.712 -11.747  0.00  0.00    +0.119 C 
ATOM     22  H   UNL     1      37.321 -27.666 -12.146  0.00  0.00    +0.174 HD
ENDBRANCH   1  15
BRANCH   7  24
ATOM     23  N   UNL     1      29.971 -22.721 -16.648  0.00  0.00    -0.398 NA
ATOM     24  C   UNL     1      31.084 -23.255 -16.096  0.00  0.00    +0.197 C 
ATOM     25  C   UNL     1      31.067 -24.128 -15.017  0.00  0.00    +0.098 C 
ATOM     26  C   UNL     1      28.790 -23.078 -16.093  0.00  0.00    +0.110 C 
ATOM     27  C   UNL     1      29.835 -24.471 -14.473  0.00  0.00    -0.016 C 
ATOM     28  C   UNL     1      28.669 -23.940 -15.016  0.00  0.00    +0.023 C 
ATOM     29  C   UNL     1      27.561 -22.489 -16.700  0.00  0.00    +0.066 C 
ENDBRANCH   7  24
TORSDOF 2
ENDMDL
MODEL 2
REMARK VINA RESULT:     -12.5      1.360      4.816
REMARK  Name = 9998128
REMARK  2 active torsions:
REMARK  status: ('A' for Active; 'I' for Inactive)
REMARK    1  A    between atoms: N_1  and  C_15
REMARK    2  A    between atoms: C_7  and  C_24
REMARK                            x       y       z     vdW  Elec       q    Type
REMARK                         _______ _______ _______ _____ _____    ______ ____
ROOT
ATOM      1  N   UNL     1      33.710 -24.926 -14.137  0.00  0.00    -0.290 N 
ATOM      2  N   UNL     1      33.716 -23.563 -16.055  0.00  0.00    -0.327 NA
ATOM      3  N   UNL     1      31.653 -22.714 -16.967  0.00  0.00    -0.342 NA
ATOM      4  C   UNL     1      31.603 -24.100 -15.011  0.00  0.00    +0.143 C 
ATOM      5  C   UNL     1      32.991 -24.173 -15.099  0.00  0.00    +0.184 C 
ATOM      6  C   UNL     1      30.960 -23.336 -15.997  0.00  0.00    +0.133 C 
ATOM      7  C   UNL     1      32.994 -22.862 -16.943  0.00  0.00    +0.165 C 
ATOM      8  C   UNL     1      30.868 -24.747 -14.002  0.00  0.00    -0.011 C 
ATOM      9  C   UNL     1      29.571 -23.240 -15.942  0.00  0.00    +0.029 C 
ATOM     10  C   UNL     1      29.482 -24.634 -13.970  0.00  0.00    -0.004 C 
ATOM     11  C   UNL     1      28.833 -23.879 -14.942  0.00  0.00    +0.002 C 
ATOM     12  H   UNL     1      33.206 -25.691 -13.774  0.00  0.00    +0.154 HD
ENDROOT
BRANCH   1  15
ATOM     13  N   UNL     1      38.679 -24.184 -11.880  0.00  0.00    -0.236 N 
ATOM     14  N   UNL     1      38.502 -23.154 -11.035  0.00  0.00    -0.180 NA
ATOM     15  C   UNL     1      35.001 -24.793 -13.602  0.00  0.00    +0.050 C 
ATOM     16  C   UNL     1      36.559 -23.679 -12.124  0.00  0.00    +0.037 C 
ATOM     17  C   UNL     1      37.551 -24.548 -12.564  0.00  0.00    +0.067 C 
ATOM     18  C   UNL     1      35.260 -23.797 -12.646  0.00  0.00    +0.018 C 
ATOM     19  C   UNL     1      36.024 -25.651 -14.024  0.00  0.00    +0.016 C 
ATOM     20  C   UNL     1      37.322 -25.547 -13.513  0.00  0.00    +0.017 C 
ATOM     21  C   UNL     1      37.211 -22.850 -11.186  0.00  0.00    +0.119 C 
ATOM     22  H   UNL     1      39.545 -24.637 -11.996  0.00  0.00    +0.174 HD
ENDBRANCH   1  15
BRANCH   7  24
ATOM     23  N   UNL     1      32.973 -21.517 -18.879  0.00  0.00    -0.398 NA
ATOM     24  C   UNL     1      33.730 -22.193 -17.984  0.00  0.00    +0.197 C 
ATOM     25  C   UNL     1      35.115 -22.257 -18.038  0.00  0.00    +0.098 C 
ATOM     26  C   UNL     1      33.636 -20.878 -19.870  0.00  0.00    +0.110 C 
ATOM     27  C   UNL     1      35.760 -21.589 -19.072  0.00  0.00    -0.016 C 
ATOM     28  C   UNL     1      35.014 -20.882 -20.009  0.00  0.00    +0.023 C 
ATOM     29  C   UNL     1      32.803 -20.132 -20.858  0.00  0.00    +0.066 C 
ENDBRANCH   7  24
TORSDOF 2
ENDMDL
MODEL 3
REMARK VINA RESULT:     -12.3      1.733      4.986
REMARK  Name = 9998128
REMARK  2 active torsions:
REMARK  status: ('A' for Active; 'I' for Inactive)
REMARK    1  A    between atoms: N_1  and  C_15
REMARK    2  A    between atoms: C_7  and  C_24
REMARK                            x       y       z     vdW  Elec       q    Type
REMARK                         _______ _______ _______ _____ _____    ______ ____
ROOT
ATOM      1  N   UNL     1      34.767 -25.297 -14.013  0.00  0.00    -0.290 N 
ATOM      2  N   UNL     1      34.447 -23.838 -15.831  0.00  0.00    -0.327 NA
ATOM      3  N   UNL     1      32.270 -22.920 -16.302  0.00  0.00    -0.342 NA
ATOM      4  C   UNL     1      32.553 -24.403 -14.439  0.00  0.00    +0.143 C 
ATOM      5  C   UNL     1      33.899 -24.488 -14.787  0.00  0.00    +0.184 C 
ATOM      6  C   UNL     1      31.754 -23.583 -15.251  0.00  0.00    +0.133 C 
ATOM      7  C   UNL     1      33.588 -23.084 -16.535  0.00  0.00    +0.165 C 
ATOM      8  C   UNL     1      32.004 -25.092 -13.344  0.00  0.00    -0.011 C 
ATOM      9  C   UNL     1      30.402 -23.473 -14.935  0.00  0.00    +0.029 C 
ATOM     10  C   UNL     1      30.650 -24.965 -13.050  0.00  0.00    -0.004 C 
ATOM     11  C   UNL     1      29.848 -24.154 -13.847  0.00  0.00    +0.002 C 
ATOM     12  H   UNL     1      34.324 -26.074 -13.600  0.00  0.00    +0.154 HD
ENDROOT
BRANCH   1  15
ATOM     13  N   UNL     1      40.197 -25.077 -13.116  0.00  0.00    -0.236 N 
ATOM     14  N   UNL     1      40.730 -25.667 -14.200  0.00  0.00    -0.180 NA
ATOM     15  C   UNL     1      36.137 -25.206 -13.721  0.00  0.00    +0.050 C 
ATOM     16  C   UNL     1      38.445 -25.623 -14.317  0.00  0.00    +0.037 C 
ATOM     17  C   UNL     1      38.831 -25.020 -13.125  0.00  0.00    +0.067 C 
ATOM     18  C   UNL     1      37.079 -25.722 -14.628  0.00  0.00    +0.018 C 
ATOM     19  C   UNL     1      36.560 -24.605 -12.529  0.00  0.00    +0.016 C 
ATOM     20  C   UNL     1      37.917 -24.498 -12.205  0.00  0.00    +0.017 C 
ATOM     21  C   UNL     1      39.661 -25.997 -14.928  0.00  0.00    +0.119 C 
ATOM     22  H   UNL     1      40.744 -24.718 -12.381  0.00  0.00    +0.174 HD
ENDBRANCH   1  15
BRANCH   7  24
ATOM     23  N   UNL     1      33.217 -21.801 -18.477  0.00  0.00    -0.398 NA
ATOM     24  C   UNL     1      34.132 -22.371 -17.661  0.00  0.00    +0.197 C 
ATOM     25  C   UNL     1      35.503 -22.293 -17.866  0.00  0.00    +0.098 C 
ATOM     26  C   UNL     1      33.697 -21.124 -19.545  0.00  0.00    +0.110 C 
ATOM     27  C   UNL     1      35.959 -21.590 -18.974  0.00  0.00    -0.016 C 
ATOM     28  C   UNL     1      35.045 -20.990 -19.835  0.00  0.00    +0.023 C 
ATOM     29  C   UNL     1      32.689 -20.495 -20.447  0.00  0.00    +0.066 C 
ENDBRANCH   7  24
TORSDOF 2
ENDMDL
MODEL 4
REMARK VINA RESULT:     -12.1      1.866      6.953
REMARK  Name = 9998128
REMARK  2 active torsions:
REMARK  status: ('A' for Active; 'I' for Inactive)
REMARK    1  A    between atoms: N_1  and  C_15
REMARK    2  A    between atoms: C_7  and  C_24
REMARK                            x       y       z     vdW  Elec       q    Type
REMARK                         _______ _______ _______ _____ _____    ______ ____
ROOT
ATOM      1  N   UNL     1      33.042 -23.899 -13.766  0.00  0.00    -0.290 N 
ATOM      2  N   UNL     1      34.227 -23.055 -15.615  0.00  0.00    -0.327 NA
ATOM      3  N   UNL     1      36.627 -23.245 -15.729  0.00  0.00    -0.342 NA
ATOM      4  C   UNL     1      35.457 -24.118 -13.826  0.00  0.00    +0.143 C 
ATOM      5  C   UNL     1      34.278 -23.681 -14.425  0.00  0.00    +0.184 C 
ATOM      6  C   UNL     1      36.641 -23.869 -14.538  0.00  0.00    +0.133 C 
ATOM      7  C   UNL     1      35.421 -22.871 -16.203  0.00  0.00    +0.165 C 
ATOM      8  C   UNL     1      35.484 -24.770 -12.581  0.00  0.00    -0.011 C 
ATOM      9  C   UNL     1      37.842 -24.290 -13.970  0.00  0.00    +0.029 C 
ATOM     10  C   UNL     1      36.696 -25.181 -12.038  0.00  0.00    -0.004 C 
ATOM     11  C   UNL     1      37.877 -24.940 -12.733  0.00  0.00    +0.002 C 
ATOM     12  H   UNL     1      33.112 -23.908 -12.783  0.00  0.00    +0.154 HD
ENDROOT
BRANCH   1  15
ATOM     13  N   UNL     1      27.938 -24.441 -15.764  0.00  0.00    -0.236 N 
ATOM     14  N   UNL     1      27.741 -23.310 -16.463  0.00  0.00    -0.180 NA
ATOM     15  C   UNL     1      31.738 -24.102 -14.243  0.00  0.00    +0.050 C 
ATOM     16  C   UNL     1      29.821 -23.345 -15.510  0.00  0.00    +0.037 C 
ATOM     17  C   UNL     1      29.166 -24.523 -15.168  0.00  0.00    +0.067 C 
ATOM     18  C   UNL     1      31.128 -23.123 -15.045  0.00  0.00    +0.018 C 
ATOM     19  C   UNL     1      31.049 -25.278 -13.915  0.00  0.00    +0.016 C 
ATOM     20  C   UNL     1      29.748 -25.514 -14.372  0.00  0.00    +0.017 C 
ATOM     21  C   UNL     1      28.889 -22.647 -16.307  0.00  0.00    +0.119 C 
ATOM     22  H   UNL     1      27.257 -25.147 -15.688  0.00  0.00    +0.174 HD
ENDBRANCH   1  15
BRANCH   7  24
ATOM     23  N   UNL     1      34.188 -22.024 -18.025  0.00  0.00    -0.398 NA
ATOM     24  C   UNL     1      35.413 -22.204 -17.478  0.00  0.00    +0.197 C 
ATOM     25  C   UNL     1      36.593 -21.789 -18.078  0.00  0.00    +0.098 C 
ATOM     26  C   UNL     1      34.148 -21.400 -19.224  0.00  0.00    +0.110 C 
ATOM     27  C   UNL     1      36.512 -21.152 -19.310  0.00  0.00    -0.016 C 
ATOM     28  C   UNL     1      35.269 -20.949 -19.902  0.00  0.00    +0.023 C 
ATOM     29  C   UNL     1      32.798 -21.200 -19.828  0.00  0.00    +0.066 C 
ENDBRANCH   7  24
TORSDOF 2
ENDMDL
MODEL 5
REMARK VINA RESULT:     -10.7      2.101      7.367
REMARK  Name = 9998128
REMARK  2 active torsions:
REMARK  status: ('A' for Active; 'I' for Inactive)
REMARK    1  A    between atoms: N_1  and  C_15
REMARK    2  A    between atoms: C_7  and  C_24
REMARK                            x       y       z     vdW  Elec       q    Type
REMARK                         _______ _______ _______ _____ _____    ______ ____
ROOT
ATOM      1  N   UNL     1      32.103 -22.361 -17.082  0.00  0.00    -0.290 N 
ATOM      2  N   UNL     1      33.369 -23.078 -15.232  0.00  0.00    -0.327 NA
ATOM      3  N   UNL     1      32.435 -24.607 -13.621  0.00  0.00    -0.342 NA
ATOM      4  C   UNL     1      31.111 -23.901 -15.492  0.00  0.00    +0.143 C 
ATOM      5  C   UNL     1      32.201 -23.135 -15.899  0.00  0.00    +0.184 C 
ATOM      6  C   UNL     1      31.282 -24.642 -14.311  0.00  0.00    +0.133 C 
ATOM      7  C   UNL     1      33.416 -23.827 -14.119  0.00  0.00    +0.165 C 
ATOM      8  C   UNL     1      29.901 -23.945 -16.205  0.00  0.00    -0.011 C 
ATOM      9  C   UNL     1      30.214 -25.420 -13.872  0.00  0.00    +0.029 C 
ATOM     10  C   UNL     1      28.850 -24.731 -15.744  0.00  0.00    -0.004 C 
ATOM     11  C   UNL     1      29.007 -25.470 -14.575  0.00  0.00    +0.002 C 
ATOM     12  H   UNL     1      31.190 -22.047 -17.277  0.00  0.00    +0.154 HD
ENDROOT
BRANCH   1  15
ATOM     13  N   UNL     1      35.634 -20.616 -20.931  0.00  0.00    -0.236 N 
ATOM     14  N   UNL     1      34.886 -19.832 -21.727  0.00  0.00    -0.180 NA
ATOM     15  C   UNL     1      33.055 -21.955 -18.029  0.00  0.00    +0.050 C 
ATOM     16  C   UNL     1      33.644 -20.703 -20.014  0.00  0.00    +0.037 C 
ATOM     17  C   UNL     1      34.948 -21.168 -19.885  0.00  0.00    +0.067 C 
ATOM     18  C   UNL     1      32.676 -21.098 -19.076  0.00  0.00    +0.018 C 
ATOM     19  C   UNL     1      34.378 -22.405 -17.929  0.00  0.00    +0.016 C 
ATOM     20  C   UNL     1      35.353 -22.021 -18.855  0.00  0.00    +0.017 C 
ATOM     21  C   UNL     1      33.676 -19.888 -21.166  0.00  0.00    +0.119 C 
ATOM     22  H   UNL     1      36.592 -20.777 -21.088  0.00  0.00    +0.174 HD
ENDBRANCH   1  15
BRANCH   7  24
ATOM     23  N   UNL     1      34.539 -24.126 -12.068  0.00  0.00    -0.398 NA
ATOM     24  C   UNL     1      34.648 -23.794 -13.375  0.00  0.00    +0.197 C 
ATOM     25  C   UNL     1      35.845 -23.443 -13.984  0.00  0.00    +0.098 C 
ATOM     26  C   UNL     1      35.680 -24.105 -11.342  0.00  0.00    +0.110 C 
ATOM     27  C   UNL     1      36.996 -23.432 -13.205  0.00  0.00    -0.016 C 
ATOM     28  C   UNL     1      36.921 -23.769 -11.858  0.00  0.00    +0.023 C 
ATOM     29  C   UNL     1      35.561 -24.470  -9.900  0.00  0.00    +0.066 C 
ENDBRANCH   7  24
TORSDOF 2
ENDMDL
MODEL 6
REMARK VINA RESULT:     -10.6      1.561      6.887
REMARK  Name = 9998128
REMARK  2 active torsions:
REMARK  status: ('A' for Active; 'I' for Inactive)
REMARK    1  A    between atoms: N_1  and  C_15
REMARK    2  A    between atoms: C_7  and  C_24
REMARK                            x       y       z     vdW  Elec       q    Type
REMARK                         _______ _______ _______ _____ _____    ______ ____
ROOT
ATOM      1  N   UNL     1      32.144 -22.913 -17.165  0.00  0.00    -0.290 N 
ATOM      2  N   UNL     1      33.858 -23.442 -15.642  0.00  0.00    -0.327 NA
ATOM      3  N   UNL     1      36.150 -22.877 -16.126  0.00  0.00    -0.342 NA
ATOM      4  C   UNL     1      34.433 -22.320 -17.705  0.00  0.00    +0.143 C 
ATOM      5  C   UNL     1      33.519 -22.894 -16.824  0.00  0.00    +0.184 C 
ATOM      6  C   UNL     1      35.777 -22.336 -17.300  0.00  0.00    +0.133 C 
ATOM      7  C   UNL     1      35.171 -23.400 -15.361  0.00  0.00    +0.165 C 
ATOM      8  C   UNL     1      34.054 -21.753 -18.935  0.00  0.00    -0.011 C 
ATOM      9  C   UNL     1      36.721 -21.773 -18.155  0.00  0.00    +0.029 C 
ATOM     10  C   UNL     1      35.017 -21.197 -19.770  0.00  0.00    -0.004 C 
ATOM     11  C   UNL     1      36.353 -21.207 -19.379  0.00  0.00    +0.002 C 
ATOM     12  H   UNL     1      31.975 -22.957 -18.135  0.00  0.00    +0.154 HD
ENDROOT
BRANCH   1  15
ATOM     13  N   UNL     1      27.409 -22.739 -14.357  0.00  0.00    -0.236 N 
ATOM     14  N   UNL     1      26.482 -22.487 -15.297  0.00  0.00    -0.180 NA
ATOM     15  C   UNL     1      30.975 -22.883 -16.388  0.00  0.00    +0.050 C 
ATOM     16  C   UNL     1      28.578 -22.612 -16.208  0.00  0.00    +0.037 C 
ATOM     17  C   UNL     1      28.686 -22.826 -14.839  0.00  0.00    +0.067 C 
ATOM     18  C   UNL     1      29.736 -22.640 -17.003  0.00  0.00    +0.018 C 
ATOM     19  C   UNL     1      31.049 -23.093 -15.005  0.00  0.00    +0.016 C 
ATOM     20  C   UNL     1      29.905 -23.069 -14.200  0.00  0.00    +0.017 C 
ATOM     21  C   UNL     1      27.197 -22.411 -16.422  0.00  0.00    +0.119 C 
ATOM     22  H   UNL     1      27.186 -22.850 -13.405  0.00  0.00    +0.174 HD
ENDBRANCH   1  15
BRANCH   7  24
ATOM     23  N   UNL     1      36.836 -24.472 -14.083  0.00  0.00    -0.398 NA
ATOM     24  C   UNL     1      35.577 -23.976 -14.106  0.00  0.00    +0.197 C 
ATOM     25  C   UNL     1      34.716 -24.006 -13.018  0.00  0.00    +0.098 C 
ATOM     26  C   UNL     1      37.247 -25.021 -12.918  0.00  0.00    +0.110 C 
ATOM     27  C   UNL     1      35.175 -24.578 -11.838  0.00  0.00    -0.016 C 
ATOM     28  C   UNL     1      36.464 -25.098 -11.777  0.00  0.00    +0.023 C 
ATOM     29  C   UNL     1      38.634 -25.569 -12.890  0.00  0.00    +0.066 C 
ENDBRANCH   7  24
TORSDOF 2
ENDMDL
MODEL 7
REMARK VINA RESULT:     -10.1      1.836      6.322
REMARK  Name = 9998128
REMARK  2 active torsions:
REMARK  status: ('A' for Active; 'I' for Inactive)
REMARK    1  A    between atoms: N_1  and  C_15
REMARK    2  A    between atoms: C_7  and  C_24
REMARK                            x       y       z     vdW  Elec       q    Type
REMARK                         _______ _______ _______ _____ _____    ______ ____
ROOT
ATOM      1  N   UNL     1      33.093 -23.162 -17.120  0.00  0.00    -0.290 N 
ATOM      2  N   UNL     1      35.128 -23.338 -15.953  0.00  0.00    -0.327 NA
ATOM      3  N   UNL     1      37.114 -22.248 -16.774  0.00  0.00    -0.342 NA
ATOM      4  C   UNL     1      35.060 -22.045 -17.994  0.00  0.00    +0.143 C 
ATOM      5  C   UNL     1      34.469 -22.841 -17.016  0.00  0.00    +0.184 C 
ATOM      6  C   UNL     1      36.426 -21.768 -17.825  0.00  0.00    +0.133 C 
ATOM      7  C   UNL     1      36.428 -23.007 -15.896  0.00  0.00    +0.165 C 
ATOM      8  C   UNL     1      34.350 -21.538 -19.097  0.00  0.00    -0.011 C 
ATOM      9  C   UNL     1      37.053 -20.975 -18.783  0.00  0.00    +0.029 C 
ATOM     10  C   UNL     1      35.001 -20.748 -20.039  0.00  0.00    -0.004 C 
ATOM     11  C   UNL     1      36.354 -20.466 -19.882  0.00  0.00    +0.002 C 
ATOM     12  H   UNL     1      32.765 -23.210 -18.048  0.00  0.00    +0.154 HD
ENDROOT
BRANCH   1  15
ATOM     13  N   UNL     1      29.421 -24.337 -13.187  0.00  0.00    -0.236 N 
ATOM     14  N   UNL     1      30.130 -25.022 -12.274  0.00  0.00    -0.180 NA
ATOM     15  C   UNL     1      32.106 -23.426 -16.157  0.00  0.00    +0.050 C 
ATOM     16  C   UNL     1      31.437 -24.401 -14.047  0.00  0.00    +0.037 C 
ATOM     17  C   UNL     1      30.147 -23.936 -14.275  0.00  0.00    +0.067 C 
ATOM     18  C   UNL     1      32.439 -24.147 -14.998  0.00  0.00    +0.018 C 
ATOM     19  C   UNL     1      30.796 -22.972 -16.356  0.00  0.00    +0.016 C 
ATOM     20  C   UNL     1      29.788 -23.217 -15.418  0.00  0.00    +0.017 C 
ATOM     21  C   UNL     1      31.356 -25.059 -12.801  0.00  0.00    +0.119 C 
ATOM     22  H   UNL     1      28.462 -24.140 -13.081  0.00  0.00    +0.174 HD
ENDBRANCH   1  15
BRANCH   7  24
ATOM     23  N   UNL     1      38.290 -24.209 -15.092  0.00  0.00    -0.398 NA
ATOM     24  C   UNL     1      37.172 -23.518 -14.774  0.00  0.00    +0.197 C 
ATOM     25  C   UNL     1      36.745 -23.300 -13.471  0.00  0.00    +0.098 C 
ATOM     26  C   UNL     1      39.010 -24.703 -14.060  0.00  0.00    +0.110 C 
ATOM     27  C   UNL     1      37.511 -23.823 -12.436  0.00  0.00    -0.016 C 
ATOM     28  C   UNL     1      38.667 -24.539 -12.727  0.00  0.00    +0.023 C 
ATOM     29  C   UNL     1      40.244 -25.466 -14.409  0.00  0.00    +0.066 C 
ENDBRANCH   7  24
TORSDOF 2
ENDMDL
