MODEL 1
REMARK VINA RESULT:     -12.0      0.000      0.000
REMARK  Name = 49831257
REMARK  4 active torsions:
REMARK  status: ('A' for Active; 'I' for Inactive)
REMARK    1  A    between atoms: C_1  and  C_23
REMARK    2  A    between atoms: C_4  and  C_14
REMARK    3  A    between atoms: C_12  and  C_20
REMARK    4  A    between atoms: C_23  and  N_27
REMARK                            x       y       z     vdW  Elec       q    Type
REMARK                         _______ _______ _______ _____ _____    ______ ____
ROOT
ATOM      1  C   UNL     1      35.374 -20.236 -20.764  0.00  0.00    -0.043 C 
ATOM      2  C   UNL     1      33.990 -20.248 -20.594  0.00  0.00    -0.006 C 
ATOM      3  C   UNL     1      36.192 -20.929 -19.871  0.00  0.00    -0.006 C 
ATOM      4  C   UNL     1      34.241 -21.647 -18.640  0.00  0.00    +0.016 C 
ATOM      5  C   UNL     1      33.423 -20.953 -19.533  0.00  0.00    +0.001 C 
ATOM      6  C   UNL     1      35.626 -21.635 -18.810  0.00  0.00    +0.001 C 
ENDROOT
BRANCH   4  14
ATOM      7  O   UNL     1      36.732 -25.442 -12.929  0.00  0.00    -0.274 OA
ATOM      8  N   UNL     1      37.211 -24.150 -14.843  0.00  0.00    -0.217 N 
ATOM      9  N   UNL     1      34.437 -23.038 -16.549  0.00  0.00    -0.152 N 
ATOM     10  N   UNL     1      35.792 -23.087 -16.445  0.00  0.00    -0.092 NA
ATOM     11  N   UNL     1      34.843 -24.258 -14.730  0.00  0.00    -0.319 NA
ATOM     12  C   UNL     1      37.519 -24.912 -13.702  0.00  0.00    +0.234 C 
ATOM     13  C   UNL     1      35.971 -23.825 -15.352  0.00  0.00    +0.167 C 
ATOM     14  C   UNL     1      33.643 -22.390 -17.518  0.00  0.00    +0.077 C 
ATOM     15  C   UNL     1      33.886 -23.761 -15.481  0.00  0.00    +0.219 C 
ATOM     16  C   UNL     1      32.300 -22.473 -17.407  0.00  0.00    +0.017 C 
ATOM     17  C   UNL     1      32.470 -23.833 -15.386  0.00  0.00    +0.051 C 
ATOM     18  C   UNL     1      31.710 -23.216 -16.307  0.00  0.00    +0.005 C 
ATOM     19  H   UNL     1      37.984 -23.801 -15.346  0.00  0.00    +0.167 HD
BRANCH  12  20
ATOM     20  C   UNL     1      38.984 -25.069 -13.441  0.00  0.00    +0.077 C 
ATOM     21  C   UNL     1      39.938 -25.042 -14.599  0.00  0.00    +0.010 C 
ATOM     22  C   UNL     1      39.674 -26.330 -13.874  0.00  0.00    +0.010 C 
ENDBRANCH  12  20
ENDBRANCH   4  14
BRANCH   1  23
ATOM     23  C   UNL     1      35.986 -19.476 -21.911  0.00  0.00    -0.050 C 
BRANCH  23  27
ATOM     24  S   UNL     1      33.955 -16.551 -24.687  0.00  0.00    -0.014 S 
ATOM     25  O   UNL     1      32.717 -15.835 -24.918  0.00  0.00    -0.173 OA
ATOM     26  O   UNL     1      35.087 -16.397 -25.580  0.00  0.00    -0.173 OA
ATOM     27  N   UNL     1      35.016 -18.582 -22.550  0.00  0.00    +0.392 N 
ATOM     28  C   UNL     1      34.717 -19.059 -23.911  0.00  0.00    -0.051 C 
ATOM     29  C   UNL     1      35.536 -17.204 -22.554  0.00  0.00    -0.051 C 
ATOM     30  C   UNL     1      34.496 -16.197 -23.032  0.00  0.00    +0.128 C 
ATOM     31  C   UNL     1      33.575 -18.282 -24.556  0.00  0.00    +0.128 C 
ATOM     32  H   UNL     1      34.144 -18.583 -22.022  0.00  0.00    -0.079 HD
ENDBRANCH  23  27
ENDBRANCH   1  23
TORSDOF 4
ENDMDL
MODEL 2
REMARK VINA RESULT:     -11.4      4.591     11.103
REMARK  Name = 49831257
REMARK  4 active torsions:
REMARK  status: ('A' for Active; 'I' for Inactive)
REMARK    1  A    between atoms: C_1  and  C_23
REMARK    2  A    between atoms: C_4  and  C_14
REMARK    3  A    between atoms: C_12  and  C_20
REMARK    4  A    between atoms: C_23  and  N_27
REMARK                            x       y       z     vdW  Elec       q    Type
REMARK                         _______ _______ _______ _____ _____    ______ ____
ROOT
ATOM      1  C   UNL     1      35.874 -18.916 -21.315  0.00  0.00    -0.043 C 
ATOM      2  C   UNL     1      35.694 -17.631 -20.802  0.00  0.00    -0.006 C 
ATOM      3  C   UNL     1      35.515 -19.197 -22.633  0.00  0.00    -0.006 C 
ATOM      4  C   UNL     1      34.796 -16.910 -22.926  0.00  0.00    +0.016 C 
ATOM      5  C   UNL     1      35.155 -16.628 -21.607  0.00  0.00    +0.001 C 
ATOM      6  C   UNL     1      34.976 -18.195 -23.439  0.00  0.00    +0.001 C 
ENDROOT
BRANCH   4  14
ATOM      7  O   UNL     1      31.313 -10.593 -21.827  0.00  0.00    -0.274 OA
ATOM      8  N   UNL     1      32.367 -12.491 -20.904  0.00  0.00    -0.217 N 
ATOM      9  N   UNL     1      33.592 -14.717 -23.226  0.00  0.00    -0.152 N 
ATOM     10  N   UNL     1      33.415 -14.384 -21.919  0.00  0.00    -0.092 NA
ATOM     11  N   UNL     1      32.511 -12.769 -23.257  0.00  0.00    -0.319 NA
ATOM     12  C   UNL     1      31.686 -11.261 -20.872  0.00  0.00    +0.234 C 
ATOM     13  C   UNL     1      32.768 -13.223 -22.002  0.00  0.00    +0.167 C 
ATOM     14  C   UNL     1      34.224 -15.851 -23.776  0.00  0.00    +0.077 C 
ATOM     15  C   UNL     1      33.031 -13.706 -24.018  0.00  0.00    +0.219 C 
ATOM     16  C   UNL     1      34.289 -15.961 -25.120  0.00  0.00    +0.017 C 
ATOM     17  C   UNL     1      33.112 -13.844 -25.431  0.00  0.00    +0.051 C 
ATOM     18  C   UNL     1      33.715 -14.923 -25.959  0.00  0.00    +0.005 C 
ATOM     19  H   UNL     1      32.587 -12.882 -20.027  0.00  0.00    +0.167 HD
BRANCH  12  20
ATOM     20  C   UNL     1      31.407 -10.746 -19.494  0.00  0.00    +0.077 C 
ATOM     21  C   UNL     1      31.397  -9.264 -19.257  0.00  0.00    +0.010 C 
ATOM     22  C   UNL     1      32.517 -10.103 -18.714  0.00  0.00    +0.010 C 
ENDBRANCH  12  20
ENDBRANCH   4  14
BRANCH   1  23
ATOM     23  C   UNL     1      36.459 -19.998 -20.446  0.00  0.00    -0.050 C 
BRANCH  23  27
ATOM     24  S   UNL     1      33.549 -22.675 -18.266  0.00  0.00    -0.014 S 
ATOM     25  O   UNL     1      32.628 -22.725 -17.148  0.00  0.00    -0.173 OA
ATOM     26  O   UNL     1      33.744 -23.825 -19.127  0.00  0.00    -0.173 OA
ATOM     27  N   UNL     1      35.471 -20.533 -19.505  0.00  0.00    +0.392 N 
ATOM     28  C   UNL     1      36.043 -21.680 -18.777  0.00  0.00    -0.051 C 
ATOM     29  C   UNL     1      34.241 -20.901 -20.227  0.00  0.00    -0.051 C 
ATOM     30  C   UNL     1      33.109 -21.284 -19.280  0.00  0.00    +0.128 C 
ATOM     31  C   UNL     1      35.134 -22.159 -17.651  0.00  0.00    +0.128 C 
ATOM     32  H   UNL     1      35.226 -19.821 -18.818  0.00  0.00    -0.079 HD
ENDBRANCH  23  27
ENDBRANCH   1  23
TORSDOF 4
ENDMDL
MODEL 3
REMARK VINA RESULT:     -11.1      1.568      1.805
REMARK  Name = 49831257
REMARK  4 active torsions:
REMARK  status: ('A' for Active; 'I' for Inactive)
REMARK    1  A    between atoms: C_1  and  C_23
REMARK    2  A    between atoms: C_4  and  C_14
REMARK    3  A    between atoms: C_12  and  C_20
REMARK    4  A    between atoms: C_23  and  N_27
REMARK                            x       y       z     vdW  Elec       q    Type
REMARK                         _______ _______ _______ _____ _____    ______ ____
ROOT
ATOM      1  C   UNL     1      34.827 -20.974 -19.855  0.00  0.00    -0.043 C 
ATOM      2  C   UNL     1      33.436 -20.880 -19.844  0.00  0.00    -0.006 C 
ATOM      3  C   UNL     1      35.487 -21.661 -18.835  0.00  0.00    -0.006 C 
ATOM      4  C   UNL     1      33.365 -22.156 -17.794  0.00  0.00    +0.016 C 
ATOM      5  C   UNL     1      32.704 -21.470 -18.814  0.00  0.00    +0.001 C 
ATOM      6  C   UNL     1      34.757 -22.251 -17.805  0.00  0.00    +0.001 C 
ENDROOT
BRANCH   4  14
ATOM      7  O   UNL     1      34.887 -25.137 -11.311  0.00  0.00    -0.274 OA
ATOM      8  N   UNL     1      35.671 -24.070 -13.263  0.00  0.00    -0.217 N 
ATOM      9  N   UNL     1      33.216 -23.275 -15.542  0.00  0.00    -0.152 N 
ATOM     10  N   UNL     1      34.534 -23.262 -15.204  0.00  0.00    -0.092 NA
ATOM     11  N   UNL     1      33.321 -24.249 -13.541  0.00  0.00    -0.319 NA
ATOM     12  C   UNL     1      35.788 -24.677 -12.000  0.00  0.00    +0.234 C 
ATOM     13  C   UNL     1      34.533 -23.855 -14.012  0.00  0.00    +0.167 C 
ATOM     14  C   UNL     1      32.593 -22.779 -16.705  0.00  0.00    +0.077 C 
ATOM     15  C   UNL     1      32.501 -23.882 -14.500  0.00  0.00    +0.219 C 
ATOM     16  C   UNL     1      31.252 -22.897 -16.814  0.00  0.00    +0.017 C 
ATOM     17  C   UNL     1      31.090 -23.993 -14.638  0.00  0.00    +0.051 C 
ATOM     18  C   UNL     1      30.492 -23.521 -15.745  0.00  0.00    +0.005 C 
ATOM     19  H   UNL     1      36.513 -23.758 -13.667  0.00  0.00    +0.167 HD
BRANCH  12  20
ATOM     20  C   UNL     1      37.188 -24.747 -11.476  0.00  0.00    +0.077 C 
ATOM     21  C   UNL     1      38.326 -24.396 -12.389  0.00  0.00    +0.010 C 
ATOM     22  C   UNL     1      38.104 -25.824 -11.981  0.00  0.00    +0.010 C 
ENDBRANCH  12  20
ENDBRANCH   4  14
BRANCH   1  23
ATOM     23  C   UNL     1      35.617 -20.339 -20.968  0.00  0.00    -0.050 C 
BRANCH  23  27
ATOM     24  S   UNL     1      34.737 -16.409 -23.011  0.00  0.00    -0.014 S 
ATOM     25  O   UNL     1      33.684 -15.453 -23.289  0.00  0.00    -0.173 OA
ATOM     26  O   UNL     1      36.089 -16.193 -23.488  0.00  0.00    -0.173 OA
ATOM     27  N   UNL     1      34.954 -19.139 -21.489  0.00  0.00    +0.392 N 
ATOM     28  C   UNL     1      35.027 -19.127 -22.961  0.00  0.00    -0.051 C 
ATOM     29  C   UNL     1      35.565 -17.936 -20.900  0.00  0.00    -0.051 C 
ATOM     30  C   UNL     1      34.797 -16.667 -21.254  0.00  0.00    +0.128 C 
ATOM     31  C   UNL     1      34.193 -18.006 -23.570  0.00  0.00    +0.128 C 
ATOM     32  H   UNL     1      33.969 -19.147 -21.228  0.00  0.00    -0.079 HD
ENDBRANCH  23  27
ENDBRANCH   1  23
TORSDOF 4
ENDMDL
MODEL 4
REMARK VINA RESULT:     -10.8      2.552      5.060
REMARK  Name = 49831257
REMARK  4 active torsions:
REMARK  status: ('A' for Active; 'I' for Inactive)
REMARK    1  A    between atoms: C_1  and  C_23
REMARK    2  A    between atoms: C_4  and  C_14
REMARK    3  A    between atoms: C_12  and  C_20
REMARK    4  A    between atoms: C_23  and  N_27
REMARK                            x       y       z     vdW  Elec       q    Type
REMARK                         _______ _______ _______ _____ _____    ______ ____
ROOT
ATOM      1  C   UNL     1      35.092 -20.231 -21.266  0.00  0.00    -0.043 C 
ATOM      2  C   UNL     1      33.851 -20.484 -20.682  0.00  0.00    -0.006 C 
ATOM      3  C   UNL     1      36.262 -20.629 -20.618  0.00  0.00    -0.006 C 
ATOM      4  C   UNL     1      34.948 -21.534 -18.803  0.00  0.00    +0.016 C 
ATOM      5  C   UNL     1      33.779 -21.135 -19.451  0.00  0.00    +0.001 C 
ATOM      6  C   UNL     1      36.190 -21.280 -19.387  0.00  0.00    +0.001 C 
ENDROOT
BRANCH   4  14
ATOM      7  O   UNL     1      29.637 -24.167 -14.550  0.00  0.00    -0.274 OA
ATOM      8  N   UNL     1      30.254 -23.092 -16.557  0.00  0.00    -0.217 N 
ATOM      9  N   UNL     1      33.641 -22.608 -16.937  0.00  0.00    -0.152 N 
ATOM     10  N   UNL     1      32.384 -22.464 -17.439  0.00  0.00    -0.092 NA
ATOM     11  N   UNL     1      32.289 -23.501 -15.407  0.00  0.00    -0.319 NA
ATOM     12  C   UNL     1      29.361 -23.646 -15.622  0.00  0.00    +0.234 C 
ATOM     13  C   UNL     1      31.629 -23.008 -16.487  0.00  0.00    +0.167 C 
ATOM     14  C   UNL     1      34.873 -22.220 -17.502  0.00  0.00    +0.077 C 
ATOM     15  C   UNL     1      33.547 -23.250 -15.694  0.00  0.00    +0.219 C 
ATOM     16  C   UNL     1      36.005 -22.481 -16.813  0.00  0.00    +0.017 C 
ATOM     17  C   UNL     1      34.753 -23.514 -14.989  0.00  0.00    +0.051 C 
ATOM     18  C   UNL     1      35.930 -23.147 -15.524  0.00  0.00    +0.005 C 
ATOM     19  H   UNL     1      29.844 -22.715 -17.370  0.00  0.00    +0.167 HD
BRANCH  12  20
ATOM     20  C   UNL     1      27.921 -23.566 -16.023  0.00  0.00    +0.077 C 
ATOM     21  C   UNL     1      27.473 -22.447 -16.917  0.00  0.00    +0.010 C 
ATOM     22  C   UNL     1      27.068 -22.461 -15.471  0.00  0.00    +0.010 C 
ENDBRANCH  12  20
ENDBRANCH   4  14
BRANCH   1  23
ATOM     23  C   UNL     1      35.170 -19.530 -22.596  0.00  0.00    -0.050 C 
BRANCH  23  27
ATOM     24  S   UNL     1      34.248 -15.132 -23.042  0.00  0.00    -0.014 S 
ATOM     25  O   UNL     1      33.243 -14.122 -22.778  0.00  0.00    -0.173 OA
ATOM     26  O   UNL     1      35.500 -14.791 -23.689  0.00  0.00    -0.173 OA
ATOM     27  N   UNL     1      34.522 -18.215 -22.557  0.00  0.00    +0.392 N 
ATOM     28  C   UNL     1      34.320 -17.717 -23.929  0.00  0.00    -0.051 C 
ATOM     29  C   UNL     1      35.329 -17.285 -21.749  0.00  0.00    -0.051 C 
ATOM     30  C   UNL     1      34.614 -15.959 -21.513  0.00  0.00    +0.128 C 
ATOM     31  C   UNL     1      33.480 -16.445 -23.962  0.00  0.00    +0.128 C 
ATOM     32  H   UNL     1      33.605 -18.294 -22.118  0.00  0.00    -0.079 HD
ENDBRANCH  23  27
ENDBRANCH   1  23
TORSDOF 4
ENDMDL
MODEL 5
REMARK VINA RESULT:      -9.8     10.582     15.761
REMARK  Name = 49831257
REMARK  4 active torsions:
REMARK  status: ('A' for Active; 'I' for Inactive)
REMARK    1  A    between atoms: C_1  and  C_23
REMARK    2  A    between atoms: C_4  and  C_14
REMARK    3  A    between atoms: C_12  and  C_20
REMARK    4  A    between atoms: C_23  and  N_27
REMARK                            x       y       z     vdW  Elec       q    Type
REMARK                         _______ _______ _______ _____ _____    ______ ____
ROOT
ATOM      1  C   UNL     1      34.589  -4.957 -26.040  0.00  0.00    -0.043 C 
ATOM      2  C   UNL     1      33.257  -4.656 -25.759  0.00  0.00    -0.006 C 
ATOM      3  C   UNL     1      35.323  -5.758 -25.165  0.00  0.00    -0.006 C 
ATOM      4  C   UNL     1      33.392  -5.955 -23.727  0.00  0.00    +0.016 C 
ATOM      5  C   UNL     1      32.658  -5.154 -24.602  0.00  0.00    +0.001 C 
ATOM      6  C   UNL     1      34.725  -6.257 -24.008  0.00  0.00    +0.001 C 
ENDROOT
BRANCH   4  14
ATOM      7  O   UNL     1      31.932 -12.557 -20.986  0.00  0.00    -0.274 OA
ATOM      8  N   UNL     1      32.859 -11.269 -22.731  0.00  0.00    -0.217 N 
ATOM      9  N   UNL     1      32.628  -7.865 -22.273  0.00  0.00    -0.152 N 
ATOM     10  N   UNL     1      33.038  -8.907 -23.046  0.00  0.00    -0.092 NA
ATOM     11  N   UNL     1      32.029  -9.698 -21.157  0.00  0.00    -0.319 NA
ATOM     12  C   UNL     1      32.503 -12.455 -22.064  0.00  0.00    +0.234 C 
ATOM     13  C   UNL     1      32.652  -9.964 -22.335  0.00  0.00    +0.167 C 
ATOM     14  C   UNL     1      32.760  -6.481 -22.504  0.00  0.00    +0.077 C 
ATOM     15  C   UNL     1      32.018  -8.384 -21.122  0.00  0.00    +0.219 C 
ATOM     16  C   UNL     1      32.279  -5.626 -21.576  0.00  0.00    +0.017 C 
ATOM     17  C   UNL     1      31.521  -7.465 -20.159  0.00  0.00    +0.051 C 
ATOM     18  C   UNL     1      31.646  -6.144 -20.375  0.00  0.00    +0.005 C 
ATOM     19  H   UNL     1      33.318 -11.385 -23.595  0.00  0.00    +0.167 HD
BRANCH  12  20
ATOM     20  C   UNL     1      32.883 -13.708 -22.788  0.00  0.00    +0.077 C 
ATOM     21  C   UNL     1      34.030 -14.528 -22.273  0.00  0.00    +0.010 C 
ATOM     22  C   UNL     1      34.177 -13.749 -23.548  0.00  0.00    +0.010 C 
ENDBRANCH  12  20
ENDBRANCH   4  14
BRANCH   1  23
ATOM     23  C   UNL     1      35.235  -4.421 -27.290  0.00  0.00    -0.050 C 
BRANCH  23  27
ATOM     24  S   UNL     1      39.600  -4.656 -28.420  0.00  0.00    -0.014 S 
ATOM     25  O   UNL     1      40.838  -5.357 -28.142  0.00  0.00    -0.173 OA
ATOM     26  O   UNL     1      39.548  -3.594 -29.406  0.00  0.00    -0.173 OA
ATOM     27  N   UNL     1      36.650  -4.794 -27.375  0.00  0.00    +0.392 N 
ATOM     28  C   UNL     1      37.494  -3.647 -27.000  0.00  0.00    -0.051 C 
ATOM     29  C   UNL     1      36.957  -5.281 -28.731  0.00  0.00    -0.051 C 
ATOM     30  C   UNL     1      38.363  -5.863 -28.829  0.00  0.00    +0.128 C 
ATOM     31  C   UNL     1      38.966  -4.027 -26.884  0.00  0.00    +0.128 C 
ATOM     32  H   UNL     1      36.848  -5.551 -26.721  0.00  0.00    -0.079 HD
ENDBRANCH  23  27
ENDBRANCH   1  23
TORSDOF 4
ENDMDL
MODEL 6
REMARK VINA RESULT:      -9.7      2.511      4.895
REMARK  Name = 49831257
REMARK  4 active torsions:
REMARK  status: ('A' for Active; 'I' for Inactive)
REMARK    1  A    between atoms: C_1  and  C_23
REMARK    2  A    between atoms: C_4  and  C_14
REMARK    3  A    between atoms: C_12  and  C_20
REMARK    4  A    between atoms: C_23  and  N_27
REMARK                            x       y       z     vdW  Elec       q    Type
REMARK                         _______ _______ _______ _____ _____    ______ ____
ROOT
ATOM      1  C   UNL     1      34.890 -19.796 -21.630  0.00  0.00    -0.043 C 
ATOM      2  C   UNL     1      33.769 -20.279 -20.955  0.00  0.00    -0.006 C 
ATOM      3  C   UNL     1      36.164 -19.991 -21.094  0.00  0.00    -0.006 C 
ATOM      4  C   UNL     1      35.193 -21.150 -19.209  0.00  0.00    +0.016 C 
ATOM      5  C   UNL     1      33.920 -20.955 -19.745  0.00  0.00    +0.001 C 
ATOM      6  C   UNL     1      36.316 -20.668 -19.884  0.00  0.00    +0.001 C 
ENDROOT
BRANCH   4  14
ATOM      7  O   UNL     1      30.770 -24.481 -14.459  0.00  0.00    -0.274 OA
ATOM      8  N   UNL     1      31.014 -23.304 -16.489  0.00  0.00    -0.217 N 
ATOM      9  N   UNL     1      34.251 -22.407 -17.240  0.00  0.00    -0.152 N 
ATOM     10  N   UNL     1      32.936 -22.407 -17.589  0.00  0.00    -0.092 NA
ATOM     11  N   UNL     1      33.205 -23.484 -15.594  0.00  0.00    -0.319 NA
ATOM     12  C   UNL     1      30.309 -23.978 -15.475  0.00  0.00    +0.234 C 
ATOM     13  C   UNL     1      32.368 -23.056 -16.575  0.00  0.00    +0.167 C 
ATOM     14  C   UNL     1      35.354 -21.863 -17.930  0.00  0.00    +0.077 C 
ATOM     15  C   UNL     1      34.382 -23.077 -16.016  0.00  0.00    +0.219 C 
ATOM     16  C   UNL     1      36.582 -21.997 -17.385  0.00  0.00    +0.017 C 
ATOM     17  C   UNL     1      35.685 -23.206 -15.463  0.00  0.00    +0.051 C 
ATOM     18  C   UNL     1      36.739 -22.690 -16.118  0.00  0.00    +0.005 C 
ATOM     19  H   UNL     1      30.469 -22.965 -17.236  0.00  0.00    +0.167 HD
BRANCH  12  20
ATOM     20  C   UNL     1      28.833 -24.066 -15.704  0.00  0.00    +0.077 C 
ATOM     21  C   UNL     1      28.214 -23.243 -16.796  0.00  0.00    +0.010 C 
ATOM     22  C   UNL     1      27.967 -22.890 -15.359  0.00  0.00    +0.010 C 
ENDBRANCH  12  20
ENDBRANCH   4  14
BRANCH   1  23
ATOM     23  C   UNL     1      34.727 -19.068 -22.937  0.00  0.00    -0.050 C 
BRANCH  23  27
ATOM     24  S   UNL     1      34.259 -14.589 -22.600  0.00  0.00    -0.014 S 
ATOM     25  O   UNL     1      34.996 -13.352 -22.436  0.00  0.00    -0.173 OA
ATOM     26  O   UNL     1      32.814 -14.590 -22.719  0.00  0.00    -0.173 OA
ATOM     27  N   UNL     1      34.984 -17.631 -22.796  0.00  0.00    +0.392 N 
ATOM     28  C   UNL     1      34.327 -17.124 -21.578  0.00  0.00    -0.051 C 
ATOM     29  C   UNL     1      34.526 -16.921 -24.002  0.00  0.00    -0.051 C 
ATOM     30  C   UNL     1      34.937 -15.453 -23.997  0.00  0.00    +0.128 C 
ATOM     31  C   UNL     1      34.714 -15.681 -21.274  0.00  0.00    +0.128 C 
ATOM     32  H   UNL     1      35.985 -17.466 -22.699  0.00  0.00    -0.079 HD
ENDBRANCH  23  27
ENDBRANCH   1  23
TORSDOF 4
ENDMDL
MODEL 7
REMARK VINA RESULT:      -9.4      7.749     14.513
REMARK  Name = 49831257
REMARK  4 active torsions:
REMARK  status: ('A' for Active; 'I' for Inactive)
REMARK    1  A    between atoms: C_1  and  C_23
REMARK    2  A    between atoms: C_4  and  C_14
REMARK    3  A    between atoms: C_12  and  C_20
REMARK    4  A    between atoms: C_23  and  N_27
REMARK                            x       y       z     vdW  Elec       q    Type
REMARK                         _______ _______ _______ _____ _____    ______ ____
ROOT
ATOM      1  C   UNL     1      33.492 -13.727 -23.552  0.00  0.00    -0.043 C 
ATOM      2  C   UNL     1      33.904 -12.453 -23.943  0.00  0.00    -0.006 C 
ATOM      3  C   UNL     1      32.692 -13.883 -22.420  0.00  0.00    -0.006 C 
ATOM      4  C   UNL     1      32.719 -11.493 -22.070  0.00  0.00    +0.016 C 
ATOM      5  C   UNL     1      33.519 -11.337 -23.202  0.00  0.00    +0.001 C 
ATOM      6  C   UNL     1      32.306 -12.767 -21.678  0.00  0.00    +0.001 C 
ENDROOT
BRANCH   4  14
ATOM      7  O   UNL     1      32.028  -4.338 -23.316  0.00  0.00    -0.274 OA
ATOM      8  N   UNL     1      32.570  -6.477 -24.148  0.00  0.00    -0.217 N 
ATOM      9  N   UNL     1      32.289  -9.021 -21.848  0.00  0.00    -0.152 N 
ATOM     10  N   UNL     1      32.587  -8.632 -23.117  0.00  0.00    -0.092 NA
ATOM     11  N   UNL     1      31.981  -6.815 -21.875  0.00  0.00    -0.319 NA
ATOM     12  C   UNL     1      32.388  -5.084 -24.216  0.00  0.00    +0.234 C 
ATOM     13  C   UNL     1      32.389  -7.316 -23.070  0.00  0.00    +0.167 C 
ATOM     14  C   UNL     1      32.312 -10.314 -21.286  0.00  0.00    +0.077 C 
ATOM     15  C   UNL     1      31.918  -7.885 -21.115  0.00  0.00    +0.219 C 
ATOM     16  C   UNL     1      31.961 -10.457 -19.990  0.00  0.00    +0.017 C 
ATOM     17  C   UNL     1      31.551  -8.062 -19.753  0.00  0.00    +0.051 C 
ATOM     18  C   UNL     1      31.571  -9.293 -19.214  0.00  0.00    +0.005 C 
ATOM     19  H   UNL     1      32.867  -6.910 -24.982  0.00  0.00    +0.167 HD
BRANCH  12  20
ATOM     20  C   UNL     1      32.679  -4.487 -25.558  0.00  0.00    +0.077 C 
ATOM     21  C   UNL     1      33.777  -5.077 -26.395  0.00  0.00    +0.010 C 
ATOM     22  C   UNL     1      33.959  -3.729 -25.759  0.00  0.00    +0.010 C 
ENDBRANCH  12  20
ENDBRANCH   4  14
BRANCH   1  23
ATOM     23  C   UNL     1      33.907 -14.933 -24.353  0.00  0.00    -0.050 C 
BRANCH  23  27
ATOM     24  S   UNL     1      35.257 -18.691 -22.245  0.00  0.00    -0.014 S 
ATOM     25  O   UNL     1      34.823 -19.739 -21.344  0.00  0.00    -0.173 OA
ATOM     26  O   UNL     1      36.605 -18.674 -22.779  0.00  0.00    -0.173 OA
ATOM     27  N   UNL     1      33.961 -16.142 -23.527  0.00  0.00    +0.392 N 
ATOM     28  C   UNL     1      34.974 -15.981 -22.469  0.00  0.00    -0.051 C 
ATOM     29  C   UNL     1      34.236 -17.314 -24.375  0.00  0.00    -0.051 C 
ATOM     30  C   UNL     1      34.116 -18.624 -23.605  0.00  0.00    +0.128 C 
ATOM     31  C   UNL     1      34.944 -17.126 -21.463  0.00  0.00    +0.128 C 
ATOM     32  H   UNL     1      33.060 -16.292 -23.073  0.00  0.00    -0.079 HD
ENDBRANCH  23  27
ENDBRANCH   1  23
TORSDOF 4
ENDMDL
MODEL 8
REMARK VINA RESULT:      -9.2      2.859      5.079
REMARK  Name = 49831257
REMARK  4 active torsions:
REMARK  status: ('A' for Active; 'I' for Inactive)
REMARK    1  A    between atoms: C_1  and  C_23
REMARK    2  A    between atoms: C_4  and  C_14
REMARK    3  A    between atoms: C_12  and  C_20
REMARK    4  A    between atoms: C_23  and  N_27
REMARK                            x       y       z     vdW  Elec       q    Type
REMARK                         _______ _______ _______ _____ _____    ______ ____
ROOT
ATOM      1  C   UNL     1      34.531 -18.986 -22.789  0.00  0.00    -0.043 C 
ATOM      2  C   UNL     1      33.524 -19.656 -22.096  0.00  0.00    -0.006 C 
ATOM      3  C   UNL     1      35.842 -19.011 -22.313  0.00  0.00    -0.006 C 
ATOM      4  C   UNL     1      35.137 -20.376 -20.448  0.00  0.00    +0.016 C 
ATOM      5  C   UNL     1      33.826 -20.350 -20.925  0.00  0.00    +0.001 C 
ATOM      6  C   UNL     1      36.145 -19.706 -21.142  0.00  0.00    +0.001 C 
ENDROOT
BRANCH   4  14
ATOM      7  O   UNL     1      31.347 -23.780 -15.225  0.00  0.00    -0.274 OA
ATOM      8  N   UNL     1      31.334 -22.573 -17.252  0.00  0.00    -0.217 N 
ATOM      9  N   UNL     1      34.451 -21.663 -18.394  0.00  0.00    -0.152 N 
ATOM     10  N   UNL     1      33.102 -21.658 -18.574  0.00  0.00    -0.092 NA
ATOM     11  N   UNL     1      33.621 -22.765 -16.645  0.00  0.00    -0.319 NA
ATOM     12  C   UNL     1      30.763 -23.262 -16.167  0.00  0.00    +0.234 C 
ATOM     13  C   UNL     1      32.666 -22.322 -17.505  0.00  0.00    +0.167 C 
ATOM     14  C   UNL     1      35.458 -21.108 -19.211  0.00  0.00    +0.077 C 
ATOM     15  C   UNL     1      34.735 -22.352 -17.206  0.00  0.00    +0.219 C 
ATOM     16  C   UNL     1      36.745 -21.250 -18.828  0.00  0.00    +0.017 C 
ATOM     17  C   UNL     1      36.097 -22.488 -16.825  0.00  0.00    +0.051 C 
ATOM     18  C   UNL     1      37.060 -21.962 -17.601  0.00  0.00    +0.005 C 
ATOM     19  H   UNL     1      30.699 -22.223 -17.919  0.00  0.00    +0.167 HD
BRANCH  12  20
ATOM     20  C   UNL     1      29.269 -23.348 -16.209  0.00  0.00    +0.077 C 
ATOM     21  C   UNL     1      28.520 -23.641 -14.941  0.00  0.00    +0.010 C 
ATOM     22  C   UNL     1      28.608 -24.682 -16.019  0.00  0.00    +0.010 C 
ENDBRANCH  12  20
ENDBRANCH   4  14
BRANCH   1  23
ATOM     23  C   UNL     1      34.204 -18.237 -24.055  0.00  0.00    -0.050 C 
BRANCH  23  27
ATOM     24  S   UNL     1      33.726 -13.826 -23.219  0.00  0.00    -0.014 S 
ATOM     25  O   UNL     1      34.419 -12.554 -23.254  0.00  0.00    -0.173 OA
ATOM     26  O   UNL     1      32.349 -13.916 -22.775  0.00  0.00    -0.173 OA
ATOM     27  N   UNL     1      34.438 -16.797 -23.911  0.00  0.00    +0.392 N 
ATOM     28  C   UNL     1      34.284 -16.404 -22.500  0.00  0.00    -0.051 C 
ATOM     29  C   UNL     1      33.522 -16.053 -24.792  0.00  0.00    -0.051 C 
ATOM     30  C   UNL     1      33.845 -14.563 -24.831  0.00  0.00    +0.128 C 
ATOM     31  C   UNL     1      34.701 -14.958 -22.256  0.00  0.00    +0.128 C 
ATOM     32  H   UNL     1      35.392 -16.572 -24.193  0.00  0.00    -0.079 HD
ENDBRANCH  23  27
ENDBRANCH   1  23
TORSDOF 4
ENDMDL
MODEL 9
REMARK VINA RESULT:      -9.0      6.933     12.041
REMARK  Name = 49831257
REMARK  4 active torsions:
REMARK  status: ('A' for Active; 'I' for Inactive)
REMARK    1  A    between atoms: C_1  and  C_23
REMARK    2  A    between atoms: C_4  and  C_14
REMARK    3  A    between atoms: C_12  and  C_20
REMARK    4  A    between atoms: C_23  and  N_27
REMARK                            x       y       z     vdW  Elec       q    Type
REMARK                         _______ _______ _______ _____ _____    ______ ____
ROOT
ATOM      1  C   UNL     1      34.647  -8.753 -23.281  0.00  0.00    -0.043 C 
ATOM      2  C   UNL     1      35.431  -9.272 -24.310  0.00  0.00    -0.006 C 
ATOM      3  C   UNL     1      33.507  -9.438 -22.859  0.00  0.00    -0.006 C 
ATOM      4  C   UNL     1      33.934 -11.159 -24.499  0.00  0.00    +0.016 C 
ATOM      5  C   UNL     1      35.075 -10.474 -24.920  0.00  0.00    +0.001 C 
ATOM      6  C   UNL     1      33.150 -10.640 -23.469  0.00  0.00    +0.001 C 
ENDROOT
BRANCH   4  14
ATOM      7  O   UNL     1      34.646 -18.254 -22.954  0.00  0.00    -0.274 OA
ATOM      8  N   UNL     1      35.016 -16.014 -22.315  0.00  0.00    -0.217 N 
ATOM      9  N   UNL     1      33.856 -13.676 -24.560  0.00  0.00    -0.152 N 
ATOM     10  N   UNL     1      34.476 -13.943 -23.378  0.00  0.00    -0.092 NA
ATOM     11  N   UNL     1      33.907 -15.899 -24.410  0.00  0.00    -0.319 NA
ATOM     12  C   UNL     1      35.071 -17.412 -22.174  0.00  0.00    +0.234 C 
ATOM     13  C   UNL     1      34.479 -15.274 -23.348  0.00  0.00    +0.167 C 
ATOM     14  C   UNL     1      33.557 -12.428 -25.144  0.00  0.00    +0.077 C 
ATOM     15  C   UNL     1      33.517 -14.895 -25.164  0.00  0.00    +0.219 C 
ATOM     16  C   UNL     1      32.918 -12.414 -26.334  0.00  0.00    +0.017 C 
ATOM     17  C   UNL     1      32.844 -14.853 -26.415  0.00  0.00    +0.051 C 
ATOM     18  C   UNL     1      32.555 -13.666 -26.975  0.00  0.00    +0.005 C 
ATOM     19  H   UNL     1      35.414 -15.494 -21.579  0.00  0.00    +0.167 HD
BRANCH  12  20
ATOM     20  C   UNL     1      35.732 -17.880 -20.916  0.00  0.00    +0.077 C 
ATOM     21  C   UNL     1      37.017 -18.649 -21.010  0.00  0.00    +0.010 C 
ATOM     22  C   UNL     1      35.753 -19.348 -20.603  0.00  0.00    +0.010 C 
ENDBRANCH  12  20
ENDBRANCH   4  14
BRANCH   1  23
ATOM     23  C   UNL     1      35.032  -7.455 -22.621  0.00  0.00    -0.050 C 
BRANCH  23  27
ATOM     24  S   UNL     1      30.856  -5.746 -22.481  0.00  0.00    -0.014 S 
ATOM     25  O   UNL     1      30.100  -4.544 -22.189  0.00  0.00    -0.173 OA
ATOM     26  O   UNL     1      30.191  -6.963 -22.903  0.00  0.00    -0.173 OA
ATOM     27  N   UNL     1      33.880  -6.565 -22.457  0.00  0.00    +0.392 N 
ATOM     28  C   UNL     1      32.981  -7.095 -21.417  0.00  0.00    -0.051 C 
ATOM     29  C   UNL     1      33.188  -6.400 -23.747  0.00  0.00    -0.051 C 
ATOM     30  C   UNL     1      32.097  -5.338 -23.684  0.00  0.00    +0.128 C 
ATOM     31  C   UNL     1      31.865  -6.119 -21.066  0.00  0.00    +0.128 C 
ATOM     32  H   UNL     1      34.195  -5.644 -22.154  0.00  0.00    -0.079 HD
ENDBRANCH  23  27
ENDBRANCH   1  23
TORSDOF 4
ENDMDL
