MODEL 1
REMARK VINA RESULT:     -12.4      0.000      0.000
REMARK  Name = 24752833
REMARK  4 active torsions:
REMARK  status: ('A' for Active; 'I' for Inactive)
REMARK    1  A    between atoms: C_1  and  N_8
REMARK    2  A    between atoms: C_2  and  N_23
REMARK    3  A    between atoms: C_9  and  C_14
REMARK    4  A    between atoms: C_24  and  C_28
REMARK                            x       y       z     vdW  Elec       q    Type
REMARK                         _______ _______ _______ _____ _____    ______ ____
ROOT
ATOM      1  C   UNL     1      31.332 -23.111 -14.930  0.00  0.00    +0.090 C 
ATOM      2  C   UNL     1      30.869 -23.244 -16.392  0.00  0.00    +0.090 C 
ATOM      3  C   UNL     1      30.398 -23.865 -13.979  0.00  0.00    +0.021 C 
ATOM      4  C   UNL     1      29.400 -22.844 -16.557  0.00  0.00    +0.021 C 
ATOM      5  C   UNL     1      28.941 -23.449 -14.156  0.00  0.00    +0.002 C 
ATOM      6  C   UNL     1      28.490 -23.611 -15.603  0.00  0.00    +0.002 C 
ENDROOT
BRANCH   1   8
ATOM      7  O   UNL     1      32.691 -23.603 -12.449  0.00  0.00    -0.267 OA
ATOM      8  N   UNL     1      32.688 -23.588 -14.767  0.00  0.00    -0.298 N 
ATOM      9  C   UNL     1      33.257 -23.796 -13.521  0.00  0.00    +0.282 C 
ATOM     10  H   UNL     1      33.226 -23.773 -15.571  0.00  0.00    +0.150 HD
BRANCH   9  14
ATOM     11  S   UNL     1      35.683 -23.964 -14.880  0.00  0.00    -0.074 S 
ATOM     12  N   UNL     1      39.029 -26.015 -13.838  0.00  0.00    +0.387 N 
ATOM     13  N   UNL     1      35.207 -24.920 -12.515  0.00  0.00    -0.399 NA
ATOM     14  C   UNL     1      34.667 -24.265 -13.523  0.00  0.00    +0.210 C 
ATOM     15  C   UNL     1      36.516 -25.203 -12.835  0.00  0.00    +0.093 C 
ATOM     16  C   UNL     1      36.941 -24.769 -14.072  0.00  0.00    +0.082 C 
ATOM     17  C   UNL     1      37.417 -25.956 -11.922  0.00  0.00    +0.032 C 
ATOM     18  C   UNL     1      38.325 -24.954 -14.599  0.00  0.00    -0.059 C 
ATOM     19  C   UNL     1      38.890 -25.826 -12.376  0.00  0.00    -0.070 C 
ATOM     20  C   UNL     1      40.439 -26.062 -14.221  0.00  0.00    -0.101 C 
ATOM     21  H   UNL     1      38.593 -26.908 -14.071  0.00  0.00    -0.080 HD
ENDBRANCH   9  14
ENDBRANCH   1   8
BRANCH   2  23
ATOM     22  O   UNL     1      33.312 -24.063 -17.659  0.00  0.00    -0.269 OA
ATOM     23  N   UNL     1      31.696 -22.448 -17.273  0.00  0.00    -0.300 N 
ATOM     24  C   UNL     1      32.862 -22.934 -17.838  0.00  0.00    +0.259 C 
ATOM     25  H   UNL     1      31.417 -21.526 -17.479  0.00  0.00    +0.150 HD
BRANCH  24  28
ATOM     26 CL   UNL     1      35.778 -17.709 -22.721  0.00  0.00    -0.082 Cl
ATOM     27  N   UNL     1      34.971 -21.835 -18.665  0.00  0.00    -0.309 N 
ATOM     28  C   UNL     1      33.610 -21.983 -18.700  0.00  0.00    +0.102 C 
ATOM     29  C   UNL     1      33.113 -21.115 -19.644  0.00  0.00    +0.020 C 
ATOM     30  C   UNL     1      35.368 -20.881 -19.574  0.00  0.00    +0.048 C 
ATOM     31  C   UNL     1      34.214 -20.410 -20.206  0.00  0.00    +0.016 C 
ATOM     32  C   UNL     1      36.646 -20.403 -19.883  0.00  0.00    +0.015 C 
ATOM     33  C   UNL     1      34.341 -19.414 -21.194  0.00  0.00    +0.013 C 
ATOM     34  C   UNL     1      35.614 -18.927 -21.514  0.00  0.00    +0.058 C 
ATOM     35  C   UNL     1      36.748 -19.415 -20.867  0.00  0.00    +0.013 C 
ATOM     36  H   UNL     1      35.577 -22.338 -18.075  0.00  0.00    +0.152 HD
ENDBRANCH  24  28
ENDBRANCH   2  23
TORSDOF 4
ENDMDL
MODEL 2
REMARK VINA RESULT:     -11.6      2.670      7.521
REMARK  Name = 24752833
REMARK  4 active torsions:
REMARK  status: ('A' for Active; 'I' for Inactive)
REMARK    1  A    between atoms: C_1  and  N_8
REMARK    2  A    between atoms: C_2  and  N_23
REMARK    3  A    between atoms: C_9  and  C_14
REMARK    4  A    between atoms: C_24  and  C_28
REMARK                            x       y       z     vdW  Elec       q    Type
REMARK                         _______ _______ _______ _____ _____    ______ ____
ROOT
ATOM      1  C   UNL     1      30.876 -23.125 -16.162  0.00  0.00    +0.090 C 
ATOM      2  C   UNL     1      31.294 -22.786 -14.720  0.00  0.00    +0.090 C 
ATOM      3  C   UNL     1      29.397 -22.805 -16.404  0.00  0.00    +0.021 C 
ATOM      4  C   UNL     1      30.365 -23.443 -13.694  0.00  0.00    +0.021 C 
ATOM      5  C   UNL     1      28.490 -23.472 -15.375  0.00  0.00    +0.002 C 
ATOM      6  C   UNL     1      28.900 -23.107 -13.953  0.00  0.00    +0.002 C 
ENDROOT
BRANCH   1   8
ATOM      7  O   UNL     1      33.340 -24.039 -17.318  0.00  0.00    -0.267 OA
ATOM      8  N   UNL     1      31.695 -22.418 -17.122  0.00  0.00    -0.298 N 
ATOM      9  C   UNL     1      32.874 -22.945 -17.624  0.00  0.00    +0.282 C 
ATOM     10  H   UNL     1      31.403 -21.529 -17.431  0.00  0.00    +0.150 HD
BRANCH   9  14
ATOM     11  S   UNL     1      35.332 -22.004 -18.536  0.00  0.00    -0.074 S 
ATOM     12  N   UNL     1      36.067 -19.115 -21.293  0.00  0.00    +0.387 N 
ATOM     13  N   UNL     1      33.012 -21.350 -19.498  0.00  0.00    -0.399 NA
ATOM     14  C   UNL     1      33.612 -22.084 -18.583  0.00  0.00    +0.210 C 
ATOM     15  C   UNL     1      33.977 -20.680 -20.216  0.00  0.00    +0.093 C 
ATOM     16  C   UNL     1      35.280 -20.906 -19.831  0.00  0.00    +0.082 C 
ATOM     17  C   UNL     1      33.643 -19.742 -21.321  0.00  0.00    +0.032 C 
ATOM     18  C   UNL     1      36.471 -20.296 -20.492  0.00  0.00    -0.059 C 
ATOM     19  C   UNL     1      34.902 -19.411 -22.157  0.00  0.00    -0.070 C 
ATOM     20  C   UNL     1      37.194 -18.636 -22.092  0.00  0.00    -0.101 C 
ATOM     21  H   UNL     1      35.785 -18.379 -20.645  0.00  0.00    -0.080 HD
ENDBRANCH   9  14
ENDBRANCH   1   8
BRANCH   2  23
ATOM     22  O   UNL     1      32.178 -25.281 -13.609  0.00  0.00    -0.269 OA
ATOM     23  N   UNL     1      32.661 -23.184 -14.468  0.00  0.00    -0.300 N 
ATOM     24  C   UNL     1      32.989 -24.415 -13.926  0.00  0.00    +0.259 C 
ATOM     25  H   UNL     1      33.386 -22.555 -14.691  0.00  0.00    +0.150 HD
BRANCH  24  28
ATOM     26 CL   UNL     1      40.566 -25.908 -13.847  0.00  0.00    -0.082 Cl
ATOM     27  N   UNL     1      35.052 -24.537 -12.489  0.00  0.00    -0.309 N 
ATOM     28  C   UNL     1      34.437 -24.661 -13.705  0.00  0.00    +0.102 C 
ATOM     29  C   UNL     1      35.389 -25.035 -14.625  0.00  0.00    +0.020 C 
ATOM     30  C   UNL     1      36.393 -24.828 -12.603  0.00  0.00    +0.048 C 
ATOM     31  C   UNL     1      36.632 -25.146 -13.942  0.00  0.00    +0.016 C 
ATOM     32  C   UNL     1      37.402 -24.832 -11.634  0.00  0.00    +0.015 C 
ATOM     33  C   UNL     1      37.942 -25.485 -14.335  0.00  0.00    +0.013 C 
ATOM     34  C   UNL     1      38.962 -25.495 -13.376  0.00  0.00    +0.058 C 
ATOM     35  C   UNL     1      38.694 -25.173 -12.046  0.00  0.00    +0.013 C 
ATOM     36  H   UNL     1      34.601 -24.279 -11.653  0.00  0.00    +0.152 HD
ENDBRANCH  24  28
ENDBRANCH   2  23
TORSDOF 4
ENDMDL
MODEL 3
REMARK VINA RESULT:      -9.6      3.017      8.284
REMARK  Name = 24752833
REMARK  4 active torsions:
REMARK  status: ('A' for Active; 'I' for Inactive)
REMARK    1  A    between atoms: C_1  and  N_8
REMARK    2  A    between atoms: C_2  and  N_23
REMARK    3  A    between atoms: C_9  and  C_14
REMARK    4  A    between atoms: C_24  and  C_28
REMARK                            x       y       z     vdW  Elec       q    Type
REMARK                         _______ _______ _______ _____ _____    ______ ____
ROOT
ATOM      1  C   UNL     1      37.544 -23.960 -14.903  0.00  0.00    +0.090 C 
ATOM      2  C   UNL     1      36.760 -25.284 -14.880  0.00  0.00    +0.090 C 
ATOM      3  C   UNL     1      39.049 -24.200 -14.749  0.00  0.00    +0.021 C 
ATOM      4  C   UNL     1      37.107 -26.125 -13.648  0.00  0.00    +0.021 C 
ATOM      5  C   UNL     1      39.374 -25.035 -13.514  0.00  0.00    +0.002 C 
ATOM      6  C   UNL     1      38.610 -26.354 -13.519  0.00  0.00    +0.002 C 
ENDROOT
BRANCH   1   8
ATOM      7  O   UNL     1      35.483 -22.004 -15.321  0.00  0.00    -0.267 OA
ATOM      8  N   UNL     1      37.287 -23.222 -16.121  0.00  0.00    -0.298 N 
ATOM      9  C   UNL     1      36.263 -22.294 -16.224  0.00  0.00    +0.282 C 
ATOM     10  H   UNL     1      37.861 -23.385 -16.904  0.00  0.00    +0.150 HD
BRANCH   9  14
ATOM     11  S   UNL     1      34.733 -21.960 -18.528  0.00  0.00    -0.074 S 
ATOM     12  N   UNL     1      35.684 -19.948 -21.925  0.00  0.00    +0.387 N 
ATOM     13  N   UNL     1      37.004 -20.802 -18.041  0.00  0.00    -0.399 NA
ATOM     14  C   UNL     1      36.114 -21.640 -17.550  0.00  0.00    +0.210 C 
ATOM     15  C   UNL     1      36.565 -20.379 -19.275  0.00  0.00    +0.093 C 
ATOM     16  C   UNL     1      35.365 -20.906 -19.700  0.00  0.00    +0.082 C 
ATOM     17  C   UNL     1      37.344 -19.436 -20.121  0.00  0.00    +0.032 C 
ATOM     18  C   UNL     1      34.705 -20.560 -20.994  0.00  0.00    -0.059 C 
ATOM     19  C   UNL     1      36.470 -18.878 -21.268  0.00  0.00    -0.070 C 
ATOM     20  C   UNL     1      35.002 -19.434 -23.111  0.00  0.00    -0.101 C 
ATOM     21  H   UNL     1      36.342 -20.675 -22.210  0.00  0.00    -0.080 HD
ENDBRANCH   9  14
ENDBRANCH   1   8
BRANCH   2  23
ATOM     22  O   UNL     1      35.118 -24.304 -12.738  0.00  0.00    -0.269 OA
ATOM     23  N   UNL     1      35.334 -25.044 -14.924  0.00  0.00    -0.300 N 
ATOM     24  C   UNL     1      34.628 -24.568 -13.832  0.00  0.00    +0.259 C 
ATOM     25  H   UNL     1      34.849 -25.225 -15.761  0.00  0.00    +0.150 HD
BRANCH  24  28
ATOM     26 CL   UNL     1      27.269 -22.699 -15.250  0.00  0.00    -0.082 Cl
ATOM     27  N   UNL     1      32.241 -25.364 -13.731  0.00  0.00    -0.309 N 
ATOM     28  C   UNL     1      33.165 -24.399 -14.032  0.00  0.00    +0.102 C 
ATOM     29  C   UNL     1      32.492 -23.307 -14.529  0.00  0.00    +0.020 C 
ATOM     30  C   UNL     1      30.974 -24.915 -14.026  0.00  0.00    +0.048 C 
ATOM     31  C   UNL     1      31.103 -23.619 -14.531  0.00  0.00    +0.016 C 
ATOM     32  C   UNL     1      29.735 -25.550 -13.886  0.00  0.00    +0.015 C 
ATOM     33  C   UNL     1      29.941 -22.921 -14.916  0.00  0.00    +0.013 C 
ATOM     34  C   UNL     1      28.695 -23.544 -14.781  0.00  0.00    +0.058 C 
ATOM     35  C   UNL     1      28.595 -24.838 -14.274  0.00  0.00    +0.013 C 
ATOM     36  H   UNL     1      32.452 -26.249 -13.358  0.00  0.00    +0.152 HD
ENDBRANCH  24  28
ENDBRANCH   2  23
TORSDOF 4
ENDMDL
MODEL 4
REMARK VINA RESULT:      -9.5      2.015      6.185
REMARK  Name = 24752833
REMARK  4 active torsions:
REMARK  status: ('A' for Active; 'I' for Inactive)
REMARK    1  A    between atoms: C_1  and  N_8
REMARK    2  A    between atoms: C_2  and  N_23
REMARK    3  A    between atoms: C_9  and  C_14
REMARK    4  A    between atoms: C_24  and  C_28
REMARK                            x       y       z     vdW  Elec       q    Type
REMARK                         _______ _______ _______ _____ _____    ______ ____
ROOT
ATOM      1  C   UNL     1      36.825 -25.346 -14.893  0.00  0.00    +0.090 C 
ATOM      2  C   UNL     1      37.624 -24.031 -14.848  0.00  0.00    +0.090 C 
ATOM      3  C   UNL     1      37.110 -26.215 -13.664  0.00  0.00    +0.021 C 
ATOM      4  C   UNL     1      39.119 -24.288 -14.633  0.00  0.00    +0.021 C 
ATOM      5  C   UNL     1      38.603 -26.462 -13.471  0.00  0.00    +0.002 C 
ATOM      6  C   UNL     1      39.379 -25.151 -13.402  0.00  0.00    +0.002 C 
ENDROOT
BRANCH   1   8
ATOM      7  O   UNL     1      35.128 -24.275 -12.839  0.00  0.00    -0.267 OA
ATOM      8  N   UNL     1      35.404 -25.089 -14.993  0.00  0.00    -0.298 N 
ATOM      9  C   UNL     1      34.669 -24.567 -13.940  0.00  0.00    +0.282 C 
ATOM     10  H   UNL     1      34.943 -25.291 -15.839  0.00  0.00    +0.150 HD
BRANCH   9  14
ATOM     11  S   UNL     1      32.670 -23.207 -15.324  0.00  0.00    -0.074 S 
ATOM     12  N   UNL     1      28.647 -23.426 -14.817  0.00  0.00    +0.387 N 
ATOM     13  N   UNL     1      32.288 -25.093 -13.583  0.00  0.00    -0.399 NA
ATOM     14  C   UNL     1      33.217 -24.385 -14.192  0.00  0.00    +0.210 C 
ATOM     15  C   UNL     1      31.057 -24.679 -14.042  0.00  0.00    +0.093 C 
ATOM     16  C   UNL     1      31.073 -23.667 -14.977  0.00  0.00    +0.082 C 
ATOM     17  C   UNL     1      29.782 -25.260 -13.544  0.00  0.00    +0.032 C 
ATOM     18  C   UNL     1      29.852 -23.093 -15.615  0.00  0.00    -0.059 C 
ATOM     19  C   UNL     1      28.603 -24.863 -14.464  0.00  0.00    -0.070 C 
ATOM     20  C   UNL     1      27.437 -23.034 -15.538  0.00  0.00    -0.101 C 
ATOM     21  H   UNL     1      28.696 -22.901 -13.943  0.00  0.00    -0.080 HD
ENDBRANCH   9  14
ENDBRANCH   1   8
BRANCH   2  23
ATOM     22  O   UNL     1      35.736 -21.904 -15.241  0.00  0.00    -0.269 OA
ATOM     23  N   UNL     1      37.428 -23.262 -16.057  0.00  0.00    -0.300 N 
ATOM     24  C   UNL     1      36.487 -22.251 -16.149  0.00  0.00    +0.259 C 
ATOM     25  H   UNL     1      37.985 -23.465 -16.844  0.00  0.00    +0.150 HD
BRANCH  24  28
ATOM     26 CL   UNL     1      35.145 -19.390 -23.197  0.00  0.00    -0.082 Cl
ATOM     27  N   UNL     1      37.227 -20.565 -17.866  0.00  0.00    -0.309 N 
ATOM     28  C   UNL     1      36.391 -21.574 -17.468  0.00  0.00    +0.102 C 
ATOM     29  C   UNL     1      35.497 -21.810 -18.486  0.00  0.00    +0.020 C 
ATOM     30  C   UNL     1      36.890 -20.141 -19.132  0.00  0.00    +0.048 C 
ATOM     31  C   UNL     1      35.800 -20.911 -19.547  0.00  0.00    +0.016 C 
ATOM     32  C   UNL     1      37.459 -19.145 -19.933  0.00  0.00    +0.015 C 
ATOM     33  C   UNL     1      35.251 -20.677 -20.823  0.00  0.00    +0.013 C 
ATOM     34  C   UNL     1      35.810 -19.684 -21.636  0.00  0.00    +0.058 C 
ATOM     35  C   UNL     1      36.897 -18.931 -21.195  0.00  0.00    +0.013 C 
ATOM     36  H   UNL     1      37.963 -20.197 -17.327  0.00  0.00    +0.152 HD
ENDBRANCH  24  28
ENDBRANCH   2  23
TORSDOF 4
ENDMDL
