MODEL 1
REMARK VINA RESULT:     -11.6      0.000      0.000
REMARK  Name = 16720766
REMARK  7 active torsions:
REMARK  status: ('A' for Active; 'I' for Inactive)
REMARK    1  A    between atoms: N_1  and  C_10
REMARK    2  A    between atoms: C_11  and  C_17
REMARK    3  A    between atoms: C_13  and  O_15
REMARK    4  A    between atoms: C_17  and  O_18
REMARK    5  A    between atoms: O_18  and  S_19
REMARK    6  A    between atoms: S_19  and  N_22
REMARK    7  A    between atoms: N_25  and  C_27
REMARK                            x       y       z     vdW  Elec       q    Type
REMARK                         _______ _______ _______ _____ _____    ______ ____
ROOT
ATOM      1  N   UNL     1      34.284 -21.584 -19.114  0.00  0.00    -0.276 N 
ATOM      2  N   UNL     1      36.484 -20.710 -19.571  0.00  0.00    -0.233 NA
ATOM      3  N   UNL     1      36.472 -18.917 -21.217  0.00  0.00    -0.233 NA
ATOM      4  C   UNL     1      35.152 -20.739 -19.752  0.00  0.00    +0.120 C 
ATOM      5  C   UNL     1      33.005 -21.335 -19.544  0.00  0.00    +0.062 C 
ATOM      6  C   UNL     1      34.414 -19.932 -20.609  0.00  0.00    +0.131 C 
ATOM      7  C   UNL     1      33.056 -20.315 -20.470  0.00  0.00    +0.004 C 
ATOM      8  C   UNL     1      35.119 -18.983 -21.368  0.00  0.00    +0.113 C 
ATOM      9  C   UNL     1      37.059 -19.768 -20.345  0.00  0.00    +0.252 C 
ATOM     10  N   UNL     1      34.466 -18.133 -22.248  0.00  0.00    -0.319 N 
ATOM     11  H   UNL     1      33.488 -18.211 -22.329  0.00  0.00    +0.148 HD
ENDROOT
BRANCH  10  12
ATOM     12  C   UNL     1      35.138 -17.142 -23.052  0.00  0.00    +0.093 C 
ATOM     13  C   UNL     1      34.866 -17.371 -24.551  0.00  0.00    +0.029 C 
ATOM     14  C   UNL     1      34.525 -15.790 -22.848  0.00  0.00    -0.008 C 
ATOM     15  C   UNL     1      33.595 -16.578 -24.901  0.00  0.00    +0.028 C 
ATOM     16  C   UNL     1      33.657 -15.468 -23.900  0.00  0.00    -0.025 C 
ATOM     17  C   UNL     1      34.709 -14.921 -21.785  0.00  0.00    -0.003 C 
ATOM     18  C   UNL     1      32.952 -14.276 -23.905  0.00  0.00    -0.005 C 
ATOM     19  C   UNL     1      34.012 -13.711 -21.789  0.00  0.00    -0.000 C 
ATOM     20  C   UNL     1      33.138 -13.392 -22.841  0.00  0.00    -0.000 C 
ENDBRANCH  10  12
BRANCH   1  21
ATOM     21  C   UNL     1      34.649 -22.598 -18.129  0.00  0.00    +0.081 C 
ATOM     22  C   UNL     1      33.694 -22.862 -15.892  0.00  0.00    +0.061 C 
ATOM     23  C   UNL     1      33.454 -23.210 -17.367  0.00  0.00    +0.025 C 
ATOM     24  C   UNL     1      35.219 -22.813 -15.780  0.00  0.00    +0.115 C 
ATOM     25  C   UNL     1      35.629 -22.082 -17.055  0.00  0.00    +0.049 C 
BRANCH  24  26
ATOM     26  O   UNL     1      35.771 -24.124 -15.778  0.00  0.00    -0.384 OA
ATOM     27  H   UNL     1      36.617 -24.119 -16.252  0.00  0.00    +0.210 HD
ENDBRANCH  24  26
BRANCH  22  28
ATOM     28  C   UNL     1      33.020 -23.840 -14.942  0.00  0.00    +0.176 C 
BRANCH  28  29
ATOM     29  O   UNL     1      31.627 -23.842 -15.204  0.00  0.00    -0.230 OA
BRANCH  29  30
ATOM     30  S   UNL     1      30.564 -23.723 -13.965  0.00  0.00    +0.045 S 
ATOM     31  O   UNL     1      31.307 -23.474 -12.742  0.00  0.00    -0.056 OA
ATOM     32  O   UNL     1      29.518 -22.805 -14.378  0.00  0.00    -0.056 OA
BRANCH  30  33
ATOM     33  N   UNL     1      29.871 -25.287 -13.858  0.00  0.00    -0.204 NA
ATOM     34  H   UNL     1      30.496 -25.966 -14.293  0.00  0.00    +0.144 HD
ATOM     35  H   UNL     1      28.973 -25.295 -14.341  0.00  0.00    +0.144 HD
ENDBRANCH  30  33
ENDBRANCH  29  30
ENDBRANCH  28  29
ENDBRANCH  22  28
ENDBRANCH   1  21
TORSDOF 7
ENDMDL
MODEL 2
REMARK VINA RESULT:     -11.3      1.711      1.955
REMARK  Name = 16720766
REMARK  7 active torsions:
REMARK  status: ('A' for Active; 'I' for Inactive)
REMARK    1  A    between atoms: N_1  and  C_10
REMARK    2  A    between atoms: C_11  and  C_17
REMARK    3  A    between atoms: C_13  and  O_15
REMARK    4  A    between atoms: C_17  and  O_18
REMARK    5  A    between atoms: O_18  and  S_19
REMARK    6  A    between atoms: S_19  and  N_22
REMARK    7  A    between atoms: N_25  and  C_27
REMARK                            x       y       z     vdW  Elec       q    Type
REMARK                         _______ _______ _______ _____ _____    ______ ____
ROOT
ATOM      1  N   UNL     1      34.703 -21.287 -19.391  0.00  0.00    -0.276 N 
ATOM      2  N   UNL     1      36.810 -20.217 -19.868  0.00  0.00    -0.233 NA
ATOM      3  N   UNL     1      36.616 -18.425 -21.505  0.00  0.00    -0.233 NA
ATOM      4  C   UNL     1      35.484 -20.365 -20.034  0.00  0.00    +0.120 C 
ATOM      5  C   UNL     1      33.402 -21.153 -19.804  0.00  0.00    +0.062 C 
ATOM      6  C   UNL     1      34.666 -19.624 -20.879  0.00  0.00    +0.131 C 
ATOM      7  C   UNL     1      33.349 -20.129 -20.726  0.00  0.00    +0.004 C 
ATOM      8  C   UNL     1      35.273 -18.613 -21.641  0.00  0.00    +0.113 C 
ATOM      9  C   UNL     1      37.288 -19.223 -20.644  0.00  0.00    +0.252 C 
ATOM     10  N   UNL     1      34.536 -17.822 -22.509  0.00  0.00    -0.319 N 
ATOM     11  H   UNL     1      33.568 -17.987 -22.579  0.00  0.00    +0.148 HD
ENDROOT
BRANCH  10  12
ATOM     12  C   UNL     1      35.107 -16.770 -23.316  0.00  0.00    +0.093 C 
ATOM     13  C   UNL     1      34.719 -16.939 -24.796  0.00  0.00    +0.029 C 
ATOM     14  C   UNL     1      34.468 -15.452 -22.997  0.00  0.00    -0.008 C 
ATOM     15  C   UNL     1      33.398 -16.178 -25.003  0.00  0.00    +0.028 C 
ATOM     16  C   UNL     1      33.506 -15.114 -23.957  0.00  0.00    -0.025 C 
ATOM     17  C   UNL     1      34.712 -14.627 -21.910  0.00  0.00    -0.003 C 
ATOM     18  C   UNL     1      32.765 -13.950 -23.846  0.00  0.00    -0.005 C 
ATOM     19  C   UNL     1      33.977 -13.445 -21.798  0.00  0.00    -0.000 C 
ATOM     20  C   UNL     1      33.010 -13.109 -22.759  0.00  0.00    -0.000 C 
ENDBRANCH  10  12
BRANCH   1  21
ATOM     21  C   UNL     1      35.170 -22.268 -18.415  0.00  0.00    +0.081 C 
ATOM     22  C   UNL     1      34.205 -22.696 -16.208  0.00  0.00    +0.061 C 
ATOM     23  C   UNL     1      34.044 -23.040 -17.694  0.00  0.00    +0.025 C 
ATOM     24  C   UNL     1      35.709 -22.460 -16.057  0.00  0.00    +0.115 C 
ATOM     25  C   UNL     1      36.052 -21.656 -17.308  0.00  0.00    +0.049 C 
BRANCH  24  26
ATOM     26  O   UNL     1      36.420 -23.691 -16.064  0.00  0.00    -0.384 OA
ATOM     27  H   UNL     1      36.299 -24.129 -16.922  0.00  0.00    +0.210 HD
ENDBRANCH  24  26
BRANCH  22  28
ATOM     28  C   UNL     1      33.637 -23.770 -15.293  0.00  0.00    +0.176 C 
BRANCH  28  29
ATOM     29  O   UNL     1      33.851 -23.381 -13.947  0.00  0.00    -0.230 OA
BRANCH  29  30
ATOM     30  S   UNL     1      34.902 -24.220 -13.013  0.00  0.00    +0.045 S 
ATOM     31  O   UNL     1      36.127 -23.449 -12.892  0.00  0.00    -0.056 OA
ATOM     32  O   UNL     1      34.186 -24.637 -11.821  0.00  0.00    -0.056 OA
BRANCH  30  33
ATOM     33  N   UNL     1      35.246 -25.626 -13.932  0.00  0.00    -0.204 NA
ATOM     34  H   UNL     1      34.993 -26.454 -13.393  0.00  0.00    +0.144 HD
ATOM     35  H   UNL     1      36.241 -25.654 -14.150  0.00  0.00    +0.144 HD
ENDBRANCH  30  33
ENDBRANCH  29  30
ENDBRANCH  28  29
ENDBRANCH  22  28
ENDBRANCH   1  21
TORSDOF 7
ENDMDL
MODEL 3
REMARK VINA RESULT:     -10.5      2.586      3.471
REMARK  Name = 16720766
REMARK  7 active torsions:
REMARK  status: ('A' for Active; 'I' for Inactive)
REMARK    1  A    between atoms: N_1  and  C_10
REMARK    2  A    between atoms: C_11  and  C_17
REMARK    3  A    between atoms: C_13  and  O_15
REMARK    4  A    between atoms: C_17  and  O_18
REMARK    5  A    between atoms: O_18  and  S_19
REMARK    6  A    between atoms: S_19  and  N_22
REMARK    7  A    between atoms: N_25  and  C_27
REMARK                            x       y       z     vdW  Elec       q    Type
REMARK                         _______ _______ _______ _____ _____    ______ ____
ROOT
ATOM      1  N   UNL     1      33.608 -22.491 -17.399  0.00  0.00    -0.276 N 
ATOM      2  N   UNL     1      35.953 -22.115 -17.814  0.00  0.00    -0.233 NA
ATOM      3  N   UNL     1      36.363 -20.784 -19.811  0.00  0.00    -0.233 NA
ATOM      4  C   UNL     1      34.650 -21.972 -18.118  0.00  0.00    +0.120 C 
ATOM      5  C   UNL     1      32.423 -22.149 -18.000  0.00  0.00    +0.062 C 
ATOM      6  C   UNL     1      34.123 -21.283 -19.204  0.00  0.00    +0.131 C 
ATOM      7  C   UNL     1      32.712 -21.400 -19.121  0.00  0.00    +0.004 C 
ATOM      8  C   UNL     1      35.031 -20.666 -20.080  0.00  0.00    +0.113 C 
ATOM      9  C   UNL     1      36.733 -21.487 -18.717  0.00  0.00    +0.252 C 
ATOM     10  N   UNL     1      34.597 -19.956 -21.188  0.00  0.00    -0.319 N 
ATOM     11  H   UNL     1      33.627 -19.893 -21.348  0.00  0.00    +0.148 HD
ENDROOT
BRANCH  10  12
ATOM     12  C   UNL     1      35.484 -19.304 -22.120  0.00  0.00    +0.093 C 
ATOM     13  C   UNL     1      35.342 -19.907 -23.530  0.00  0.00    +0.029 C 
ATOM     14  C   UNL     1      35.050 -17.890 -22.364  0.00  0.00    -0.008 C 
ATOM     15  C   UNL     1      34.240 -19.110 -24.249  0.00  0.00    +0.028 C 
ATOM     16  C   UNL     1      34.353 -17.780 -23.574  0.00  0.00    -0.025 C 
ATOM     17  C   UNL     1      35.243 -16.786 -21.549  0.00  0.00    -0.003 C 
ATOM     18  C   UNL     1      33.828 -16.567 -23.988  0.00  0.00    -0.005 C 
ATOM     19  C   UNL     1      34.728 -15.557 -21.966  0.00  0.00    -0.000 C 
ATOM     20  C   UNL     1      34.024 -15.449 -23.176  0.00  0.00    -0.000 C 
ENDBRANCH  10  12
BRANCH   1  21
ATOM     21  C   UNL     1      33.724 -23.288 -16.181  0.00  0.00    +0.081 C 
ATOM     22  C   UNL     1      35.679 -23.430 -14.718  0.00  0.00    +0.061 C 
ATOM     23  C   UNL     1      34.441 -22.575 -15.015  0.00  0.00    +0.025 C 
ATOM     24  C   UNL     1      35.235 -24.845 -15.094  0.00  0.00    +0.115 C 
ATOM     25  C   UNL     1      34.466 -24.624 -16.393  0.00  0.00    +0.049 C 
BRANCH  24  26
ATOM     26  O   UNL     1      34.366 -25.384 -14.105  0.00  0.00    -0.384 OA
ATOM     27  H   UNL     1      33.445 -25.200 -14.349  0.00  0.00    +0.210 HD
ENDBRANCH  24  26
BRANCH  22  28
ATOM     28  C   UNL     1      36.166 -23.279 -13.285  0.00  0.00    +0.176 C 
BRANCH  28  29
ATOM     29  O   UNL     1      36.818 -24.476 -12.896  0.00  0.00    -0.230 OA
BRANCH  29  30
ATOM     30  S   UNL     1      36.576 -25.086 -11.397  0.00  0.00    +0.045 S 
ATOM     31  O   UNL     1      36.942 -26.491 -11.406  0.00  0.00    -0.056 OA
ATOM     32  O   UNL     1      37.202 -24.178 -10.453  0.00  0.00    -0.056 OA
BRANCH  30  33
ATOM     33  N   UNL     1      34.879 -24.980 -11.172  0.00  0.00    -0.204 NA
ATOM     34  H   UNL     1      34.540 -25.836 -10.735  0.00  0.00    +0.144 HD
ATOM     35  H   UNL     1      34.424 -24.857 -12.077  0.00  0.00    +0.144 HD
ENDBRANCH  30  33
ENDBRANCH  29  30
ENDBRANCH  28  29
ENDBRANCH  22  28
ENDBRANCH   1  21
TORSDOF 7
ENDMDL
MODEL 4
REMARK VINA RESULT:     -10.1      8.308     11.961
REMARK  Name = 16720766
REMARK  7 active torsions:
REMARK  status: ('A' for Active; 'I' for Inactive)
REMARK    1  A    between atoms: N_1  and  C_10
REMARK    2  A    between atoms: C_11  and  C_17
REMARK    3  A    between atoms: C_13  and  O_15
REMARK    4  A    between atoms: C_17  and  O_18
REMARK    5  A    between atoms: O_18  and  S_19
REMARK    6  A    between atoms: S_19  and  N_22
REMARK    7  A    between atoms: N_25  and  C_27
REMARK                            x       y       z     vdW  Elec       q    Type
REMARK                         _______ _______ _______ _____ _____    ______ ____
ROOT
ATOM      1  N   UNL     1      32.997 -12.716 -21.960  0.00  0.00    -0.276 N 
ATOM      2  N   UNL     1      33.070 -13.963 -24.022  0.00  0.00    -0.233 NA
ATOM      3  N   UNL     1      34.117 -16.146 -23.775  0.00  0.00    -0.233 NA
ATOM      4  C   UNL     1      33.316 -13.816 -22.708  0.00  0.00    +0.120 C 
ATOM      5  C   UNL     1      33.396 -12.913 -20.662  0.00  0.00    +0.062 C 
ATOM      6  C   UNL     1      33.934 -14.739 -21.872  0.00  0.00    +0.131 C 
ATOM      7  C   UNL     1      33.980 -14.159 -20.579  0.00  0.00    +0.004 C 
ATOM      8  C   UNL     1      34.347 -15.953 -22.445  0.00  0.00    +0.113 C 
ATOM      9  C   UNL     1      33.505 -15.158 -24.467  0.00  0.00    +0.252 C 
ATOM     10  N   UNL     1      34.970 -16.934 -21.689  0.00  0.00    -0.319 N 
ATOM     11  H   UNL     1      35.118 -16.757 -20.732  0.00  0.00    +0.148 HD
ENDROOT
BRANCH  10  12
ATOM     12  C   UNL     1      35.415 -18.197 -22.225  0.00  0.00    +0.093 C 
ATOM     13  C   UNL     1      36.952 -18.296 -22.201  0.00  0.00    +0.029 C 
ATOM     14  C   UNL     1      35.038 -19.323 -21.309  0.00  0.00    -0.008 C 
ATOM     15  C   UNL     1      37.341 -18.903 -20.842  0.00  0.00    +0.028 C 
ATOM     16  C   UNL     1      36.131 -19.727 -20.532  0.00  0.00    -0.025 C 
ATOM     17  C   UNL     1      33.798 -19.924 -21.163  0.00  0.00    -0.003 C 
ATOM     18  C   UNL     1      36.005 -20.733 -19.590  0.00  0.00    -0.005 C 
ATOM     19  C   UNL     1      33.665 -20.949 -20.224  0.00  0.00    -0.000 C 
ATOM     20  C   UNL     1      34.761 -21.350 -19.442  0.00  0.00    -0.000 C 
ENDBRANCH  10  12
BRANCH   1  21
ATOM     21  C   UNL     1      32.335 -11.511 -22.453  0.00  0.00    +0.081 C 
ATOM     22  C   UNL     1      33.142  -9.213 -22.230  0.00  0.00    +0.061 C 
ATOM     23  C   UNL     1      33.284 -10.474 -23.092  0.00  0.00    +0.025 C 
ATOM     24  C   UNL     1      31.701  -9.285 -21.725  0.00  0.00    +0.115 C 
ATOM     25  C   UNL     1      31.542 -10.759 -21.365  0.00  0.00    +0.049 C 
BRANCH  24  26
ATOM     26  O   UNL     1      30.783  -8.939 -22.755  0.00  0.00    -0.384 OA
ATOM     27  H   UNL     1      29.880  -9.145 -22.466  0.00  0.00    +0.210 HD
ENDBRANCH  24  26
BRANCH  22  28
ATOM     28  C   UNL     1      33.484  -7.942 -22.993  0.00  0.00    +0.176 C 
BRANCH  28  29
ATOM     29  O   UNL     1      32.995  -6.828 -22.265  0.00  0.00    -0.230 OA
BRANCH  29  30
ATOM     30  S   UNL     1      32.089  -5.694 -23.021  0.00  0.00    +0.045 S 
ATOM     31  O   UNL     1      32.864  -5.139 -24.116  0.00  0.00    -0.056 OA
ATOM     32  O   UNL     1      30.786  -6.280 -23.278  0.00  0.00    -0.056 OA
BRANCH  30  33
ATOM     33  N   UNL     1      31.884  -4.469 -21.839  0.00  0.00    -0.204 NA
ATOM     34  H   UNL     1      30.893  -4.240 -21.755  0.00  0.00    +0.144 HD
ATOM     35  H   UNL     1      32.402  -3.636 -22.120  0.00  0.00    +0.144 HD
ENDBRANCH  30  33
ENDBRANCH  29  30
ENDBRANCH  28  29
ENDBRANCH  22  28
ENDBRANCH   1  21
TORSDOF 7
ENDMDL
MODEL 5
REMARK VINA RESULT:      -9.8      5.439      9.902
REMARK  Name = 16720766
REMARK  7 active torsions:
REMARK  status: ('A' for Active; 'I' for Inactive)
REMARK    1  A    between atoms: N_1  and  C_10
REMARK    2  A    between atoms: C_11  and  C_17
REMARK    3  A    between atoms: C_13  and  O_15
REMARK    4  A    between atoms: C_17  and  O_18
REMARK    5  A    between atoms: O_18  and  S_19
REMARK    6  A    between atoms: S_19  and  N_22
REMARK    7  A    between atoms: N_25  and  C_27
REMARK                            x       y       z     vdW  Elec       q    Type
REMARK                         _______ _______ _______ _____ _____    ______ ____
ROOT
ATOM      1  N   UNL     1      34.174 -19.865 -20.725  0.00  0.00    -0.276 N 
ATOM      2  N   UNL     1      36.022 -20.781 -19.476  0.00  0.00    -0.233 NA
ATOM      3  N   UNL     1      35.332 -22.454 -17.849  0.00  0.00    -0.233 NA
ATOM      4  C   UNL     1      34.714 -20.693 -19.779  0.00  0.00    +0.120 C 
ATOM      5  C   UNL     1      32.814 -20.039 -20.762  0.00  0.00    +0.062 C 
ATOM      6  C   UNL     1      33.678 -21.413 -19.196  0.00  0.00    +0.131 C 
ATOM      7  C   UNL     1      32.479 -20.993 -19.825  0.00  0.00    +0.004 C 
ATOM      8  C   UNL     1      34.017 -22.331 -18.188  0.00  0.00    +0.113 C 
ATOM      9  C   UNL     1      36.234 -21.687 -18.501  0.00  0.00    +0.252 C 
ATOM     10  N   UNL     1      33.051 -23.095 -17.552  0.00  0.00    -0.319 N 
ATOM     11  H   UNL     1      32.113 -22.977 -17.825  0.00  0.00    +0.148 HD
ENDROOT
BRANCH  10  12
ATOM     12  C   UNL     1      33.342 -24.051 -16.512  0.00  0.00    +0.093 C 
ATOM     13  C   UNL     1      34.597 -23.639 -15.720  0.00  0.00    +0.029 C 
ATOM     14  C   UNL     1      32.294 -24.004 -15.441  0.00  0.00    -0.008 C 
ATOM     15  C   UNL     1      34.122 -22.746 -14.560  0.00  0.00    +0.028 C 
ATOM     16  C   UNL     1      32.740 -23.272 -14.333  0.00  0.00    -0.025 C 
ATOM     17  C   UNL     1      31.023 -24.555 -15.467  0.00  0.00    -0.003 C 
ATOM     18  C   UNL     1      31.922 -23.069 -13.235  0.00  0.00    -0.005 C 
ATOM     19  C   UNL     1      30.196 -24.367 -14.357  0.00  0.00    -0.000 C 
ATOM     20  C   UNL     1      30.642 -23.628 -13.249  0.00  0.00    -0.000 C 
ENDBRANCH  10  12
BRANCH   1  21
ATOM     21  C   UNL     1      34.918 -18.935 -21.570  0.00  0.00    +0.081 C 
ATOM     22  C   UNL     1      34.370 -16.586 -21.979  0.00  0.00    +0.061 C 
ATOM     23  C   UNL     1      35.071 -17.516 -20.981  0.00  0.00    +0.025 C 
ATOM     24  C   UNL     1      34.561 -17.294 -23.322  0.00  0.00    +0.115 C 
ATOM     25  C   UNL     1      34.302 -18.756 -22.973  0.00  0.00    +0.049 C 
BRANCH  24  26
ATOM     26  O   UNL     1      35.895 -17.140 -23.792  0.00  0.00    -0.384 OA
ATOM     27  H   UNL     1      36.284 -16.340 -23.405  0.00  0.00    +0.210 HD
ENDBRANCH  24  26
BRANCH  22  28
ATOM     28  C   UNL     1      34.908 -15.164 -21.931  0.00  0.00    +0.176 C 
BRANCH  28  29
ATOM     29  O   UNL     1      34.796 -14.591 -23.223  0.00  0.00    -0.230 OA
BRANCH  29  30
ATOM     30  S   UNL     1      33.551 -13.585 -23.564  0.00  0.00    +0.045 S 
ATOM     31  O   UNL     1      32.629 -13.595 -22.442  0.00  0.00    -0.056 OA
ATOM     32  O   UNL     1      34.119 -12.331 -24.024  0.00  0.00    -0.056 OA
BRANCH  30  33
ATOM     33  N   UNL     1      32.772 -14.324 -24.900  0.00  0.00    -0.204 NA
ATOM     34  H   UNL     1      32.367 -13.604 -25.498  0.00  0.00    +0.144 HD
ATOM     35  H   UNL     1      32.033 -14.941 -24.564  0.00  0.00    +0.144 HD
ENDBRANCH  30  33
ENDBRANCH  29  30
ENDBRANCH  28  29
ENDBRANCH  22  28
ENDBRANCH   1  21
TORSDOF 7
ENDMDL
MODEL 6
REMARK VINA RESULT:      -9.5      9.603     13.200
REMARK  Name = 16720766
REMARK  7 active torsions:
REMARK  status: ('A' for Active; 'I' for Inactive)
REMARK    1  A    between atoms: N_1  and  C_10
REMARK    2  A    between atoms: C_11  and  C_17
REMARK    3  A    between atoms: C_13  and  O_15
REMARK    4  A    between atoms: C_17  and  O_18
REMARK    5  A    between atoms: O_18  and  S_19
REMARK    6  A    between atoms: S_19  and  N_22
REMARK    7  A    between atoms: N_25  and  C_27
REMARK                            x       y       z     vdW  Elec       q    Type
REMARK                         _______ _______ _______ _____ _____    ______ ____
ROOT
ATOM      1  N   UNL     1      31.894 -10.508 -21.411  0.00  0.00    -0.276 N 
ATOM      2  N   UNL     1      33.216 -10.263 -23.413  0.00  0.00    -0.233 NA
ATOM      3  N   UNL     1      34.093 -12.379 -24.236  0.00  0.00    -0.233 NA
ATOM      4  C   UNL     1      32.661 -10.999 -22.433  0.00  0.00    +0.120 C 
ATOM      5  C   UNL     1      31.497 -11.540 -20.600  0.00  0.00    +0.062 C 
ATOM      6  C   UNL     1      32.759 -12.376 -22.273  0.00  0.00    +0.131 C 
ATOM      7  C   UNL     1      32.019 -12.710 -21.110  0.00  0.00    +0.004 C 
ATOM      8  C   UNL     1      33.511 -13.084 -23.225  0.00  0.00    +0.113 C 
ATOM      9  C   UNL     1      33.913 -11.039 -24.267  0.00  0.00    +0.252 C 
ATOM     10  N   UNL     1      33.663 -14.460 -23.147  0.00  0.00    -0.319 N 
ATOM     11  H   UNL     1      33.226 -14.933 -22.402  0.00  0.00    +0.148 HD
ENDROOT
BRANCH  10  12
ATOM     12  C   UNL     1      34.423 -15.237 -24.095  0.00  0.00    +0.093 C 
ATOM     13  C   UNL     1      35.552 -16.014 -23.391  0.00  0.00    +0.029 C 
ATOM     14  C   UNL     1      33.595 -16.360 -24.643  0.00  0.00    -0.008 C 
ATOM     15  C   UNL     1      34.965 -17.373 -22.971  0.00  0.00    +0.028 C 
ATOM     16  C   UNL     1      33.909 -17.571 -24.012  0.00  0.00    -0.025 C 
ATOM     17  C   UNL     1      32.614 -16.299 -25.620  0.00  0.00    -0.003 C 
ATOM     18  C   UNL     1      33.243 -18.740 -24.338  0.00  0.00    -0.005 C 
ATOM     19  C   UNL     1      31.946 -17.476 -25.963  0.00  0.00    -0.000 C 
ATOM     20  C   UNL     1      32.258 -18.688 -25.326  0.00  0.00    -0.000 C 
ENDBRANCH  10  12
BRANCH   1  21
ATOM     21  C   UNL     1      31.544  -9.104 -21.205  0.00  0.00    +0.081 C 
ATOM     22  C   UNL     1      32.052  -7.244 -22.709  0.00  0.00    +0.061 C 
ATOM     23  C   UNL     1      31.044  -8.376 -22.471  0.00  0.00    +0.025 C 
ATOM     24  C   UNL     1      32.533  -6.891 -21.301  0.00  0.00    +0.115 C 
ATOM     25  C   UNL     1      32.710  -8.260 -20.651  0.00  0.00    +0.049 C 
BRANCH  24  26
ATOM     26  O   UNL     1      31.546  -6.148 -20.597  0.00  0.00    -0.384 OA
ATOM     27  H   UNL     1      31.414  -6.536 -19.718  0.00  0.00    +0.210 HD
ENDBRANCH  24  26
BRANCH  22  28
ATOM     28  C   UNL     1      31.452  -6.080 -23.484  0.00  0.00    +0.176 C 
BRANCH  28  29
ATOM     29  O   UNL     1      31.949  -4.868 -22.943  0.00  0.00    -0.230 OA
BRANCH  29  30
ATOM     30  S   UNL     1      31.019  -3.521 -22.970  0.00  0.00    +0.045 S 
ATOM     31  O   UNL     1      31.882  -2.362 -22.826  0.00  0.00    -0.056 OA
ATOM     32  O   UNL     1      30.134  -3.629 -24.116  0.00  0.00    -0.056 OA
BRANCH  30  33
ATOM     33  N   UNL     1      30.058  -3.649 -21.557  0.00  0.00    -0.204 NA
ATOM     34  H   UNL     1      29.690  -2.729 -21.311  0.00  0.00    +0.144 HD
ATOM     35  H   UNL     1      30.628  -4.002 -20.789  0.00  0.00    +0.144 HD
ENDBRANCH  30  33
ENDBRANCH  29  30
ENDBRANCH  28  29
ENDBRANCH  22  28
ENDBRANCH   1  21
TORSDOF 7
ENDMDL
MODEL 7
REMARK VINA RESULT:      -9.5      5.958      9.535
REMARK  Name = 16720766
REMARK  7 active torsions:
REMARK  status: ('A' for Active; 'I' for Inactive)
REMARK    1  A    between atoms: N_1  and  C_10
REMARK    2  A    between atoms: C_11  and  C_17
REMARK    3  A    between atoms: C_13  and  O_15
REMARK    4  A    between atoms: C_17  and  O_18
REMARK    5  A    between atoms: O_18  and  S_19
REMARK    6  A    between atoms: S_19  and  N_22
REMARK    7  A    between atoms: N_25  and  C_27
REMARK                            x       y       z     vdW  Elec       q    Type
REMARK                         _______ _______ _______ _____ _____    ______ ____
ROOT
ATOM      1  N   UNL     1      33.322 -13.643 -23.332  0.00  0.00    -0.276 N 
ATOM      2  N   UNL     1      32.051 -13.504 -21.288  0.00  0.00    -0.233 NA
ATOM      3  N   UNL     1      31.533 -11.214 -20.646  0.00  0.00    -0.233 NA
ATOM      4  C   UNL     1      32.675 -12.952 -22.344  0.00  0.00    +0.120 C 
ATOM      5  C   UNL     1      33.841 -12.760 -24.244  0.00  0.00    +0.062 C 
ATOM      6  C   UNL     1      32.780 -11.596 -22.629  0.00  0.00    +0.131 C 
ATOM      7  C   UNL     1      33.520 -11.483 -23.834  0.00  0.00    +0.004 C 
ATOM      8  C   UNL     1      32.178 -10.699 -21.731  0.00  0.00    +0.113 C 
ATOM      9  C   UNL     1      31.511 -12.557 -20.495  0.00  0.00    +0.252 C 
ATOM     10  N   UNL     1      32.230  -9.329 -21.935  0.00  0.00    -0.319 N 
ATOM     11  H   UNL     1      32.704  -8.996 -22.731  0.00  0.00    +0.148 HD
ENDROOT
BRANCH  10  12
ATOM     12  C   UNL     1      31.630  -8.363 -21.047  0.00  0.00    +0.093 C 
ATOM     13  C   UNL     1      32.608  -7.962 -19.927  0.00  0.00    +0.029 C 
ATOM     14  C   UNL     1      31.435  -7.051 -21.745  0.00  0.00    -0.008 C 
ATOM     15  C   UNL     1      33.417  -6.761 -20.447  0.00  0.00    +0.028 C 
ATOM     16  C   UNL     1      32.442  -6.142 -21.399  0.00  0.00    -0.025 C 
ATOM     17  C   UNL     1      30.441  -6.704 -22.647  0.00  0.00    -0.003 C 
ATOM     18  C   UNL     1      32.481  -4.873 -21.952  0.00  0.00    -0.005 C 
ATOM     19  C   UNL     1      30.465  -5.422 -23.199  0.00  0.00    -0.000 C 
ATOM     20  C   UNL     1      31.479  -4.513 -22.855  0.00  0.00    -0.000 C 
ENDBRANCH  10  12
BRANCH   1  21
ATOM     21  C   UNL     1      33.451 -15.096 -23.413  0.00  0.00    +0.081 C 
ATOM     22  C   UNL     1      35.487 -16.399 -23.040  0.00  0.00    +0.061 C 
ATOM     23  C   UNL     1      34.321 -15.725 -22.304  0.00  0.00    +0.025 C 
ATOM     24  C   UNL     1      34.876 -16.803 -24.383  0.00  0.00    +0.115 C 
ATOM     25  C   UNL     1      34.038 -15.583 -24.754  0.00  0.00    +0.049 C 
BRANCH  24  26
ATOM     26  O   UNL     1      34.036 -17.940 -24.238  0.00  0.00    -0.384 OA
ATOM     27  H   UNL     1      34.024 -18.442 -25.068  0.00  0.00    +0.210 HD
ENDBRANCH  24  26
BRANCH  22  28
ATOM     28  C   UNL     1      36.092 -17.548 -22.248  0.00  0.00    +0.176 C 
BRANCH  28  29
ATOM     29  O   UNL     1      35.132 -18.014 -21.315  0.00  0.00    -0.230 OA
BRANCH  29  30
ATOM     30  S   UNL     1      34.816 -19.616 -21.204  0.00  0.00    +0.045 S 
ATOM     31  O   UNL     1      33.525 -19.788 -20.562  0.00  0.00    -0.056 OA
ATOM     32  O   UNL     1      35.060 -20.199 -22.511  0.00  0.00    -0.056 OA
BRANCH  30  33
ATOM     33  N   UNL     1      36.023 -20.207 -20.138  0.00  0.00    -0.204 NA
ATOM     34  H   UNL     1      35.751 -21.127 -19.793  0.00  0.00    +0.144 HD
ATOM     35  H   UNL     1      36.125 -19.566 -19.352  0.00  0.00    +0.144 HD
ENDBRANCH  30  33
ENDBRANCH  29  30
ENDBRANCH  28  29
ENDBRANCH  22  28
ENDBRANCH   1  21
TORSDOF 7
ENDMDL
MODEL 8
REMARK VINA RESULT:      -9.4      6.890     10.589
REMARK  Name = 16720766
REMARK  7 active torsions:
REMARK  status: ('A' for Active; 'I' for Inactive)
REMARK    1  A    between atoms: N_1  and  C_10
REMARK    2  A    between atoms: C_11  and  C_17
REMARK    3  A    between atoms: C_13  and  O_15
REMARK    4  A    between atoms: C_17  and  O_18
REMARK    5  A    between atoms: O_18  and  S_19
REMARK    6  A    between atoms: S_19  and  N_22
REMARK    7  A    between atoms: N_25  and  C_27
REMARK                            x       y       z     vdW  Elec       q    Type
REMARK                         _______ _______ _______ _____ _____    ______ ____
ROOT
ATOM      1  N   UNL     1      34.624 -15.673 -22.344  0.00  0.00    -0.276 N 
ATOM      2  N   UNL     1      34.908 -17.594 -23.773  0.00  0.00    -0.233 NA
ATOM      3  N   UNL     1      35.163 -19.672 -22.532  0.00  0.00    -0.233 NA
ATOM      4  C   UNL     1      34.807 -17.011 -22.565  0.00  0.00    +0.120 C 
ATOM      5  C   UNL     1      34.567 -15.436 -20.994  0.00  0.00    +0.062 C 
ATOM      6  C   UNL     1      34.870 -17.646 -21.331  0.00  0.00    +0.131 C 
ATOM      7  C   UNL     1      34.716 -16.642 -20.341  0.00  0.00    +0.004 C 
ATOM      8  C   UNL     1      35.056 -19.038 -21.330  0.00  0.00    +0.113 C 
ATOM      9  C   UNL     1      35.084 -18.925 -23.657  0.00  0.00    +0.252 C 
ATOM     10  N   UNL     1      35.129 -19.757 -20.146  0.00  0.00    -0.319 N 
ATOM     11  H   UNL     1      35.046 -19.263 -19.298  0.00  0.00    +0.148 HD
ENDROOT
BRANCH  10  12
ATOM     12  C   UNL     1      35.320 -21.185 -20.086  0.00  0.00    +0.093 C 
ATOM     13  C   UNL     1      36.761 -21.532 -19.668  0.00  0.00    +0.029 C 
ATOM     14  C   UNL     1      34.538 -21.777 -18.952  0.00  0.00    -0.008 C 
ATOM     15  C   UNL     1      36.774 -21.615 -18.132  0.00  0.00    +0.028 C 
ATOM     16  C   UNL     1      35.364 -22.027 -17.849  0.00  0.00    -0.025 C 
ATOM     17  C   UNL     1      33.180 -22.047 -18.902  0.00  0.00    -0.003 C 
ATOM     18  C   UNL     1      34.848 -22.544 -16.673  0.00  0.00    -0.005 C 
ATOM     19  C   UNL     1      32.654 -22.581 -17.724  0.00  0.00    -0.000 C 
ATOM     20  C   UNL     1      33.482 -22.827 -16.616  0.00  0.00    -0.000 C 
ENDBRANCH  10  12
BRANCH   1  21
ATOM     21  C   UNL     1      34.506 -14.645 -23.375  0.00  0.00    +0.081 C 
ATOM     22  C   UNL     1      33.221 -12.570 -23.220  0.00  0.00    +0.061 C 
ATOM     23  C   UNL     1      34.570 -13.196 -22.846  0.00  0.00    +0.025 C 
ATOM     24  C   UNL     1      32.831 -13.303 -24.505  0.00  0.00    +0.115 C 
ATOM     25  C   UNL     1      33.205 -14.750 -24.196  0.00  0.00    +0.049 C 
BRANCH  24  26
ATOM     26  O   UNL     1      33.593 -12.833 -25.610  0.00  0.00    -0.384 OA
ATOM     27  H   UNL     1      33.409 -13.384 -26.387  0.00  0.00    +0.210 HD
ENDBRANCH  24  26
BRANCH  22  28
ATOM     28  C   UNL     1      33.294 -11.057 -23.351  0.00  0.00    +0.176 C 
BRANCH  28  29
ATOM     29  O   UNL     1      32.390 -10.475 -22.427  0.00  0.00    -0.230 OA
BRANCH  29  30
ATOM     30  S   UNL     1      32.373  -8.852 -22.215  0.00  0.00    +0.045 S 
ATOM     31  O   UNL     1      33.641  -8.313 -22.674  0.00  0.00    -0.056 OA
ATOM     32  O   UNL     1      31.128  -8.356 -22.774  0.00  0.00    -0.056 OA
BRANCH  30  33
ATOM     33  N   UNL     1      32.294  -8.654 -20.514  0.00  0.00    -0.204 NA
ATOM     34  H   UNL     1      33.099  -8.114 -20.197  0.00  0.00    +0.144 HD
ATOM     35  H   UNL     1      32.301  -9.570 -20.065  0.00  0.00    +0.144 HD
ENDBRANCH  30  33
ENDBRANCH  29  30
ENDBRANCH  28  29
ENDBRANCH  22  28
ENDBRANCH   1  21
TORSDOF 7
ENDMDL
MODEL 9
REMARK VINA RESULT:      -9.2      3.958      6.799
REMARK  Name = 16720766
REMARK  7 active torsions:
REMARK  status: ('A' for Active; 'I' for Inactive)
REMARK    1  A    between atoms: N_1  and  C_10
REMARK    2  A    between atoms: C_11  and  C_17
REMARK    3  A    between atoms: C_13  and  O_15
REMARK    4  A    between atoms: C_17  and  O_18
REMARK    5  A    between atoms: O_18  and  S_19
REMARK    6  A    between atoms: S_19  and  N_22
REMARK    7  A    between atoms: N_25  and  C_27
REMARK                            x       y       z     vdW  Elec       q    Type
REMARK                         _______ _______ _______ _____ _____    ______ ____
ROOT
ATOM      1  N   UNL     1      34.612 -15.949 -21.746  0.00  0.00    -0.276 N 
ATOM      2  N   UNL     1      34.059 -15.206 -23.972  0.00  0.00    -0.233 NA
ATOM      3  N   UNL     1      33.085 -12.976 -24.014  0.00  0.00    -0.233 NA
ATOM      4  C   UNL     1      34.123 -15.035 -22.639  0.00  0.00    +0.120 C 
ATOM      5  C   UNL     1      34.522 -15.441 -20.475  0.00  0.00    +0.062 C 
ATOM      6  C   UNL     1      33.709 -13.917 -21.926  0.00  0.00    +0.131 C 
ATOM      7  C   UNL     1      33.966 -14.182 -20.557  0.00  0.00    +0.004 C 
ATOM      8  C   UNL     1      33.169 -12.847 -22.659  0.00  0.00    +0.113 C 
ATOM      9  C   UNL     1      33.526 -14.125 -24.575  0.00  0.00    +0.252 C 
ATOM     10  N   UNL     1      32.732 -11.690 -22.034  0.00  0.00    -0.319 N 
ATOM     11  H   UNL     1      32.810 -11.635 -21.053  0.00  0.00    +0.148 HD
ENDROOT
BRANCH  10  12
ATOM     12  C   UNL     1      32.169 -10.563 -22.736  0.00  0.00    +0.093 C 
ATOM     13  C   UNL     1      31.106  -9.853 -21.876  0.00  0.00    +0.029 C 
ATOM     14  C   UNL     1      33.188  -9.475 -22.895  0.00  0.00    -0.008 C 
ATOM     15  C   UNL     1      31.841  -8.782 -21.050  0.00  0.00    +0.028 C 
ATOM     16  C   UNL     1      32.997  -8.464 -21.945  0.00  0.00    -0.025 C 
ATOM     17  C   UNL     1      34.229  -9.408 -23.808  0.00  0.00    -0.003 C 
ATOM     18  C   UNL     1      33.845  -7.371 -21.884  0.00  0.00    -0.005 C 
ATOM     19  C   UNL     1      35.081  -8.303 -23.761  0.00  0.00    -0.000 C 
ATOM     20  C   UNL     1      34.891  -7.292 -22.805  0.00  0.00    -0.000 C 
ENDBRANCH  10  12
BRANCH   1  21
ATOM     21  C   UNL     1      35.149 -17.266 -22.080  0.00  0.00    +0.081 C 
ATOM     22  C   UNL     1      35.042 -19.275 -20.688  0.00  0.00    +0.061 C 
ATOM     23  C   UNL     1      34.233 -18.448 -21.695  0.00  0.00    +0.025 C 
ATOM     24  C   UNL     1      36.492 -19.044 -21.119  0.00  0.00    +0.115 C 
ATOM     25  C   UNL     1      36.518 -17.551 -21.429  0.00  0.00    +0.049 C 
BRANCH  24  26
ATOM     26  O   UNL     1      36.797 -19.786 -22.293  0.00  0.00    -0.384 OA
ATOM     27  H   UNL     1      36.643 -19.232 -23.075  0.00  0.00    +0.210 HD
ENDBRANCH  24  26
BRANCH  22  28
ATOM     28  C   UNL     1      34.616 -20.735 -20.653  0.00  0.00    +0.176 C 
BRANCH  28  29
ATOM     29  O   UNL     1      34.859 -21.249 -19.355  0.00  0.00    -0.230 OA
BRANCH  29  30
ATOM     30  S   UNL     1      33.893 -22.424 -18.750  0.00  0.00    +0.045 S 
ATOM     31  O   UNL     1      32.559 -21.879 -18.572  0.00  0.00    -0.056 OA
ATOM     32  O   UNL     1      34.090 -23.610 -19.564  0.00  0.00    -0.056 OA
BRANCH  30  33
ATOM     33  N   UNL     1      34.549 -22.745 -17.199  0.00  0.00    -0.204 NA
ATOM     34  H   UNL     1      35.424 -22.233 -17.087  0.00  0.00    +0.144 HD
ATOM     35  H   UNL     1      34.726 -23.745 -17.105  0.00  0.00    +0.144 HD
ENDBRANCH  30  33
ENDBRANCH  29  30
ENDBRANCH  28  29
ENDBRANCH  22  28
ENDBRANCH   1  21
TORSDOF 7
ENDMDL
