MODEL 1
REMARK VINA RESULT:     -12.0      0.000      0.000
REMARK  Name = 5326930
REMARK  4 active torsions:
REMARK  status: ('A' for Active; 'I' for Inactive)
REMARK    1  A    between atoms: C_7  and  C_21
REMARK    2  A    between atoms: C_21  and  C_22
REMARK    3  A    between atoms: C_22  and  C_23
REMARK    4  A    between atoms: C_28  and  O_29
REMARK                            x       y       z     vdW  Elec       q    Type
REMARK                         _______ _______ _______ _____ _____    ______ ____
ROOT
ATOM      1  O   UNL     1      34.114 -24.347 -12.078  0.00  0.00    -0.209 OA
ATOM      2  N   UNL     1      35.178 -23.960 -15.920  0.00  0.00    -0.275 N 
ATOM      3  N   UNL     1      29.850 -23.075 -14.873  0.00  0.00    -0.315 N 
ATOM      4  N   UNL     1      30.472 -22.866 -16.995  0.00  0.00    -0.316 N 
ATOM      5  N   UNL     1      35.766 -24.426 -13.662  0.00  0.00    -0.302 NA
ATOM      6  N   UNL     1      37.350 -24.468 -15.389  0.00  0.00    -0.320 N 
ATOM      7  C   UNL     1      32.901 -23.407 -16.595  0.00  0.00    +0.007 C 
ATOM      8  C   UNL     1      33.833 -23.745 -15.601  0.00  0.00    +0.060 C 
ATOM      9  C   UNL     1      31.560 -23.201 -16.223  0.00  0.00    +0.056 C 
ATOM     10  C   UNL     1      31.197 -23.338 -14.887  0.00  0.00    +0.060 C 
ATOM     11  C   UNL     1      33.428 -23.874 -14.264  0.00  0.00    +0.109 C 
ATOM     12  C   UNL     1      32.095 -23.672 -13.873  0.00  0.00    +0.029 C 
ATOM     13  C   UNL     1      34.460 -24.233 -13.250  0.00  0.00    +0.208 C 
ATOM     14  C   UNL     1      29.465 -22.800 -16.155  0.00  0.00    +0.182 C 
ATOM     15  C   UNL     1      36.070 -24.290 -14.926  0.00  0.00    +0.248 C 
ATOM     16  H   UNL     1      35.484 -23.875 -16.852  0.00  0.00    +0.156 HD
ATOM     17  H   UNL     1      29.266 -23.084 -14.080  0.00  0.00    +0.148 HD
ATOM     18  H   UNL     1      30.453 -22.711 -17.968  0.00  0.00    +0.148 HD
ATOM     19  H   UNL     1      37.547 -24.358 -16.347  0.00  0.00    +0.146 HD
ATOM     20  H   UNL     1      38.071 -24.707 -14.762  0.00  0.00    +0.146 HD
ENDROOT
BRANCH   7  21
ATOM     21  C   UNL     1      33.326 -23.269 -18.023  0.00  0.00    +0.034 C 
BRANCH  21  22
ATOM     22  C   UNL     1      34.433 -22.221 -18.245  0.00  0.00    +0.031 C 
BRANCH  22  23
ATOM     23  C   UNL     1      34.167 -21.315 -19.422  0.00  0.00    -0.022 C 
ATOM     24  C   UNL     1      32.861 -20.978 -19.739  0.00  0.00    -0.001 C 
ATOM     25  C   UNL     1      35.234 -20.837 -20.165  0.00  0.00    -0.001 C 
ATOM     26  C   UNL     1      32.615 -20.140 -20.826  0.00  0.00    +0.037 C 
ATOM     27  C   UNL     1      34.989 -19.999 -21.254  0.00  0.00    +0.037 C 
ATOM     28  C   UNL     1      33.679 -19.651 -21.584  0.00  0.00    +0.139 C 
BRANCH  28  29
ATOM     29  O   UNL     1      33.440 -18.834 -22.646  0.00  0.00    -0.471 OA
ATOM     30  C   UNL     1      34.401 -18.840 -23.700  0.00  0.00    +0.252 C 
ENDBRANCH  28  29
ENDBRANCH  22  23
ENDBRANCH  21  22
ENDBRANCH   7  21
TORSDOF 4
ENDMDL
MODEL 2
REMARK VINA RESULT:     -11.6      0.993      3.773
REMARK  Name = 5326930
REMARK  4 active torsions:
REMARK  status: ('A' for Active; 'I' for Inactive)
REMARK    1  A    between atoms: C_7  and  C_21
REMARK    2  A    between atoms: C_21  and  C_22
REMARK    3  A    between atoms: C_22  and  C_23
REMARK    4  A    between atoms: C_28  and  O_29
REMARK                            x       y       z     vdW  Elec       q    Type
REMARK                         _______ _______ _______ _____ _____    ______ ____
ROOT
ATOM      1  O   UNL     1      30.583 -23.870 -12.760  0.00  0.00    -0.209 OA
ATOM      2  N   UNL     1      31.050 -23.139 -16.670  0.00  0.00    -0.275 N 
ATOM      3  N   UNL     1      35.708 -24.095 -13.902  0.00  0.00    -0.315 N 
ATOM      4  N   UNL     1      35.933 -23.687 -16.074  0.00  0.00    -0.316 N 
ATOM      5  N   UNL     1      29.624 -23.387 -14.782  0.00  0.00    -0.302 NA
ATOM      6  N   UNL     1      28.784 -22.893 -16.913  0.00  0.00    -0.320 N 
ATOM      7  C   UNL     1      33.472 -23.381 -16.524  0.00  0.00    +0.007 C 
ATOM      8  C   UNL     1      32.205 -23.388 -15.921  0.00  0.00    +0.060 C 
ATOM      9  C   UNL     1      34.603 -23.638 -15.728  0.00  0.00    +0.056 C 
ATOM     10  C   UNL     1      34.434 -23.890 -14.370  0.00  0.00    +0.060 C 
ATOM     11  C   UNL     1      32.076 -23.647 -14.548  0.00  0.00    +0.109 C 
ATOM     12  C   UNL     1      33.191 -23.906 -13.737  0.00  0.00    +0.029 C 
ATOM     13  C   UNL     1      30.705 -23.644 -13.960  0.00  0.00    +0.208 C 
ATOM     14  C   UNL     1      36.567 -23.963 -14.957  0.00  0.00    +0.182 C 
ATOM     15  C   UNL     1      29.821 -23.153 -16.052  0.00  0.00    +0.248 C 
ATOM     16  H   UNL     1      31.118 -22.954 -17.635  0.00  0.00    +0.156 HD
ATOM     17  H   UNL     1      35.957 -24.300 -12.972  0.00  0.00    +0.148 HD
ATOM     18  H   UNL     1      36.325 -23.546 -16.967  0.00  0.00    +0.148 HD
ATOM     19  H   UNL     1      28.965 -22.721 -17.865  0.00  0.00    +0.146 HD
ATOM     20  H   UNL     1      27.858 -22.878 -16.577  0.00  0.00    +0.146 HD
ENDROOT
BRANCH   7  21
ATOM     21  C   UNL     1      33.617 -23.105 -17.988  0.00  0.00    +0.034 C 
BRANCH  21  22
ATOM     22  C   UNL     1      34.726 -22.091 -18.325  0.00  0.00    +0.031 C 
BRANCH  22  23
ATOM     23  C   UNL     1      34.388 -21.206 -19.499  0.00  0.00    -0.022 C 
ATOM     24  C   UNL     1      33.059 -20.970 -19.812  0.00  0.00    -0.001 C 
ATOM     25  C   UNL     1      35.412 -20.646 -20.245  0.00  0.00    -0.001 C 
ATOM     26  C   UNL     1      32.745 -20.152 -20.897  0.00  0.00    +0.037 C 
ATOM     27  C   UNL     1      35.099 -19.828 -21.331  0.00  0.00    +0.037 C 
ATOM     28  C   UNL     1      33.766 -19.581 -21.657  0.00  0.00    +0.139 C 
BRANCH  28  29
ATOM     29  O   UNL     1      33.461 -18.784 -22.716  0.00  0.00    -0.471 OA
ATOM     30  C   UNL     1      34.482 -17.904 -23.184  0.00  0.00    +0.252 C 
ENDBRANCH  28  29
ENDBRANCH  22  23
ENDBRANCH  21  22
ENDBRANCH   7  21
TORSDOF 4
ENDMDL
MODEL 3
REMARK VINA RESULT:     -11.5      3.349      6.292
REMARK  Name = 5326930
REMARK  4 active torsions:
REMARK  status: ('A' for Active; 'I' for Inactive)
REMARK    1  A    between atoms: C_7  and  C_21
REMARK    2  A    between atoms: C_21  and  C_22
REMARK    3  A    between atoms: C_22  and  C_23
REMARK    4  A    between atoms: C_28  and  O_29
REMARK                            x       y       z     vdW  Elec       q    Type
REMARK                         _______ _______ _______ _____ _____    ______ ____
ROOT
ATOM      1  O   UNL     1      37.027 -21.731 -17.232  0.00  0.00    -0.209 OA
ATOM      2  N   UNL     1      33.442 -23.427 -16.673  0.00  0.00    -0.275 N 
ATOM      3  N   UNL     1      36.911 -23.849 -12.424  0.00  0.00    -0.315 N 
ATOM      4  N   UNL     1      34.913 -24.779 -12.145  0.00  0.00    -0.316 N 
ATOM      5  N   UNL     1      34.949 -22.217 -18.061  0.00  0.00    -0.302 NA
ATOM      6  N   UNL     1      32.791 -22.785 -18.776  0.00  0.00    -0.320 N 
ATOM      7  C   UNL     1      34.031 -24.158 -14.422  0.00  0.00    +0.007 C 
ATOM      8  C   UNL     1      34.361 -23.507 -15.622  0.00  0.00    +0.060 C 
ATOM      9  C   UNL     1      34.990 -24.210 -13.395  0.00  0.00    +0.056 C 
ATOM     10  C   UNL     1      36.234 -23.620 -13.596  0.00  0.00    +0.060 C 
ATOM     11  C   UNL     1      35.626 -22.924 -15.786  0.00  0.00    +0.109 C 
ATOM     12  C   UNL     1      36.597 -22.966 -14.773  0.00  0.00    +0.029 C 
ATOM     13  C   UNL     1      35.923 -22.245 -17.080  0.00  0.00    +0.208 C 
ATOM     14  C   UNL     1      36.081 -24.545 -11.591  0.00  0.00    +0.182 C 
ATOM     15  C   UNL     1      33.792 -22.783 -17.838  0.00  0.00    +0.248 C 
ATOM     16  H   UNL     1      32.548 -23.830 -16.580  0.00  0.00    +0.156 HD
ATOM     17  H   UNL     1      37.831 -23.564 -12.222  0.00  0.00    +0.148 HD
ATOM     18  H   UNL     1      34.148 -25.258 -11.751  0.00  0.00    +0.148 HD
ATOM     19  H   UNL     1      31.930 -23.220 -18.576  0.00  0.00    +0.146 HD
ATOM     20  H   UNL     1      32.933 -22.351 -19.648  0.00  0.00    +0.146 HD
ENDROOT
BRANCH   7  21
ATOM     21  C   UNL     1      32.683 -24.782 -14.241  0.00  0.00    +0.034 C 
BRANCH  21  22
ATOM     22  C   UNL     1      31.587 -23.788 -13.816  0.00  0.00    +0.031 C 
BRANCH  22  23
ATOM     23  C   UNL     1      30.405 -23.768 -14.754  0.00  0.00    -0.022 C 
ATOM     24  C   UNL     1      29.442 -24.759 -14.654  0.00  0.00    -0.001 C 
ATOM     25  C   UNL     1      30.305 -22.760 -15.699  0.00  0.00    -0.001 C 
ATOM     26  C   UNL     1      28.349 -24.742 -15.519  0.00  0.00    +0.037 C 
ATOM     27  C   UNL     1      29.211 -22.742 -16.566  0.00  0.00    +0.037 C 
ATOM     28  C   UNL     1      28.234 -23.733 -16.476  0.00  0.00    +0.139 C 
BRANCH  28  29
ATOM     29  O   UNL     1      27.168 -23.716 -17.322  0.00  0.00    -0.471 OA
ATOM     30  C   UNL     1      26.664 -22.438 -17.708  0.00  0.00    +0.252 C 
ENDBRANCH  28  29
ENDBRANCH  22  23
ENDBRANCH  21  22
ENDBRANCH   7  21
TORSDOF 4
ENDMDL
MODEL 4
REMARK VINA RESULT:     -11.5      1.547      2.099
REMARK  Name = 5326930
REMARK  4 active torsions:
REMARK  status: ('A' for Active; 'I' for Inactive)
REMARK    1  A    between atoms: C_7  and  C_21
REMARK    2  A    between atoms: C_21  and  C_22
REMARK    3  A    between atoms: C_22  and  C_23
REMARK    4  A    between atoms: C_28  and  O_29
REMARK                            x       y       z     vdW  Elec       q    Type
REMARK                         _______ _______ _______ _____ _____    ______ ____
ROOT
ATOM      1  O   UNL     1      36.543 -26.049 -11.761  0.00  0.00    -0.209 OA
ATOM      2  N   UNL     1      37.169 -24.276 -15.298  0.00  0.00    -0.275 N 
ATOM      3  N   UNL     1      32.099 -23.672 -13.247  0.00  0.00    -0.315 N 
ATOM      4  N   UNL     1      32.478 -22.698 -15.208  0.00  0.00    -0.316 N 
ATOM      5  N   UNL     1      37.981 -25.580 -13.481  0.00  0.00    -0.302 NA
ATOM      6  N   UNL     1      39.337 -25.020 -15.308  0.00  0.00    -0.320 N 
ATOM      7  C   UNL     1      34.882 -23.432 -15.387  0.00  0.00    +0.007 C 
ATOM      8  C   UNL     1      35.895 -24.152 -14.734  0.00  0.00    +0.060 C 
ATOM      9  C   UNL     1      33.618 -23.336 -14.778  0.00  0.00    +0.056 C 
ATOM     10  C   UNL     1      33.407 -23.956 -13.550  0.00  0.00    +0.060 C 
ATOM     11  C   UNL     1      35.643 -24.762 -13.495  0.00  0.00    +0.109 C 
ATOM     12  C   UNL     1      34.389 -24.678 -12.871  0.00  0.00    +0.029 C 
ATOM     13  C   UNL     1      36.755 -25.513 -12.845  0.00  0.00    +0.208 C 
ATOM     14  C   UNL     1      31.588 -22.920 -14.267  0.00  0.00    +0.182 C 
ATOM     15  C   UNL     1      38.142 -24.987 -14.634  0.00  0.00    +0.248 C 
ATOM     16  H   UNL     1      37.367 -23.856 -16.166  0.00  0.00    +0.156 HD
ATOM     17  H   UNL     1      31.616 -23.960 -12.440  0.00  0.00    +0.148 HD
ATOM     18  H   UNL     1      32.356 -22.186 -16.040  0.00  0.00    +0.148 HD
ATOM     19  H   UNL     1      39.426 -24.563 -16.175  0.00  0.00    +0.146 HD
ATOM     20  H   UNL     1      40.105 -25.503 -14.924  0.00  0.00    +0.146 HD
ENDROOT
BRANCH   7  21
ATOM     21  C   UNL     1      35.144 -22.779 -16.708  0.00  0.00    +0.034 C 
BRANCH  21  22
ATOM     22  C   UNL     1      34.065 -23.063 -17.769  0.00  0.00    +0.031 C 
BRANCH  22  23
ATOM     23  C   UNL     1      34.004 -22.015 -18.852  0.00  0.00    -0.022 C 
ATOM     24  C   UNL     1      32.773 -21.520 -19.251  0.00  0.00    -0.001 C 
ATOM     25  C   UNL     1      35.181 -21.567 -19.431  0.00  0.00    -0.001 C 
ATOM     26  C   UNL     1      32.715 -20.551 -20.253  0.00  0.00    +0.037 C 
ATOM     27  C   UNL     1      35.124 -20.597 -20.433  0.00  0.00    +0.037 C 
ATOM     28  C   UNL     1      33.892 -20.090 -20.844  0.00  0.00    +0.139 C 
BRANCH  28  29
ATOM     29  O   UNL     1      33.837 -19.145 -21.822  0.00  0.00    -0.471 OA
ATOM     30  C   UNL     1      34.963 -19.044 -22.692  0.00  0.00    +0.252 C 
ENDBRANCH  28  29
ENDBRANCH  22  23
ENDBRANCH  21  22
ENDBRANCH   7  21
TORSDOF 4
ENDMDL
MODEL 5
REMARK VINA RESULT:     -11.0      9.116     12.792
REMARK  Name = 5326930
REMARK  4 active torsions:
REMARK  status: ('A' for Active; 'I' for Inactive)
REMARK    1  A    between atoms: C_7  and  C_21
REMARK    2  A    between atoms: C_21  and  C_22
REMARK    3  A    between atoms: C_22  and  C_23
REMARK    4  A    between atoms: C_28  and  O_29
REMARK                            x       y       z     vdW  Elec       q    Type
REMARK                         _______ _______ _______ _____ _____    ______ ____
ROOT
ATOM      1  O   UNL     1      33.933 -17.278 -26.611  0.00  0.00    -0.209 OA
ATOM      2  N   UNL     1      32.588 -13.601 -25.764  0.00  0.00    -0.275 N 
ATOM      3  N   UNL     1      34.862 -16.287 -21.534  0.00  0.00    -0.315 N 
ATOM      4  N   UNL     1      34.106 -14.244 -21.097  0.00  0.00    -0.316 N 
ATOM      5  N   UNL     1      32.920 -15.357 -27.336  0.00  0.00    -0.302 NA
ATOM      6  N   UNL     1      31.898 -13.335 -27.934  0.00  0.00    -0.320 N 
ATOM      7  C   UNL     1      33.284 -13.779 -23.434  0.00  0.00    +0.007 C 
ATOM      8  C   UNL     1      33.175 -14.327 -24.722  0.00  0.00    +0.060 C 
ATOM      9  C   UNL     1      33.883 -14.549 -22.420  0.00  0.00    +0.056 C 
ATOM     10  C   UNL     1      34.348 -15.826 -22.720  0.00  0.00    +0.060 C 
ATOM     11  C   UNL     1      33.656 -15.618 -24.985  0.00  0.00    +0.109 C 
ATOM     12  C   UNL     1      34.256 -16.401 -23.988  0.00  0.00    +0.029 C 
ATOM     13  C   UNL     1      33.515 -16.149 -26.372  0.00  0.00    +0.208 C 
ATOM     14  C   UNL     1      34.693 -15.308 -20.597  0.00  0.00    +0.182 C 
ATOM     15  C   UNL     1      32.495 -14.163 -27.017  0.00  0.00    +0.248 C 
ATOM     16  H   UNL     1      32.244 -12.694 -25.601  0.00  0.00    +0.156 HD
ATOM     17  H   UNL     1      35.276 -17.168 -21.387  0.00  0.00    +0.148 HD
ATOM     18  H   UNL     1      33.876 -13.410 -20.627  0.00  0.00    +0.148 HD
ATOM     19  H   UNL     1      31.588 -12.441 -27.662  0.00  0.00    +0.146 HD
ATOM     20  H   UNL     1      31.779 -13.636 -28.864  0.00  0.00    +0.146 HD
ENDROOT
BRANCH   7  21
ATOM     21  C   UNL     1      32.773 -12.403 -23.146  0.00  0.00    +0.034 C 
BRANCH  21  22
ATOM     22  C   UNL     1      31.624 -12.366 -22.122  0.00  0.00    +0.031 C 
BRANCH  22  23
ATOM     23  C   UNL     1      31.588 -11.093 -21.312  0.00  0.00    -0.022 C 
ATOM     24  C   UNL     1      31.514 -11.168 -19.931  0.00  0.00    -0.001 C 
ATOM     25  C   UNL     1      31.626  -9.872 -21.966  0.00  0.00    -0.001 C 
ATOM     26  C   UNL     1      31.480  -9.992 -19.182  0.00  0.00    +0.037 C 
ATOM     27  C   UNL     1      31.592  -8.694 -21.217  0.00  0.00    +0.037 C 
ATOM     28  C   UNL     1      31.520  -8.755 -19.826  0.00  0.00    +0.139 C 
BRANCH  28  29
ATOM     29  O   UNL     1      31.485  -7.606 -19.096  0.00  0.00    -0.471 OA
ATOM     30  C   UNL     1      31.866  -6.402 -19.760  0.00  0.00    +0.252 C 
ENDBRANCH  28  29
ENDBRANCH  22  23
ENDBRANCH  21  22
ENDBRANCH   7  21
TORSDOF 4
ENDMDL
MODEL 6
REMARK VINA RESULT:     -10.6      6.880     11.942
REMARK  Name = 5326930
REMARK  4 active torsions:
REMARK  status: ('A' for Active; 'I' for Inactive)
REMARK    1  A    between atoms: C_7  and  C_21
REMARK    2  A    between atoms: C_21  and  C_22
REMARK    3  A    between atoms: C_22  and  C_23
REMARK    4  A    between atoms: C_28  and  O_29
REMARK                            x       y       z     vdW  Elec       q    Type
REMARK                         _______ _______ _______ _____ _____    ______ ____
ROOT
ATOM      1  O   UNL     1      32.307 -12.318 -28.099  0.00  0.00    -0.209 OA
ATOM      2  N   UNL     1      33.888 -13.376 -24.574  0.00  0.00    -0.275 N 
ATOM      3  N   UNL     1      31.631 -17.489 -27.448  0.00  0.00    -0.315 N 
ATOM      4  N   UNL     1      32.518 -18.043 -25.488  0.00  0.00    -0.316 N 
ATOM      5  N   UNL     1      33.399 -11.694 -26.186  0.00  0.00    -0.302 NA
ATOM      6  N   UNL     1      34.510 -11.204 -24.182  0.00  0.00    -0.320 N 
ATOM      7  C   UNL     1      33.272 -15.714 -24.891  0.00  0.00    +0.007 C 
ATOM      8  C   UNL     1      33.301 -14.386 -25.344  0.00  0.00    +0.060 C 
ATOM      9  C   UNL     1      32.671 -16.693 -25.702  0.00  0.00    +0.056 C 
ATOM     10  C   UNL     1      32.123 -16.319 -26.925  0.00  0.00    +0.060 C 
ATOM     11  C   UNL     1      32.737 -14.048 -26.584  0.00  0.00    +0.109 C 
ATOM     12  C   UNL     1      32.133 -15.010 -27.407  0.00  0.00    +0.029 C 
ATOM     13  C   UNL     1      32.797 -12.622 -27.016  0.00  0.00    +0.208 C 
ATOM     14  C   UNL     1      31.890 -18.488 -26.553  0.00  0.00    +0.182 C 
ATOM     15  C   UNL     1      33.902 -12.082 -25.043  0.00  0.00    +0.248 C 
ATOM     16  H   UNL     1      34.288 -13.590 -23.701  0.00  0.00    +0.156 HD
ATOM     17  H   UNL     1      31.172 -17.588 -28.313  0.00  0.00    +0.148 HD
ATOM     18  H   UNL     1      32.814 -18.563 -24.706  0.00  0.00    +0.148 HD
ATOM     19  H   UNL     1      34.880 -11.528 -23.329  0.00  0.00    +0.146 HD
ATOM     20  H   UNL     1      34.577 -10.250 -24.417  0.00  0.00    +0.146 HD
ENDROOT
BRANCH   7  21
ATOM     21  C   UNL     1      33.871 -16.081 -23.570  0.00  0.00    +0.034 C 
BRANCH  21  22
ATOM     22  C   UNL     1      35.039 -17.079 -23.669  0.00  0.00    +0.031 C 
BRANCH  22  23
ATOM     23  C   UNL     1      35.018 -18.132 -22.589  0.00  0.00    -0.022 C 
ATOM     24  C   UNL     1      33.833 -18.792 -22.307  0.00  0.00    -0.001 C 
ATOM     25  C   UNL     1      36.183 -18.418 -21.897  0.00  0.00    -0.001 C 
ATOM     26  C   UNL     1      33.812 -19.765 -21.308  0.00  0.00    +0.037 C 
ATOM     27  C   UNL     1      36.163 -19.392 -20.897  0.00  0.00    +0.037 C 
ATOM     28  C   UNL     1      34.978 -20.065 -20.603  0.00  0.00    +0.139 C 
BRANCH  28  29
ATOM     29  O   UNL     1      34.958 -21.014 -19.628  0.00  0.00    -0.471 OA
ATOM     30  C   UNL     1      33.721 -21.686 -19.399  0.00  0.00    +0.252 C 
ENDBRANCH  28  29
ENDBRANCH  22  23
ENDBRANCH  21  22
ENDBRANCH   7  21
TORSDOF 4
ENDMDL
MODEL 7
REMARK VINA RESULT:     -10.4      8.332     11.880
REMARK  Name = 5326930
REMARK  4 active torsions:
REMARK  status: ('A' for Active; 'I' for Inactive)
REMARK    1  A    between atoms: C_7  and  C_21
REMARK    2  A    between atoms: C_21  and  C_22
REMARK    3  A    between atoms: C_22  and  C_23
REMARK    4  A    between atoms: C_28  and  O_29
REMARK                            x       y       z     vdW  Elec       q    Type
REMARK                         _______ _______ _______ _____ _____    ______ ____
ROOT
ATOM      1  O   UNL     1      31.564 -18.095 -27.741  0.00  0.00    -0.209 OA
ATOM      2  N   UNL     1      32.806 -14.757 -25.907  0.00  0.00    -0.275 N 
ATOM      3  N   UNL     1      34.457 -19.457 -23.570  0.00  0.00    -0.315 N 
ATOM      4  N   UNL     1      35.130 -17.587 -22.577  0.00  0.00    -0.316 N 
ATOM      5  N   UNL     1      31.597 -15.807 -27.668  0.00  0.00    -0.302 NA
ATOM      6  N   UNL     1      31.719 -13.476 -27.467  0.00  0.00    -0.320 N 
ATOM      7  C   UNL     1      33.997 -16.025 -24.198  0.00  0.00    +0.007 C 
ATOM      8  C   UNL     1      33.199 -15.980 -25.351  0.00  0.00    +0.060 C 
ATOM      9  C   UNL     1      34.366 -17.279 -23.678  0.00  0.00    +0.056 C 
ATOM     10  C   UNL     1      33.930 -18.435 -24.319  0.00  0.00    +0.060 C 
ATOM     11  C   UNL     1      32.780 -17.168 -25.969  0.00  0.00    +0.109 C 
ATOM     12  C   UNL     1      33.137 -18.428 -25.467  0.00  0.00    +0.029 C 
ATOM     13  C   UNL     1      31.934 -17.061 -27.193  0.00  0.00    +0.208 C 
ATOM     14  C   UNL     1      35.164 -18.900 -22.542  0.00  0.00    +0.182 C 
ATOM     15  C   UNL     1      32.023 -14.743 -27.039  0.00  0.00    +0.248 C 
ATOM     16  H   UNL     1      33.088 -13.912 -25.489  0.00  0.00    +0.156 HD
ATOM     17  H   UNL     1      34.344 -20.419 -23.743  0.00  0.00    +0.148 HD
ATOM     18  H   UNL     1      35.559 -16.959 -21.951  0.00  0.00    +0.148 HD
ATOM     19  H   UNL     1      32.056 -12.695 -26.971  0.00  0.00    +0.146 HD
ATOM     20  H   UNL     1      31.164 -13.347 -28.270  0.00  0.00    +0.146 HD
ENDROOT
BRANCH   7  21
ATOM     21  C   UNL     1      34.447 -14.762 -23.533  0.00  0.00    +0.034 C 
BRANCH  21  22
ATOM     22  C   UNL     1      33.866 -14.558 -22.122  0.00  0.00    +0.031 C 
BRANCH  22  23
ATOM     23  C   UNL     1      32.998 -13.330 -22.006  0.00  0.00    -0.022 C 
ATOM     24  C   UNL     1      32.999 -12.398 -23.031  0.00  0.00    -0.001 C 
ATOM     25  C   UNL     1      32.216 -13.154 -20.875  0.00  0.00    -0.001 C 
ATOM     26  C   UNL     1      32.197 -11.262 -22.925  0.00  0.00    +0.037 C 
ATOM     27  C   UNL     1      31.414 -12.018 -20.768  0.00  0.00    +0.037 C 
ATOM     28  C   UNL     1      31.404 -11.072 -21.793  0.00  0.00    +0.139 C 
BRANCH  28  29
ATOM     29  O   UNL     1      30.622  -9.963 -21.688  0.00  0.00    -0.471 OA
ATOM     30  C   UNL     1      30.839  -8.922 -22.639  0.00  0.00    +0.252 C 
ENDBRANCH  28  29
ENDBRANCH  22  23
ENDBRANCH  21  22
ENDBRANCH   7  21
TORSDOF 4
ENDMDL
MODEL 8
REMARK VINA RESULT:     -10.3      9.190     12.763
REMARK  Name = 5326930
REMARK  4 active torsions:
REMARK  status: ('A' for Active; 'I' for Inactive)
REMARK    1  A    between atoms: C_7  and  C_21
REMARK    2  A    between atoms: C_21  and  C_22
REMARK    3  A    between atoms: C_22  and  C_23
REMARK    4  A    between atoms: C_28  and  O_29
REMARK                            x       y       z     vdW  Elec       q    Type
REMARK                         _______ _______ _______ _____ _____    ______ ____
ROOT
ATOM      1  O   UNL     1      34.119 -17.903 -26.487  0.00  0.00    -0.209 OA
ATOM      2  N   UNL     1      34.145 -15.516 -23.270  0.00  0.00    -0.275 N 
ATOM      3  N   UNL     1      32.311 -13.175 -27.899  0.00  0.00    -0.315 N 
ATOM      4  N   UNL     1      32.337 -11.877 -26.096  0.00  0.00    -0.316 N 
ATOM      5  N   UNL     1      34.569 -17.639 -24.257  0.00  0.00    -0.302 NA
ATOM      6  N   UNL     1      34.981 -17.223 -21.988  0.00  0.00    -0.320 N 
ATOM      7  C   UNL     1      33.256 -13.634 -24.541  0.00  0.00    +0.007 C 
ATOM      8  C   UNL     1      33.687 -14.968 -24.473  0.00  0.00    +0.060 C 
ATOM      9  C   UNL     1      32.805 -13.130 -25.774  0.00  0.00    +0.056 C 
ATOM     10  C   UNL     1      32.799 -13.964 -26.888  0.00  0.00    +0.060 C 
ATOM     11  C   UNL     1      33.666 -15.777 -25.619  0.00  0.00    +0.109 C 
ATOM     12  C   UNL     1      33.220 -15.294 -26.858  0.00  0.00    +0.029 C 
ATOM     13  C   UNL     1      34.135 -17.187 -25.489  0.00  0.00    +0.208 C 
ATOM     14  C   UNL     1      32.051 -11.939 -27.377  0.00  0.00    +0.182 C 
ATOM     15  C   UNL     1      34.561 -16.827 -23.233  0.00  0.00    +0.248 C 
ATOM     16  H   UNL     1      34.169 -14.966 -22.454  0.00  0.00    +0.156 HD
ATOM     17  H   UNL     1      32.175 -13.451 -28.834  0.00  0.00    +0.148 HD
ATOM     18  H   UNL     1      32.238 -11.102 -25.497  0.00  0.00    +0.148 HD
ATOM     19  H   UNL     1      34.962 -16.587 -21.237  0.00  0.00    +0.146 HD
ATOM     20  H   UNL     1      35.301 -18.144 -21.847  0.00  0.00    +0.146 HD
ENDROOT
BRANCH   7  21
ATOM     21  C   UNL     1      33.276 -12.765 -23.323  0.00  0.00    +0.034 C 
BRANCH  21  22
ATOM     22  C   UNL     1      31.951 -12.759 -22.538  0.00  0.00    +0.031 C 
BRANCH  22  23
ATOM     23  C   UNL     1      31.796 -11.557 -21.640  0.00  0.00    -0.022 C 
ATOM     24  C   UNL     1      31.587 -11.745 -20.283  0.00  0.00    -0.001 C 
ATOM     25  C   UNL     1      31.863 -10.286 -22.188  0.00  0.00    -0.001 C 
ATOM     26  C   UNL     1      31.443 -10.635 -19.452  0.00  0.00    +0.037 C 
ATOM     27  C   UNL     1      31.719  -9.174 -21.356  0.00  0.00    +0.037 C 
ATOM     28  C   UNL     1      31.509  -9.349 -19.989  0.00  0.00    +0.139 C 
BRANCH  28  29
ATOM     29  O   UNL     1      31.368  -8.265 -19.178  0.00  0.00    -0.471 OA
ATOM     30  C   UNL     1      31.521  -6.980 -19.779  0.00  0.00    +0.252 C 
ENDBRANCH  28  29
ENDBRANCH  22  23
ENDBRANCH  21  22
ENDBRANCH   7  21
TORSDOF 4
ENDMDL
MODEL 9
REMARK VINA RESULT:     -10.0      8.014     11.745
REMARK  Name = 5326930
REMARK  4 active torsions:
REMARK  status: ('A' for Active; 'I' for Inactive)
REMARK    1  A    between atoms: C_7  and  C_21
REMARK    2  A    between atoms: C_21  and  C_22
REMARK    3  A    between atoms: C_22  and  C_23
REMARK    4  A    between atoms: C_28  and  O_29
REMARK                            x       y       z     vdW  Elec       q    Type
REMARK                         _______ _______ _______ _____ _____    ______ ____
ROOT
ATOM      1  O   UNL     1      34.208 -19.472 -24.936  0.00  0.00    -0.209 OA
ATOM      2  N   UNL     1      34.559 -16.340 -22.464  0.00  0.00    -0.275 N 
ATOM      3  N   UNL     1      32.739 -15.134 -27.514  0.00  0.00    -0.315 N 
ATOM      4  N   UNL     1      32.944 -13.418 -26.118  0.00  0.00    -0.316 N 
ATOM      5  N   UNL     1      34.767 -18.676 -22.863  0.00  0.00    -0.302 NA
ATOM      6  N   UNL     1      35.303 -17.721 -20.792  0.00  0.00    -0.320 N 
ATOM      7  C   UNL     1      33.778 -14.783 -24.170  0.00  0.00    +0.007 C 
ATOM      8  C   UNL     1      34.100 -16.086 -23.761  0.00  0.00    +0.060 C 
ATOM      9  C   UNL     1      33.320 -14.580 -25.485  0.00  0.00    +0.056 C 
ATOM     10  C   UNL     1      33.201 -15.672 -26.339  0.00  0.00    +0.060 C 
ATOM     11  C   UNL     1      33.966 -17.162 -24.652  0.00  0.00    +0.109 C 
ATOM     12  C   UNL     1      33.512 -16.980 -25.967  0.00  0.00    +0.029 C 
ATOM     13  C   UNL     1      34.322 -18.525 -24.163  0.00  0.00    +0.208 C 
ATOM     14  C   UNL     1      32.603 -13.786 -27.332  0.00  0.00    +0.182 C 
ATOM     15  C   UNL     1      34.868 -17.628 -22.090  0.00  0.00    +0.248 C 
ATOM     16  H   UNL     1      34.661 -15.600 -21.822  0.00  0.00    +0.156 HD
ATOM     17  H   UNL     1      32.543 -15.631 -28.340  0.00  0.00    +0.148 HD
ATOM     18  H   UNL     1      32.933 -12.507 -25.743  0.00  0.00    +0.148 HD
ATOM     19  H   UNL     1      35.367 -16.912 -20.235  0.00  0.00    +0.146 HD
ATOM     20  H   UNL     1      35.551 -18.598 -20.418  0.00  0.00    +0.146 HD
ENDROOT
BRANCH   7  21
ATOM     21  C   UNL     1      33.918 -13.631 -23.225  0.00  0.00    +0.034 C 
BRANCH  21  22
ATOM     22  C   UNL     1      32.673 -13.383 -22.354  0.00  0.00    +0.031 C 
BRANCH  22  23
ATOM     23  C   UNL     1      32.175 -11.960 -22.418  0.00  0.00    -0.022 C 
ATOM     24  C   UNL     1      31.222 -11.532 -21.508  0.00  0.00    -0.001 C 
ATOM     25  C   UNL     1      32.678 -11.107 -23.387  0.00  0.00    -0.001 C 
ATOM     26  C   UNL     1      30.761 -10.217 -21.566  0.00  0.00    +0.037 C 
ATOM     27  C   UNL     1      32.217  -9.791 -23.446  0.00  0.00    +0.037 C 
ATOM     28  C   UNL     1      31.259  -9.347 -22.536  0.00  0.00    +0.139 C 
BRANCH  28  29
ATOM     29  O   UNL     1      30.809  -8.064 -22.594  0.00  0.00    -0.471 OA
ATOM     30  C   UNL     1      31.430  -7.200 -23.544  0.00  0.00    +0.252 C 
ENDBRANCH  28  29
ENDBRANCH  22  23
ENDBRANCH  21  22
ENDBRANCH   7  21
TORSDOF 4
ENDMDL
