MODEL 1
REMARK VINA RESULT:     -11.5      0.000      0.000
REMARK  Name = 446129
REMARK  7 active torsions:
REMARK  status: ('A' for Active; 'I' for Inactive)
REMARK    1  A    between atoms: C_1  and  O_2
REMARK    2  A    between atoms: C_1  and  C_4
REMARK    3  A    between atoms: C_1  and  C_18
REMARK    4  A    between atoms: C_4  and  N_5
REMARK    5  A    between atoms: C_18  and  O_19
REMARK    6  A    between atoms: O_19  and  C_23
REMARK    7  A    between atoms: C_20  and  C_26
REMARK                            x       y       z     vdW  Elec       q    Type
REMARK                         _______ _______ _______ _____ _____    ______ ____
ROOT
ATOM      1  C   UNL     1      35.187 -18.012 -22.960  0.00  0.00    +0.133 C 
ENDROOT
BRANCH   1   2
ATOM      2  O   UNL     1      36.586 -18.299 -22.887  0.00  0.00    -0.383 OA
ATOM      3  H   UNL     1      36.780 -18.755 -22.053  0.00  0.00    +0.210 HD
ENDBRANCH   1   2
BRANCH   1   4
ATOM      4  C   UNL     1      34.947 -17.114 -24.176  0.00  0.00    -0.043 C 
BRANCH   4   5
ATOM      5  N   UNL     1      34.647 -15.735 -23.791  0.00  0.00    +0.391 N 
ATOM      6  N   UNL     1      33.083 -13.618 -22.682  0.00  0.00    -0.298 N 
ATOM      7  C   UNL     1      34.457 -15.634 -22.340  0.00  0.00    -0.055 C 
ATOM      8  C   UNL     1      33.446 -15.256 -24.487  0.00  0.00    -0.055 C 
ATOM      9  C   UNL     1      34.198 -14.186 -21.918  0.00  0.00    +0.069 C 
ATOM     10  C   UNL     1      33.154 -13.795 -24.137  0.00  0.00    +0.069 C 
ATOM     11  H   UNL     1      35.439 -15.151 -24.062  0.00  0.00    -0.079 HD
ATOM     12  N   UNL     1      32.360 -11.345 -22.919  0.00  0.00    -0.229 NA
ATOM     13  C   UNL     1      32.400 -12.501 -22.188  0.00  0.00    +0.132 C 
ATOM     14  C   UNL     1      31.769 -12.601 -20.940  0.00  0.00    +0.034 C 
ATOM     15  C   UNL     1      31.087 -11.499 -20.436  0.00  0.00    +0.004 C 
ATOM     16  C   UNL     1      31.688 -10.294 -22.397  0.00  0.00    +0.100 C 
ATOM     17  C   UNL     1      31.041 -10.321 -21.172  0.00  0.00    +0.021 C 
ENDBRANCH   4   5
ENDBRANCH   1   4
BRANCH   1  18
ATOM     18  C   UNL     1      34.419 -19.331 -23.022  0.00  0.00    +0.232 C 
BRANCH  18  19
ATOM     19  O   UNL     1      33.488 -19.373 -21.946  0.00  0.00    -0.473 OA
BRANCH  19  23
ATOM     20  C   UNL     1      34.417 -21.883 -18.774  0.00  0.00    -0.022 C 
ATOM     21  C   UNL     1      33.084 -21.625 -19.091  0.00  0.00    -0.001 C 
ATOM     22  C   UNL     1      35.438 -21.297 -19.522  0.00  0.00    -0.001 C 
ATOM     23  C   UNL     1      33.794 -20.201 -20.899  0.00  0.00    +0.139 C 
ATOM     24  C   UNL     1      32.771 -20.782 -20.157  0.00  0.00    +0.037 C 
ATOM     25  C   UNL     1      35.125 -20.453 -20.587  0.00  0.00    +0.037 C 
BRANCH  20  26
ATOM     26  C   UNL     1      34.757 -22.800 -17.613  0.00  0.00    +0.022 C 
ATOM     27  C   UNL     1      35.913 -22.246 -16.763  0.00  0.00    +0.004 C 
ATOM     28  C   UNL     1      33.526 -23.098 -16.740  0.00  0.00    +0.004 C 
ATOM     29  C   UNL     1      36.253 -23.181 -15.603  0.00  0.00    +0.000 C 
ATOM     30  C   UNL     1      33.875 -24.030 -15.580  0.00  0.00    +0.000 C 
ATOM     31  C   UNL     1      35.027 -23.481 -14.745  0.00  0.00    +0.000 C 
ENDBRANCH  20  26
ENDBRANCH  19  23
ENDBRANCH  18  19
ENDBRANCH   1  18
TORSDOF 7
ENDMDL
MODEL 2
REMARK VINA RESULT:     -11.5      2.267      3.091
REMARK  Name = 446129
REMARK  7 active torsions:
REMARK  status: ('A' for Active; 'I' for Inactive)
REMARK    1  A    between atoms: C_1  and  O_2
REMARK    2  A    between atoms: C_1  and  C_4
REMARK    3  A    between atoms: C_1  and  C_18
REMARK    4  A    between atoms: C_4  and  N_5
REMARK    5  A    between atoms: C_18  and  O_19
REMARK    6  A    between atoms: O_19  and  C_23
REMARK    7  A    between atoms: C_20  and  C_26
REMARK                            x       y       z     vdW  Elec       q    Type
REMARK                         _______ _______ _______ _____ _____    ______ ____
ROOT
ATOM      1  C   UNL     1      34.101 -17.027 -25.047  0.00  0.00    +0.133 C 
ENDROOT
BRANCH   1   2
ATOM      2  O   UNL     1      34.723 -17.385 -26.284  0.00  0.00    -0.383 OA
ATOM      3  H   UNL     1      34.335 -18.211 -26.614  0.00  0.00    +0.210 HD
ENDBRANCH   1   2
BRANCH   1   4
ATOM      4  C   UNL     1      32.723 -16.438 -25.358  0.00  0.00    -0.043 C 
BRANCH   4   5
ATOM      5  N   UNL     1      32.683 -14.991 -25.147  0.00  0.00    +0.391 N 
ATOM      6  N   UNL     1      33.748 -12.344 -25.015  0.00  0.00    -0.298 N 
ATOM      7  C   UNL     1      33.060 -14.280 -26.374  0.00  0.00    -0.055 C 
ATOM      8  C   UNL     1      33.580 -14.606 -24.051  0.00  0.00    -0.055 C 
ATOM      9  C   UNL     1      32.967 -12.764 -26.183  0.00  0.00    +0.069 C 
ATOM     10  C   UNL     1      33.504 -13.101 -23.781  0.00  0.00    +0.069 C 
ATOM     11  H   UNL     1      31.728 -14.733 -24.896  0.00  0.00    -0.079 HD
ATOM     12  N   UNL     1      33.763 -10.264 -23.823  0.00  0.00    -0.229 NA
ATOM     13  C   UNL     1      34.161 -11.012 -24.898  0.00  0.00    +0.132 C 
ATOM     14  C   UNL     1      34.980 -10.476 -25.901  0.00  0.00    +0.034 C 
ATOM     15  C   UNL     1      35.398  -9.153 -25.799  0.00  0.00    +0.004 C 
ATOM     16  C   UNL     1      34.189  -8.982 -23.758  0.00  0.00    +0.100 C 
ATOM     17  C   UNL     1      34.999  -8.386 -24.711  0.00  0.00    +0.021 C 
ENDBRANCH   4   5
ENDBRANCH   1   4
BRANCH   1  18
ATOM     18  C   UNL     1      34.040 -18.266 -24.154  0.00  0.00    +0.232 C 
BRANCH  18  19
ATOM     19  O   UNL     1      34.494 -17.915 -22.850  0.00  0.00    -0.473 OA
BRANCH  19  23
ATOM     20  C   UNL     1      34.504 -20.937 -20.005  0.00  0.00    -0.022 C 
ATOM     21  C   UNL     1      33.298 -20.496 -20.549  0.00  0.00    -0.001 C 
ATOM     22  C   UNL     1      35.706 -20.363 -20.417  0.00  0.00    -0.001 C 
ATOM     23  C   UNL     1      34.497 -18.911 -21.911  0.00  0.00    +0.139 C 
ATOM     24  C   UNL     1      33.294 -19.481 -21.505  0.00  0.00    +0.037 C 
ATOM     25  C   UNL     1      35.703 -19.346 -21.372  0.00  0.00    +0.037 C 
BRANCH  20  26
ATOM     26  C   UNL     1      34.507 -22.041 -18.964  0.00  0.00    +0.022 C 
ATOM     27  C   UNL     1      35.491 -21.747 -17.818  0.00  0.00    +0.004 C 
ATOM     28  C   UNL     1      33.096 -22.319 -18.420  0.00  0.00    +0.004 C 
ATOM     29  C   UNL     1      35.493 -22.868 -16.781  0.00  0.00    +0.000 C 
ATOM     30  C   UNL     1      33.107 -23.439 -17.380  0.00  0.00    +0.000 C 
ATOM     31  C   UNL     1      34.089 -23.147 -16.250  0.00  0.00    +0.000 C 
ENDBRANCH  20  26
ENDBRANCH  19  23
ENDBRANCH  18  19
ENDBRANCH   1  18
TORSDOF 7
ENDMDL
MODEL 3
REMARK VINA RESULT:     -11.3      2.741      4.867
REMARK  Name = 446129
REMARK  7 active torsions:
REMARK  status: ('A' for Active; 'I' for Inactive)
REMARK    1  A    between atoms: C_1  and  O_2
REMARK    2  A    between atoms: C_1  and  C_4
REMARK    3  A    between atoms: C_1  and  C_18
REMARK    4  A    between atoms: C_4  and  N_5
REMARK    5  A    between atoms: C_18  and  O_19
REMARK    6  A    between atoms: O_19  and  C_23
REMARK    7  A    between atoms: C_20  and  C_26
REMARK                            x       y       z     vdW  Elec       q    Type
REMARK                         _______ _______ _______ _____ _____    ______ ____
ROOT
ATOM      1  C   UNL     1      32.640 -15.010 -27.515  0.00  0.00    +0.133 C 
ENDROOT
BRANCH   1   2
ATOM      2  O   UNL     1      31.321 -14.475 -27.377  0.00  0.00    -0.383 OA
ATOM      3  H   UNL     1      31.350 -13.683 -26.819  0.00  0.00    +0.210 HD
ENDBRANCH   1   2
BRANCH   1   4
ATOM      4  C   UNL     1      33.636 -13.955 -27.027  0.00  0.00    -0.043 C 
BRANCH   4   5
ATOM      5  N   UNL     1      33.006 -12.964 -26.155  0.00  0.00    +0.391 N 
ATOM      6  N   UNL     1      32.932 -10.859 -24.227  0.00  0.00    -0.298 N 
ATOM      7  C   UNL     1      33.438 -11.609 -26.518  0.00  0.00    -0.055 C 
ATOM      8  C   UNL     1      33.333 -13.234 -24.750  0.00  0.00    -0.055 C 
ATOM      9  C   UNL     1      32.741 -10.559 -25.649  0.00  0.00    +0.069 C 
ATOM     10  C   UNL     1      32.633 -12.238 -23.822  0.00  0.00    +0.069 C 
ATOM     11  H   UNL     1      31.995 -13.032 -26.277  0.00  0.00    -0.079 HD
ATOM     12  N   UNL     1      31.829  -9.973 -22.292  0.00  0.00    -0.229 NA
ATOM     13  C   UNL     1      32.771  -9.845 -23.275  0.00  0.00    +0.132 C 
ATOM     14  C   UNL     1      33.592  -8.711 -23.362  0.00  0.00    +0.034 C 
ATOM     15  C   UNL     1      33.443  -7.695 -22.424  0.00  0.00    +0.004 C 
ATOM     16  C   UNL     1      31.714  -8.965 -21.398  0.00  0.00    +0.100 C 
ATOM     17  C   UNL     1      32.489  -7.817 -21.421  0.00  0.00    +0.021 C 
ENDBRANCH   4   5
ENDBRANCH   1   4
BRANCH   1  18
ATOM     18  C   UNL     1      32.720 -16.322 -26.734  0.00  0.00    +0.232 C 
BRANCH  18  19
ATOM     19  O   UNL     1      33.993 -16.404 -26.102  0.00  0.00    -0.473 OA
BRANCH  19  23
ATOM     20  C   UNL     1      34.167 -18.514 -22.532  0.00  0.00    -0.022 C 
ATOM     21  C   UNL     1      34.640 -17.203 -22.591  0.00  0.00    -0.001 C 
ATOM     22  C   UNL     1      33.636 -19.115 -23.672  0.00  0.00    -0.001 C 
ATOM     23  C   UNL     1      34.051 -17.100 -24.924  0.00  0.00    +0.139 C 
ATOM     24  C   UNL     1      34.582 -16.494 -23.790  0.00  0.00    +0.037 C 
ATOM     25  C   UNL     1      33.578 -18.407 -24.872  0.00  0.00    +0.037 C 
BRANCH  20  26
ATOM     26  C   UNL     1      34.231 -19.285 -21.227  0.00  0.00    +0.022 C 
ATOM     27  C   UNL     1      32.964 -20.127 -20.993  0.00  0.00    +0.004 C 
ATOM     28  C   UNL     1      35.495 -20.157 -21.139  0.00  0.00    +0.004 C 
ATOM     29  C   UNL     1      33.036 -20.891 -19.673  0.00  0.00    +0.000 C 
ATOM     30  C   UNL     1      35.557 -20.922 -19.818  0.00  0.00    +0.000 C 
ATOM     31  C   UNL     1      34.296 -21.749 -19.587  0.00  0.00    +0.000 C 
ENDBRANCH  20  26
ENDBRANCH  19  23
ENDBRANCH  18  19
ENDBRANCH   1  18
TORSDOF 7
ENDMDL
MODEL 4
REMARK VINA RESULT:     -11.3      1.614      2.500
REMARK  Name = 446129
REMARK  7 active torsions:
REMARK  status: ('A' for Active; 'I' for Inactive)
REMARK    1  A    between atoms: C_1  and  O_2
REMARK    2  A    between atoms: C_1  and  C_4
REMARK    3  A    between atoms: C_1  and  C_18
REMARK    4  A    between atoms: C_4  and  N_5
REMARK    5  A    between atoms: C_18  and  O_19
REMARK    6  A    between atoms: O_19  and  C_23
REMARK    7  A    between atoms: C_20  and  C_26
REMARK                            x       y       z     vdW  Elec       q    Type
REMARK                         _______ _______ _______ _____ _____    ______ ____
ROOT
ATOM      1  C   UNL     1      35.057 -17.958 -22.680  0.00  0.00    +0.133 C 
ENDROOT
BRANCH   1   2
ATOM      2  O   UNL     1      36.440 -18.290 -22.817  0.00  0.00    -0.383 OA
ATOM      3  H   UNL     1      36.561 -19.242 -22.673  0.00  0.00    +0.210 HD
ENDBRANCH   1   2
BRANCH   1   4
ATOM      4  C   UNL     1      34.521 -17.564 -24.058  0.00  0.00    -0.043 C 
BRANCH   4   5
ATOM      5  N   UNL     1      33.855 -16.262 -24.038  0.00  0.00    +0.391 N 
ATOM      6  N   UNL     1      33.627 -13.443 -24.439  0.00  0.00    -0.298 N 
ATOM      7  C   UNL     1      33.761 -15.710 -25.395  0.00  0.00    -0.055 C 
ATOM      8  C   UNL     1      34.579 -15.327 -23.167  0.00  0.00    -0.055 C 
ATOM      9  C   UNL     1      33.016 -14.373 -25.394  0.00  0.00    +0.069 C 
ATOM     10  C   UNL     1      33.861 -13.977 -23.092  0.00  0.00    +0.069 C 
ATOM     11  H   UNL     1      32.913 -16.392 -23.669  0.00  0.00    -0.079 HD
ATOM     12  N   UNL     1      32.815 -11.368 -23.555  0.00  0.00    -0.229 NA
ATOM     13  C   UNL     1      33.407 -12.067 -24.572  0.00  0.00    +0.132 C 
ATOM     14  C   UNL     1      33.805 -11.438 -25.760  0.00  0.00    +0.034 C 
ATOM     15  C   UNL     1      33.593 -10.071 -25.906  0.00  0.00    +0.004 C 
ATOM     16  C   UNL     1      32.625 -10.041 -23.734  0.00  0.00    +0.100 C 
ATOM     17  C   UNL     1      32.992  -9.353 -24.879  0.00  0.00    +0.021 C 
ENDBRANCH   4   5
ENDBRANCH   1   4
BRANCH   1  18
ATOM     18  C   UNL     1      34.325 -19.152 -22.067  0.00  0.00    +0.232 C 
BRANCH  18  19
ATOM     19  O   UNL     1      35.248 -19.906 -21.287  0.00  0.00    -0.473 OA
BRANCH  19  23
ATOM     20  C   UNL     1      33.645 -22.323 -18.318  0.00  0.00    -0.022 C 
ATOM     21  C   UNL     1      32.801 -21.652 -19.202  0.00  0.00    -0.001 C 
ATOM     22  C   UNL     1      35.028 -22.181 -18.431  0.00  0.00    -0.001 C 
ATOM     23  C   UNL     1      34.719 -20.703 -20.307  0.00  0.00    +0.139 C 
ATOM     24  C   UNL     1      33.339 -20.840 -20.200  0.00  0.00    +0.037 C 
ATOM     25  C   UNL     1      35.566 -21.368 -19.428  0.00  0.00    +0.037 C 
BRANCH  20  26
ATOM     26  C   UNL     1      33.059 -23.206 -17.232  0.00  0.00    +0.022 C 
ATOM     27  C   UNL     1      33.935 -23.220 -15.968  0.00  0.00    +0.004 C 
ATOM     28  C   UNL     1      31.611 -22.811 -16.893  0.00  0.00    +0.004 C 
ATOM     29  C   UNL     1      33.341 -24.118 -14.885  0.00  0.00    +0.000 C 
ATOM     30  C   UNL     1      31.025 -23.711 -15.806  0.00  0.00    +0.000 C 
ATOM     31  C   UNL     1      31.902 -23.729 -14.558  0.00  0.00    +0.000 C 
ENDBRANCH  20  26
ENDBRANCH  19  23
ENDBRANCH  18  19
ENDBRANCH   1  18
TORSDOF 7
ENDMDL
MODEL 5
REMARK VINA RESULT:     -11.2      1.200      1.678
REMARK  Name = 446129
REMARK  7 active torsions:
REMARK  status: ('A' for Active; 'I' for Inactive)
REMARK    1  A    between atoms: C_1  and  O_2
REMARK    2  A    between atoms: C_1  and  C_4
REMARK    3  A    between atoms: C_1  and  C_18
REMARK    4  A    between atoms: C_4  and  N_5
REMARK    5  A    between atoms: C_18  and  O_19
REMARK    6  A    between atoms: O_19  and  C_23
REMARK    7  A    between atoms: C_20  and  C_26
REMARK                            x       y       z     vdW  Elec       q    Type
REMARK                         _______ _______ _______ _____ _____    ______ ____
ROOT
ATOM      1  C   UNL     1      35.165 -18.020 -22.598  0.00  0.00    +0.133 C 
ENDROOT
BRANCH   1   2
ATOM      2  O   UNL     1      36.514 -18.409 -22.870  0.00  0.00    -0.383 OA
ATOM      3  H   UNL     1      36.833 -17.940 -23.657  0.00  0.00    +0.210 HD
ENDBRANCH   1   2
BRANCH   1   4
ATOM      4  C   UNL     1      34.551 -17.488 -23.895  0.00  0.00    -0.043 C 
BRANCH   4   5
ATOM      5  N   UNL     1      34.494 -16.027 -23.918  0.00  0.00    +0.391 N 
ATOM      6  N   UNL     1      33.310 -13.457 -23.527  0.00  0.00    -0.298 N 
ATOM      7  C   UNL     1      34.299 -15.497 -22.563  0.00  0.00    -0.055 C 
ATOM      8  C   UNL     1      33.409 -15.568 -24.795  0.00  0.00    -0.055 C 
ATOM      9  C   UNL     1      34.294 -13.967 -22.566  0.00  0.00    +0.069 C 
ATOM     10  C   UNL     1      33.375 -14.040 -24.873  0.00  0.00    +0.069 C 
ATOM     11  H   UNL     1      35.381 -15.680 -24.283  0.00  0.00    -0.079 HD
ATOM     12  N   UNL     1      33.006 -11.252 -24.417  0.00  0.00    -0.229 NA
ATOM     13  C   UNL     1      32.827 -12.149 -23.400  0.00  0.00    +0.132 C 
ATOM     14  C   UNL     1      32.167 -11.794 -22.215  0.00  0.00    +0.034 C 
ATOM     15  C   UNL     1      31.682 -10.498 -22.074  0.00  0.00    +0.004 C 
ATOM     16  C   UNL     1      32.522 -10.001 -24.243  0.00  0.00    +0.100 C 
ATOM     17  C   UNL     1      31.859  -9.579 -23.102  0.00  0.00    +0.021 C 
ENDBRANCH   4   5
ENDBRANCH   1   4
BRANCH   1  18
ATOM     18  C   UNL     1      34.417 -19.222 -22.024  0.00  0.00    +0.232 C 
BRANCH  18  19
ATOM     19  O   UNL     1      35.310 -19.974 -21.208  0.00  0.00    -0.473 OA
BRANCH  19  23
ATOM     20  C   UNL     1      33.600 -22.349 -18.265  0.00  0.00    -0.022 C 
ATOM     21  C   UNL     1      32.787 -21.657 -19.162  0.00  0.00    -0.001 C 
ATOM     22  C   UNL     1      34.988 -22.242 -18.356  0.00  0.00    -0.001 C 
ATOM     23  C   UNL     1      34.746 -20.757 -20.237  0.00  0.00    +0.139 C 
ATOM     24  C   UNL     1      33.361 -20.859 -20.151  0.00  0.00    +0.037 C 
ATOM     25  C   UNL     1      35.562 -21.443 -19.345  0.00  0.00    +0.037 C 
BRANCH  20  26
ATOM     26  C   UNL     1      32.975 -23.216 -17.188  0.00  0.00    +0.022 C 
ATOM     27  C   UNL     1      33.793 -23.193 -15.885  0.00  0.00    +0.004 C 
ATOM     28  C   UNL     1      31.509 -22.832 -16.924  0.00  0.00    +0.004 C 
ATOM     29  C   UNL     1      33.160 -24.076 -14.811  0.00  0.00    +0.000 C 
ATOM     30  C   UNL     1      30.885 -23.716 -15.846  0.00  0.00    +0.000 C 
ATOM     31  C   UNL     1      31.703 -23.698 -14.558  0.00  0.00    +0.000 C 
ENDBRANCH  20  26
ENDBRANCH  19  23
ENDBRANCH  18  19
ENDBRANCH   1  18
TORSDOF 7
ENDMDL
MODEL 6
REMARK VINA RESULT:     -11.1      3.425      5.889
REMARK  Name = 446129
REMARK  7 active torsions:
REMARK  status: ('A' for Active; 'I' for Inactive)
REMARK    1  A    between atoms: C_1  and  O_2
REMARK    2  A    between atoms: C_1  and  C_4
REMARK    3  A    between atoms: C_1  and  C_18
REMARK    4  A    between atoms: C_4  and  N_5
REMARK    5  A    between atoms: C_18  and  O_19
REMARK    6  A    between atoms: O_19  and  C_23
REMARK    7  A    between atoms: C_20  and  C_26
REMARK                            x       y       z     vdW  Elec       q    Type
REMARK                         _______ _______ _______ _____ _____    ______ ____
ROOT
ATOM      1  C   UNL     1      33.074 -13.129 -27.634  0.00  0.00    +0.133 C 
ENDROOT
BRANCH   1   2
ATOM      2  O   UNL     1      31.946 -12.411 -28.138  0.00  0.00    -0.383 OA
ATOM      3  H   UNL     1      31.373 -12.148 -27.401  0.00  0.00    +0.210 HD
ENDBRANCH   1   2
BRANCH   1   4
ATOM      4  C   UNL     1      33.935 -12.157 -26.824  0.00  0.00    -0.043 C 
BRANCH   4   5
ATOM      5  N   UNL     1      33.166 -11.477 -25.781  0.00  0.00    +0.391 N 
ATOM      6  N   UNL     1      32.776  -9.796 -23.506  0.00  0.00    -0.298 N 
ATOM      7  C   UNL     1      33.310 -10.022 -25.900  0.00  0.00    -0.055 C 
ATOM      8  C   UNL     1      33.604 -11.916 -24.451  0.00  0.00    -0.055 C 
ATOM      9  C   UNL     1      32.465  -9.298 -24.850  0.00  0.00    +0.069 C 
ATOM     10  C   UNL     1      32.768 -11.255 -23.351  0.00  0.00    +0.069 C 
ATOM     11  H   UNL     1      32.183 -11.723 -25.901  0.00  0.00    -0.079 HD
ATOM     12  N   UNL     1      31.613  -9.496 -21.431  0.00  0.00    -0.229 NA
ATOM     13  C   UNL     1      32.466  -9.015 -22.387  0.00  0.00    +0.132 C 
ATOM     14  C   UNL     1      33.047  -7.743 -22.278  0.00  0.00    +0.034 C 
ATOM     15  C   UNL     1      32.748  -6.955 -21.172  0.00  0.00    +0.004 C 
ATOM     16  C   UNL     1      31.346  -8.701 -20.370  0.00  0.00    +0.100 C 
ATOM     17  C   UNL     1      31.883  -7.436 -20.195  0.00  0.00    +0.021 C 
ENDBRANCH   4   5
ENDBRANCH   1   4
BRANCH   1  18
ATOM     18  C   UNL     1      32.572 -14.317 -26.815  0.00  0.00    +0.232 C 
BRANCH  18  19
ATOM     19  O   UNL     1      33.523 -15.373 -26.904  0.00  0.00    -0.473 OA
BRANCH  19  23
ATOM     20  C   UNL     1      34.350 -17.440 -23.401  0.00  0.00    -0.022 C 
ATOM     21  C   UNL     1      34.240 -16.050 -23.381  0.00  0.00    -0.001 C 
ATOM     22  C   UNL     1      34.184 -18.135 -24.599  0.00  0.00    -0.001 C 
ATOM     23  C   UNL     1      33.797 -16.054 -25.749  0.00  0.00    +0.139 C 
ATOM     24  C   UNL     1      33.961 -15.355 -24.558  0.00  0.00    +0.037 C 
ATOM     25  C   UNL     1      33.907 -17.440 -25.776  0.00  0.00    +0.037 C 
BRANCH  20  26
ATOM     26  C   UNL     1      34.654 -18.195 -22.121  0.00  0.00    +0.022 C 
ATOM     27  C   UNL     1      33.701 -19.386 -21.917  0.00  0.00    +0.004 C 
ATOM     28  C   UNL     1      36.123 -18.648 -22.058  0.00  0.00    +0.004 C 
ATOM     29  C   UNL     1      34.010 -20.133 -20.620  0.00  0.00    +0.000 C 
ATOM     30  C   UNL     1      36.422 -19.399 -20.761  0.00  0.00    +0.000 C 
ATOM     31  C   UNL     1      35.470 -20.574 -20.558  0.00  0.00    +0.000 C 
ENDBRANCH  20  26
ENDBRANCH  19  23
ENDBRANCH  18  19
ENDBRANCH   1  18
TORSDOF 7
ENDMDL
MODEL 7
REMARK VINA RESULT:     -11.0      4.189     11.157
REMARK  Name = 446129
REMARK  7 active torsions:
REMARK  status: ('A' for Active; 'I' for Inactive)
REMARK    1  A    between atoms: C_1  and  O_2
REMARK    2  A    between atoms: C_1  and  C_4
REMARK    3  A    between atoms: C_1  and  C_18
REMARK    4  A    between atoms: C_4  and  N_5
REMARK    5  A    between atoms: C_18  and  O_19
REMARK    6  A    between atoms: O_19  and  C_23
REMARK    7  A    between atoms: C_20  and  C_26
REMARK                            x       y       z     vdW  Elec       q    Type
REMARK                         _______ _______ _______ _____ _____    ______ ____
ROOT
ATOM      1  C   UNL     1      33.630 -20.820 -19.788  0.00  0.00    +0.133 C 
ENDROOT
BRANCH   1   2
ATOM      2  O   UNL     1      32.358 -20.744 -20.438  0.00  0.00    -0.383 OA
ATOM      3  H   UNL     1      32.423 -20.159 -21.209  0.00  0.00    +0.210 HD
ENDBRANCH   1   2
BRANCH   1   4
ATOM      4  C   UNL     1      33.805 -22.241 -19.248  0.00  0.00    -0.043 C 
BRANCH   4   5
ATOM      5  N   UNL     1      34.260 -22.250 -17.858  0.00  0.00    +0.391 N 
ATOM      6  N   UNL     1      35.569 -23.306 -15.549  0.00  0.00    -0.298 N 
ATOM      7  C   UNL     1      35.726 -22.307 -17.795  0.00  0.00    -0.055 C 
ATOM      8  C   UNL     1      33.684 -23.391 -17.136  0.00  0.00    -0.055 C 
ATOM      9  C   UNL     1      36.217 -22.259 -16.347  0.00  0.00    +0.069 C 
ATOM     10  C   UNL     1      34.107 -23.379 -15.664  0.00  0.00    +0.069 C 
ATOM     11  H   UNL     1      33.944 -21.387 -17.415  0.00  0.00    -0.079 HD
ATOM     12  N   UNL     1      35.470 -23.610 -13.173  0.00  0.00    -0.229 NA
ATOM     13  C   UNL     1      36.156 -23.730 -14.351  0.00  0.00    +0.132 C 
ATOM     14  C   UNL     1      37.448 -24.272 -14.396  0.00  0.00    +0.034 C 
ATOM     15  C   UNL     1      38.045 -24.697 -13.214  0.00  0.00    +0.004 C 
ATOM     16  C   UNL     1      36.083 -24.034 -12.045  0.00  0.00    +0.100 C 
ATOM     17  C   UNL     1      37.356 -24.580 -12.013  0.00  0.00    +0.021 C 
ENDBRANCH   4   5
ENDBRANCH   1   4
BRANCH   1  18
ATOM     18  C   UNL     1      34.714 -20.414 -20.785  0.00  0.00    +0.232 C 
BRANCH  18  19
ATOM     19  O   UNL     1      34.877 -19.000 -20.737  0.00  0.00    -0.473 OA
BRANCH  19  23
ATOM     20  C   UNL     1      34.029 -16.906 -24.219  0.00  0.00    -0.022 C 
ATOM     21  C   UNL     1      34.562 -16.238 -23.116  0.00  0.00    -0.001 C 
ATOM     22  C   UNL     1      33.781 -18.277 -24.151  0.00  0.00    -0.001 C 
ATOM     23  C   UNL     1      34.597 -18.309 -21.885  0.00  0.00    +0.139 C 
ATOM     24  C   UNL     1      34.847 -16.942 -21.946  0.00  0.00    +0.037 C 
ATOM     25  C   UNL     1      34.065 -18.980 -22.980  0.00  0.00    +0.037 C 
BRANCH  20  26
ATOM     26  C   UNL     1      33.718 -16.140 -25.491  0.00  0.00    +0.022 C 
ATOM     27  C   UNL     1      32.611 -16.821 -26.316  0.00  0.00    +0.004 C 
ATOM     28  C   UNL     1      33.364 -14.671 -25.203  0.00  0.00    +0.004 C 
ATOM     29  C   UNL     1      32.313 -16.047 -27.598  0.00  0.00    +0.000 C 
ATOM     30  C   UNL     1      33.063 -13.905 -26.491  0.00  0.00    +0.000 C 
ATOM     31  C   UNL     1      31.971 -14.588 -27.309  0.00  0.00    +0.000 C 
ENDBRANCH  20  26
ENDBRANCH  19  23
ENDBRANCH  18  19
ENDBRANCH   1  18
TORSDOF 7
ENDMDL
MODEL 8
REMARK VINA RESULT:     -11.0      2.971      4.976
REMARK  Name = 446129
REMARK  7 active torsions:
REMARK  status: ('A' for Active; 'I' for Inactive)
REMARK    1  A    between atoms: C_1  and  O_2
REMARK    2  A    between atoms: C_1  and  C_4
REMARK    3  A    between atoms: C_1  and  C_18
REMARK    4  A    between atoms: C_4  and  N_5
REMARK    5  A    between atoms: C_18  and  O_19
REMARK    6  A    between atoms: O_19  and  C_23
REMARK    7  A    between atoms: C_20  and  C_26
REMARK                            x       y       z     vdW  Elec       q    Type
REMARK                         _______ _______ _______ _____ _____    ______ ____
ROOT
ATOM      1  C   UNL     1      33.186 -15.095 -26.191  0.00  0.00    +0.133 C 
ENDROOT
BRANCH   1   2
ATOM      2  O   UNL     1      31.847 -15.180 -26.686  0.00  0.00    -0.383 OA
ATOM      3  H   UNL     1      31.247 -14.723 -26.076  0.00  0.00    +0.210 HD
ENDBRANCH   1   2
BRANCH   1   4
ATOM      4  C   UNL     1      33.153 -14.358 -24.850  0.00  0.00    -0.043 C 
BRANCH   4   5
ATOM      5  N   UNL     1      32.759 -12.957 -25.002  0.00  0.00    +0.391 N 
ATOM      6  N   UNL     1      33.178 -10.150 -25.318  0.00  0.00    -0.298 N 
ATOM      7  C   UNL     1      33.250 -12.418 -26.275  0.00  0.00    -0.055 C 
ATOM      8  C   UNL     1      33.275 -12.154 -23.887  0.00  0.00    -0.055 C 
ATOM      9  C   UNL     1      32.796 -10.970 -26.471  0.00  0.00    +0.069 C 
ATOM     10  C   UNL     1      32.821 -10.697 -24.003  0.00  0.00    +0.069 C 
ATOM     11  H   UNL     1      31.739 -12.912 -24.995  0.00  0.00    -0.079 HD
ATOM     12  N   UNL     1      32.475  -7.950 -24.675  0.00  0.00    -0.229 NA
ATOM     13  C   UNL     1      33.260  -8.759 -25.450  0.00  0.00    +0.132 C 
ATOM     14  C   UNL     1      34.157  -8.229 -26.389  0.00  0.00    +0.034 C 
ATOM     15  C   UNL     1      34.249  -6.849 -26.534  0.00  0.00    +0.004 C 
ATOM     16  C   UNL     1      32.592  -6.613 -24.843  0.00  0.00    +0.100 C 
ATOM     17  C   UNL     1      33.456  -6.019 -25.749  0.00  0.00    +0.021 C 
ENDBRANCH   4   5
ENDBRANCH   1   4
BRANCH   1  18
ATOM     18  C   UNL     1      33.760 -16.508 -26.089  0.00  0.00    +0.232 C 
BRANCH  18  19
ATOM     19  O   UNL     1      34.840 -16.500 -25.161  0.00  0.00    -0.473 OA
BRANCH  19  23
ATOM     20  C   UNL     1      34.431 -18.897 -21.798  0.00  0.00    -0.022 C 
ATOM     21  C   UNL     1      34.136 -19.411 -23.061  0.00  0.00    -0.001 C 
ATOM     22  C   UNL     1      34.862 -17.578 -21.666  0.00  0.00    -0.001 C 
ATOM     23  C   UNL     1      34.704 -17.290 -24.052  0.00  0.00    +0.139 C 
ATOM     24  C   UNL     1      34.273 -18.606 -24.191  0.00  0.00    +0.037 C 
ATOM     25  C   UNL     1      34.999 -16.772 -22.796  0.00  0.00    +0.037 C 
BRANCH  20  26
ATOM     26  C   UNL     1      34.280 -19.774 -20.569  0.00  0.00    +0.022 C 
ATOM     27  C   UNL     1      32.921 -20.495 -20.541  0.00  0.00    +0.004 C 
ATOM     28  C   UNL     1      35.438 -20.777 -20.435  0.00  0.00    +0.004 C 
ATOM     29  C   UNL     1      32.775 -21.367 -19.295  0.00  0.00    +0.000 C 
ATOM     30  C   UNL     1      35.283 -21.648 -19.189  0.00  0.00    +0.000 C 
ATOM     31  C   UNL     1      33.931 -22.355 -19.162  0.00  0.00    +0.000 C 
ENDBRANCH  20  26
ENDBRANCH  19  23
ENDBRANCH  18  19
ENDBRANCH   1  18
TORSDOF 7
ENDMDL
MODEL 9
REMARK VINA RESULT:     -10.9      2.611     10.411
REMARK  Name = 446129
REMARK  7 active torsions:
REMARK  status: ('A' for Active; 'I' for Inactive)
REMARK    1  A    between atoms: C_1  and  O_2
REMARK    2  A    between atoms: C_1  and  C_4
REMARK    3  A    between atoms: C_1  and  C_18
REMARK    4  A    between atoms: C_4  and  N_5
REMARK    5  A    between atoms: C_18  and  O_19
REMARK    6  A    between atoms: O_19  and  C_23
REMARK    7  A    between atoms: C_20  and  C_26
REMARK                            x       y       z     vdW  Elec       q    Type
REMARK                         _______ _______ _______ _____ _____    ______ ____
ROOT
ATOM      1  C   UNL     1      33.304 -15.940 -25.596  0.00  0.00    +0.133 C 
ENDROOT
BRANCH   1   2
ATOM      2  O   UNL     1      33.475 -16.106 -27.005  0.00  0.00    -0.383 OA
ATOM      3  H   UNL     1      32.801 -16.716 -27.344  0.00  0.00    +0.210 HD
ENDBRANCH   1   2
BRANCH   1   4
ATOM      4  C   UNL     1      34.547 -16.495 -24.896  0.00  0.00    -0.043 C 
BRANCH   4   5
ATOM      5  N   UNL     1      34.211 -17.219 -23.670  0.00  0.00    +0.391 N 
ATOM      6  N   UNL     1      34.485 -19.255 -21.686  0.00  0.00    -0.298 N 
ATOM      7  C   UNL     1      35.339 -17.194 -22.731  0.00  0.00    -0.055 C 
ATOM      8  C   UNL     1      33.846 -18.608 -23.976  0.00  0.00    -0.055 C 
ATOM      9  C   UNL     1      34.980 -17.900 -21.421  0.00  0.00    +0.069 C 
ATOM     10  C   UNL     1      33.437 -19.361 -22.708  0.00  0.00    +0.069 C 
ATOM     11  H   UNL     1      33.411 -16.757 -23.237  0.00  0.00    -0.079 HD
ATOM     12  N   UNL     1      33.344 -20.799 -20.250  0.00  0.00    -0.229 NA
ATOM     13  C   UNL     1      34.509 -20.215 -20.667  0.00  0.00    +0.132 C 
ATOM     14  C   UNL     1      35.744 -20.551 -20.095  0.00  0.00    +0.034 C 
ATOM     15  C   UNL     1      35.783 -21.502 -19.081  0.00  0.00    +0.004 C 
ATOM     16  C   UNL     1      33.421 -21.719 -19.262  0.00  0.00    +0.100 C 
ATOM     17  C   UNL     1      34.605 -22.102 -18.651  0.00  0.00    +0.021 C 
ENDBRANCH   4   5
ENDBRANCH   1   4
BRANCH   1  18
ATOM     18  C   UNL     1      33.057 -14.461 -25.303  0.00  0.00    +0.232 C 
BRANCH  18  19
ATOM     19  O   UNL     1      33.186 -14.241 -23.902  0.00  0.00    -0.473 OA
BRANCH  19  23
ATOM     20  C   UNL     1      32.219 -10.451 -22.512  0.00  0.00    -0.022 C 
ATOM     21  C   UNL     1      32.926 -10.596 -23.705  0.00  0.00    -0.001 C 
ATOM     22  C   UNL     1      31.837 -11.579 -21.786  0.00  0.00    -0.001 C 
ATOM     23  C   UNL     1      32.868 -12.991 -23.444  0.00  0.00    +0.139 C 
ATOM     24  C   UNL     1      33.251 -11.870 -24.173  0.00  0.00    +0.037 C 
ATOM     25  C   UNL     1      32.163 -12.852 -22.253  0.00  0.00    +0.037 C 
BRANCH  20  26
ATOM     26  C   UNL     1      31.867  -9.066 -22.004  0.00  0.00    +0.022 C 
ATOM     27  C   UNL     1      31.673  -9.046 -20.477  0.00  0.00    +0.004 C 
ATOM     28  C   UNL     1      32.902  -8.015 -22.441  0.00  0.00    +0.004 C 
ATOM     29  C   UNL     1      31.310  -7.649 -19.978  0.00  0.00    +0.000 C 
ATOM     30  C   UNL     1      32.534  -6.622 -21.933  0.00  0.00    +0.000 C 
ATOM     31  C   UNL     1      32.335  -6.608 -20.421  0.00  0.00    +0.000 C 
ENDBRANCH  20  26
ENDBRANCH  19  23
ENDBRANCH  18  19
ENDBRANCH   1  18
TORSDOF 7
ENDMDL
