MODEL 1
REMARK VINA RESULT:     -12.2      0.000      0.000
REMARK  Name = 6914614
REMARK  7 active torsions:
REMARK  status: ('A' for Active; 'I' for Inactive)
REMARK    1  A    between atoms: O_1  and  C_4
REMARK    2  A    between atoms: O_1  and  C_18
REMARK    3  A    between atoms: C_9  and  C_13
REMARK    4  A    between atoms: C_18  and  C_19
REMARK    5  A    between atoms: C_19  and  N_20
REMARK    6  A    between atoms: C_19  and  C_24
REMARK    7  A    between atoms: C_24  and  C_26
REMARK                            x       y       z     vdW  Elec       q    Type
REMARK                         _______ _______ _______ _____ _____    ______ ____
ROOT
ATOM      1  O   UNL     1      35.272 -20.487 -19.991  0.00  0.00    -0.476 OA
ENDROOT
BRANCH   1   4
ATOM      2  N   UNL     1      34.954 -23.407 -16.158  0.00  0.00    -0.404 NA
ATOM      3  N   UNL     1      32.549 -22.546 -18.766  0.00  0.00    -0.258 NA
ATOM      4  C   UNL     1      34.601 -21.357 -19.191  0.00  0.00    +0.159 C 
ATOM      5  C   UNL     1      35.182 -21.933 -18.054  0.00  0.00    +0.063 C 
ATOM      6  C   UNL     1      34.442 -22.826 -17.262  0.00  0.00    +0.136 C 
ATOM      7  C   UNL     1      36.499 -21.648 -17.668  0.00  0.00    +0.008 C 
ATOM      8  C   UNL     1      33.295 -21.694 -19.499  0.00  0.00    +0.130 C 
ATOM      9  C   UNL     1      36.230 -23.106 -15.820  0.00  0.00    +0.131 C 
ATOM     10  C   UNL     1      37.036 -22.242 -16.534  0.00  0.00    +0.032 C 
ATOM     11  C   UNL     1      33.145 -23.082 -17.675  0.00  0.00    +0.184 C 
BRANCH   9  13
ATOM     12  N   UNL     1      37.648 -25.039 -12.321  0.00  0.00    -0.242 NA
ATOM     13  C   UNL     1      36.713 -23.763 -14.629  0.00  0.00    +0.033 C 
ATOM     14  C   UNL     1      37.773 -24.661 -14.706  0.00  0.00    +0.023 C 
ATOM     15  C   UNL     1      36.120 -23.504 -13.397  0.00  0.00    +0.023 C 
ATOM     16  C   UNL     1      38.200 -25.266 -13.534  0.00  0.00    +0.099 C 
ATOM     17  C   UNL     1      36.621 -24.161 -12.283  0.00  0.00    +0.099 C 
ENDBRANCH   9  13
ENDBRANCH   1   4
BRANCH   1  18
ATOM     18  C   UNL     1      34.756 -20.280 -21.306  0.00  0.00    +0.184 C 
BRANCH  18  19
ATOM     19  C   UNL     1      34.702 -18.791 -21.670  0.00  0.00    -0.017 C 
BRANCH  19  20
ATOM     20  N   UNL     1      35.394 -18.028 -20.624  0.00  0.00    +0.384 N 
ATOM     21  H   UNL     1      35.958 -17.295 -21.054  0.00  0.00    -0.089 HD
ATOM     22  H   UNL     1      35.998 -18.653 -20.091  0.00  0.00    -0.089 HD
ATOM     23  H   UNL     1      34.706 -17.605 -20.000  0.00  0.00    -0.089 HD
ENDBRANCH  19  20
BRANCH  19  24
ATOM     24  C   UNL     1      35.346 -18.454 -23.029  0.00  0.00    +0.009 C 
BRANCH  24  26
ATOM     25  N   UNL     1      33.867 -15.485 -24.555  0.00  0.00    -0.312 N 
ATOM     26  C   UNL     1      34.586 -17.422 -23.814  0.00  0.00    -0.008 C 
ATOM     27  C   UNL     1      33.624 -17.688 -24.806  0.00  0.00    +0.011 C 
ATOM     28  C   UNL     1      33.180 -16.445 -25.264  0.00  0.00    +0.048 C 
ATOM     29  C   UNL     1      34.727 -16.076 -23.669  0.00  0.00    +0.058 C 
ATOM     30  C   UNL     1      33.074 -18.855 -25.373  0.00  0.00    +0.001 C 
ATOM     31  C   UNL     1      32.212 -16.310 -26.265  0.00  0.00    +0.015 C 
ATOM     32  C   UNL     1      32.104 -18.736 -26.375  0.00  0.00    +0.000 C 
ATOM     33  C   UNL     1      31.680 -17.482 -26.812  0.00  0.00    +0.001 C 
ATOM     34  H   UNL     1      33.756 -14.514 -24.670  0.00  0.00    +0.152 HD
ENDBRANCH  24  26
ENDBRANCH  19  24
ENDBRANCH  18  19
ENDBRANCH   1  18
TORSDOF 7
ENDMDL
MODEL 2
REMARK VINA RESULT:     -12.0      0.958      2.049
REMARK  Name = 6914614
REMARK  7 active torsions:
REMARK  status: ('A' for Active; 'I' for Inactive)
REMARK    1  A    between atoms: O_1  and  C_4
REMARK    2  A    between atoms: O_1  and  C_18
REMARK    3  A    between atoms: C_9  and  C_13
REMARK    4  A    between atoms: C_18  and  C_19
REMARK    5  A    between atoms: C_19  and  N_20
REMARK    6  A    between atoms: C_19  and  C_24
REMARK    7  A    between atoms: C_24  and  C_26
REMARK                            x       y       z     vdW  Elec       q    Type
REMARK                         _______ _______ _______ _____ _____    ______ ____
ROOT
ATOM      1  O   UNL     1      35.289 -20.490 -19.938  0.00  0.00    -0.476 OA
ENDROOT
BRANCH   1   4
ATOM      2  N   UNL     1      34.941 -23.434 -16.126  0.00  0.00    -0.404 NA
ATOM      3  N   UNL     1      32.551 -22.545 -18.739  0.00  0.00    -0.258 NA
ATOM      4  C   UNL     1      34.610 -21.362 -19.146  0.00  0.00    +0.159 C 
ATOM      5  C   UNL     1      35.184 -21.949 -18.011  0.00  0.00    +0.063 C 
ATOM      6  C   UNL     1      34.435 -22.843 -17.227  0.00  0.00    +0.136 C 
ATOM      7  C   UNL     1      36.500 -21.671 -17.617  0.00  0.00    +0.008 C 
ATOM      8  C   UNL     1      33.304 -21.691 -19.462  0.00  0.00    +0.130 C 
ATOM      9  C   UNL     1      36.215 -23.140 -15.780  0.00  0.00    +0.131 C 
ATOM     10  C   UNL     1      37.029 -22.275 -16.485  0.00  0.00    +0.032 C 
ATOM     11  C   UNL     1      33.139 -23.091 -17.648  0.00  0.00    +0.184 C 
BRANCH   9  13
ATOM     12  N   UNL     1      37.610 -25.099 -12.286  0.00  0.00    -0.242 NA
ATOM     13  C   UNL     1      36.690 -23.808 -14.591  0.00  0.00    +0.033 C 
ATOM     14  C   UNL     1      36.023 -23.641 -13.381  0.00  0.00    +0.023 C 
ATOM     15  C   UNL     1      37.818 -24.620 -14.646  0.00  0.00    +0.023 C 
ATOM     16  C   UNL     1      36.517 -24.303 -12.269  0.00  0.00    +0.099 C 
ATOM     17  C   UNL     1      38.233 -25.238 -13.477  0.00  0.00    +0.099 C 
ENDBRANCH   9  13
ENDBRANCH   1   4
BRANCH   1  18
ATOM     18  C   UNL     1      34.809 -20.311 -21.271  0.00  0.00    +0.184 C 
BRANCH  18  19
ATOM     19  C   UNL     1      34.760 -18.830 -21.664  0.00  0.00    -0.017 C 
BRANCH  19  20
ATOM     20  N   UNL     1      35.346 -18.036 -20.578  0.00  0.00    +0.384 N 
ATOM     21  H   UNL     1      34.854 -17.146 -20.503  0.00  0.00    -0.089 HD
ATOM     22  H   UNL     1      36.331 -17.865 -20.776  0.00  0.00    -0.089 HD
ATOM     23  H   UNL     1      35.259 -18.547 -19.699  0.00  0.00    -0.089 HD
ENDBRANCH  19  20
BRANCH  19  24
ATOM     24  C   UNL     1      35.510 -18.502 -22.970  0.00  0.00    +0.009 C 
BRANCH  24  26
ATOM     25  N   UNL     1      33.549 -17.049 -25.686  0.00  0.00    -0.312 N 
ATOM     26  C   UNL     1      34.711 -17.664 -23.928  0.00  0.00    -0.008 C 
ATOM     27  C   UNL     1      34.368 -16.311 -23.747  0.00  0.00    +0.011 C 
ATOM     28  C   UNL     1      33.630 -15.940 -24.874  0.00  0.00    +0.048 C 
ATOM     29  C   UNL     1      34.207 -18.104 -25.113  0.00  0.00    +0.058 C 
ATOM     30  C   UNL     1      34.601 -15.349 -22.743  0.00  0.00    +0.001 C 
ATOM     31  C   UNL     1      33.112 -14.652 -25.048  0.00  0.00    +0.015 C 
ATOM     32  C   UNL     1      34.090 -14.056 -22.904  0.00  0.00    +0.000 C 
ATOM     33  C   UNL     1      33.357 -13.715 -24.040  0.00  0.00    +0.001 C 
ATOM     34  H   UNL     1      33.084 -17.079 -26.553  0.00  0.00    +0.152 HD
ENDBRANCH  24  26
ENDBRANCH  19  24
ENDBRANCH  18  19
ENDBRANCH   1  18
TORSDOF 7
ENDMDL
MODEL 3
REMARK VINA RESULT:     -12.0      3.624     11.505
REMARK  Name = 6914614
REMARK  7 active torsions:
REMARK  status: ('A' for Active; 'I' for Inactive)
REMARK    1  A    between atoms: O_1  and  C_4
REMARK    2  A    between atoms: O_1  and  C_18
REMARK    3  A    between atoms: C_9  and  C_13
REMARK    4  A    between atoms: C_18  and  C_19
REMARK    5  A    between atoms: C_19  and  N_20
REMARK    6  A    between atoms: C_19  and  C_24
REMARK    7  A    between atoms: C_24  and  C_26
REMARK                            x       y       z     vdW  Elec       q    Type
REMARK                         _______ _______ _______ _____ _____    ______ ____
ROOT
ATOM      1  O   UNL     1      33.073 -17.306 -24.557  0.00  0.00    -0.476 OA
ENDROOT
BRANCH   1   4
ATOM      2  N   UNL     1      33.330 -12.659 -25.844  0.00  0.00    -0.404 NA
ATOM      3  N   UNL     1      32.626 -15.681 -27.768  0.00  0.00    -0.258 NA
ATOM      4  C   UNL     1      33.004 -16.302 -25.472  0.00  0.00    +0.159 C 
ATOM      5  C   UNL     1      33.216 -14.960 -25.132  0.00  0.00    +0.063 C 
ATOM      6  C   UNL     1      33.134 -13.964 -26.119  0.00  0.00    +0.136 C 
ATOM      7  C   UNL     1      33.515 -14.565 -23.822  0.00  0.00    +0.008 C 
ATOM      8  C   UNL     1      32.715 -16.605 -26.790  0.00  0.00    +0.130 C 
ATOM      9  C   UNL     1      33.615 -12.318 -24.566  0.00  0.00    +0.131 C 
ATOM     10  C   UNL     1      33.717 -13.223 -23.529  0.00  0.00    +0.032 C 
ATOM     11  C   UNL     1      32.838 -14.394 -27.402  0.00  0.00    +0.184 C 
BRANCH   9  13
ATOM     12  N   UNL     1      34.196  -8.167 -23.915  0.00  0.00    -0.242 NA
ATOM     13  C   UNL     1      33.813 -10.905 -24.345  0.00  0.00    +0.033 C 
ATOM     14  C   UNL     1      35.009 -10.299 -24.717  0.00  0.00    +0.023 C 
ATOM     15  C   UNL     1      32.809 -10.141 -23.757  0.00  0.00    +0.023 C 
ATOM     16  C   UNL     1      35.149  -8.940 -24.484  0.00  0.00    +0.099 C 
ATOM     17  C   UNL     1      33.048  -8.789 -23.566  0.00  0.00    +0.099 C 
ENDBRANCH   9  13
ENDBRANCH   1   4
BRANCH   1  18
ATOM     18  C   UNL     1      34.142 -18.242 -24.696  0.00  0.00    +0.184 C 
BRANCH  18  19
ATOM     19  C   UNL     1      34.976 -18.349 -23.413  0.00  0.00    -0.017 C 
BRANCH  19  20
ATOM     20  N   UNL     1      35.687 -17.081 -23.211  0.00  0.00    +0.384 N 
ATOM     21  H   UNL     1      36.060 -17.048 -22.261  0.00  0.00    -0.089 HD
ATOM     22  H   UNL     1      35.043 -16.304 -23.350  0.00  0.00    -0.089 HD
ATOM     23  H   UNL     1      36.455 -17.011 -23.879  0.00  0.00    -0.089 HD
ENDBRANCH  19  20
BRANCH  19  24
ATOM     24  C   UNL     1      34.148 -18.653 -22.150  0.00  0.00    +0.009 C 
BRANCH  24  26
ATOM     25  N   UNL     1      36.481 -20.393 -19.946  0.00  0.00    -0.312 N 
ATOM     26  C   UNL     1      34.872 -19.507 -21.148  0.00  0.00    -0.008 C 
ATOM     27  C   UNL     1      34.280 -20.458 -20.297  0.00  0.00    +0.011 C 
ATOM     28  C   UNL     1      35.318 -21.009 -19.542  0.00  0.00    +0.048 C 
ATOM     29  C   UNL     1      36.215 -19.475 -20.925  0.00  0.00    +0.058 C 
ATOM     30  C   UNL     1      32.965 -20.919 -20.079  0.00  0.00    +0.001 C 
ATOM     31  C   UNL     1      35.108 -22.000 -18.577  0.00  0.00    +0.015 C 
ATOM     32  C   UNL     1      32.740 -21.910 -19.117  0.00  0.00    +0.000 C 
ATOM     33  C   UNL     1      33.796 -22.442 -18.379  0.00  0.00    +0.001 C 
ATOM     34  H   UNL     1      37.375 -20.585 -19.582  0.00  0.00    +0.152 HD
ENDBRANCH  24  26
ENDBRANCH  19  24
ENDBRANCH  18  19
ENDBRANCH   1  18
TORSDOF 7
ENDMDL
MODEL 4
REMARK VINA RESULT:     -11.8      3.562     11.464
REMARK  Name = 6914614
REMARK  7 active torsions:
REMARK  status: ('A' for Active; 'I' for Inactive)
REMARK    1  A    between atoms: O_1  and  C_4
REMARK    2  A    between atoms: O_1  and  C_18
REMARK    3  A    between atoms: C_9  and  C_13
REMARK    4  A    between atoms: C_18  and  C_19
REMARK    5  A    between atoms: C_19  and  N_20
REMARK    6  A    between atoms: C_19  and  C_24
REMARK    7  A    between atoms: C_24  and  C_26
REMARK                            x       y       z     vdW  Elec       q    Type
REMARK                         _______ _______ _______ _____ _____    ______ ____
ROOT
ATOM      1  O   UNL     1      33.173 -17.517 -24.405  0.00  0.00    -0.476 OA
ENDROOT
BRANCH   1   4
ATOM      2  N   UNL     1      33.317 -12.896 -25.801  0.00  0.00    -0.404 NA
ATOM      3  N   UNL     1      32.637 -15.974 -27.644  0.00  0.00    -0.258 NA
ATOM      4  C   UNL     1      33.069 -16.536 -25.341  0.00  0.00    +0.159 C 
ATOM      5  C   UNL     1      33.261 -15.182 -25.036  0.00  0.00    +0.063 C 
ATOM      6  C   UNL     1      33.141 -14.210 -26.043  0.00  0.00    +0.136 C 
ATOM      7  C   UNL     1      33.575 -14.752 -23.740  0.00  0.00    +0.008 C 
ATOM      8  C   UNL     1      32.762 -16.873 -26.647  0.00  0.00    +0.130 C 
ATOM      9  C   UNL     1      33.619 -12.521 -24.536  0.00  0.00    +0.131 C 
ATOM     10  C   UNL     1      33.757 -13.400 -23.481  0.00  0.00    +0.032 C 
ATOM     11  C   UNL     1      32.831 -14.676 -27.310  0.00  0.00    +0.184 C 
BRANCH   9  13
ATOM     12  N   UNL     1      34.129  -8.345 -23.991  0.00  0.00    -0.242 NA
ATOM     13  C   UNL     1      33.793 -11.100 -24.351  0.00  0.00    +0.033 C 
ATOM     14  C   UNL     1      32.781 -10.341 -23.771  0.00  0.00    +0.023 C 
ATOM     15  C   UNL     1      34.973 -10.480 -24.750  0.00  0.00    +0.023 C 
ATOM     16  C   UNL     1      32.997  -8.980 -23.614  0.00  0.00    +0.099 C 
ATOM     17  C   UNL     1      35.091  -9.114 -24.550  0.00  0.00    +0.099 C 
ENDBRANCH   9  13
ENDBRANCH   1   4
BRANCH   1  18
ATOM     18  C   UNL     1      34.143 -18.539 -24.638  0.00  0.00    +0.184 C 
BRANCH  18  19
ATOM     19  C   UNL     1      34.740 -19.066 -23.328  0.00  0.00    -0.017 C 
BRANCH  19  20
ATOM     20  N   UNL     1      36.144 -18.642 -23.249  0.00  0.00    +0.384 N 
ATOM     21  H   UNL     1      36.649 -18.985 -24.067  0.00  0.00    -0.089 HD
ATOM     22  H   UNL     1      36.567 -19.024 -22.404  0.00  0.00    -0.089 HD
ATOM     23  H   UNL     1      36.190 -17.624 -23.223  0.00  0.00    -0.089 HD
ENDBRANCH  19  20
BRANCH  19  24
ATOM     24  C   UNL     1      34.009 -18.576 -22.063  0.00  0.00    +0.009 C 
BRANCH  24  26
ATOM     25  N   UNL     1      32.282 -21.150 -20.134  0.00  0.00    -0.312 N 
ATOM     26  C   UNL     1      33.560 -19.689 -21.159  0.00  0.00    -0.008 C 
ATOM     27  C   UNL     1      34.387 -20.429 -20.293  0.00  0.00    +0.011 C 
ATOM     28  C   UNL     1      33.556 -21.351 -19.652  0.00  0.00    +0.048 C 
ATOM     29  C   UNL     1      32.279 -20.137 -21.055  0.00  0.00    +0.058 C 
ATOM     30  C   UNL     1      35.760 -20.420 -19.977  0.00  0.00    +0.001 C 
ATOM     31  C   UNL     1      34.031 -22.268 -18.708  0.00  0.00    +0.015 C 
ATOM     32  C   UNL     1      36.250 -21.332 -19.035  0.00  0.00    +0.000 C 
ATOM     33  C   UNL     1      35.397 -22.241 -18.411  0.00  0.00    +0.001 C 
ATOM     34  H   UNL     1      31.488 -21.662 -19.857  0.00  0.00    +0.152 HD
ENDBRANCH  24  26
ENDBRANCH  19  24
ENDBRANCH  18  19
ENDBRANCH   1  18
TORSDOF 7
ENDMDL
MODEL 5
REMARK VINA RESULT:     -11.8      2.081      9.951
REMARK  Name = 6914614
REMARK  7 active torsions:
REMARK  status: ('A' for Active; 'I' for Inactive)
REMARK    1  A    between atoms: O_1  and  C_4
REMARK    2  A    between atoms: O_1  and  C_18
REMARK    3  A    between atoms: C_9  and  C_13
REMARK    4  A    between atoms: C_18  and  C_19
REMARK    5  A    between atoms: C_19  and  N_20
REMARK    6  A    between atoms: C_19  and  C_24
REMARK    7  A    between atoms: C_24  and  C_26
REMARK                            x       y       z     vdW  Elec       q    Type
REMARK                         _______ _______ _______ _____ _____    ______ ____
ROOT
ATOM      1  O   UNL     1      36.260 -22.199 -18.669  0.00  0.00    -0.476 OA
ENDROOT
BRANCH   1   4
ATOM      2  N   UNL     1      33.655 -19.213 -21.429  0.00  0.00    -0.404 NA
ATOM      3  N   UNL     1      32.693 -22.016 -19.298  0.00  0.00    -0.258 NA
ATOM      4  C   UNL     1      35.084 -21.753 -19.187  0.00  0.00    +0.159 C 
ATOM      5  C   UNL     1      35.016 -20.668 -20.071  0.00  0.00    +0.063 C 
ATOM      6  C   UNL     1      33.774 -20.250 -20.577  0.00  0.00    +0.136 C 
ATOM      7  C   UNL     1      36.161 -19.971 -20.479  0.00  0.00    +0.008 C 
ATOM      8  C   UNL     1      33.905 -22.385 -18.837  0.00  0.00    +0.130 C 
ATOM      9  C   UNL     1      34.784 -18.565 -21.799  0.00  0.00    +0.131 C 
ATOM     10  C   UNL     1      36.048 -18.901 -21.356  0.00  0.00    +0.032 C 
ATOM     11  C   UNL     1      32.667 -20.965 -20.151  0.00  0.00    +0.184 C 
BRANCH   9  13
ATOM     12  N   UNL     1      34.190 -15.337 -24.485  0.00  0.00    -0.242 NA
ATOM     13  C   UNL     1      34.581 -17.466 -22.713  0.00  0.00    +0.033 C 
ATOM     14  C   UNL     1      34.291 -17.713 -24.051  0.00  0.00    +0.023 C 
ATOM     15  C   UNL     1      34.677 -16.153 -22.262  0.00  0.00    +0.023 C 
ATOM     16  C   UNL     1      34.105 -16.624 -24.888  0.00  0.00    +0.099 C 
ATOM     17  C   UNL     1      34.474 -15.134 -23.179  0.00  0.00    +0.099 C 
ENDBRANCH   9  13
ENDBRANCH   1   4
BRANCH   1  18
ATOM     18  C   UNL     1      36.568 -21.816 -17.329  0.00  0.00    +0.184 C 
BRANCH  18  19
ATOM     19  C   UNL     1      36.077 -22.855 -16.313  0.00  0.00    -0.017 C 
BRANCH  19  20
ATOM     20  N   UNL     1      37.243 -23.532 -15.733  0.00  0.00    +0.384 N 
ATOM     21  H   UNL     1      37.232 -24.517 -15.999  0.00  0.00    -0.089 HD
ATOM     22  H   UNL     1      37.212 -23.453 -14.718  0.00  0.00    -0.089 HD
ATOM     23  H   UNL     1      38.097 -23.096 -16.082  0.00  0.00    -0.089 HD
ENDBRANCH  19  20
BRANCH  19  24
ATOM     24  C   UNL     1      35.235 -22.262 -15.167  0.00  0.00    +0.009 C 
BRANCH  24  26
ATOM     25  N   UNL     1      33.636 -24.837 -13.130  0.00  0.00    -0.312 N 
ATOM     26  C   UNL     1      34.345 -23.268 -14.492  0.00  0.00    -0.008 C 
ATOM     27  C   UNL     1      33.003 -23.532 -14.825  0.00  0.00    +0.011 C 
ATOM     28  C   UNL     1      32.572 -24.531 -13.949  0.00  0.00    +0.048 C 
ATOM     29  C   UNL     1      34.721 -24.068 -13.458  0.00  0.00    +0.058 C 
ATOM     30  C   UNL     1      32.096 -23.032 -15.781  0.00  0.00    +0.001 C 
ATOM     31  C   UNL     1      31.275 -25.055 -13.979  0.00  0.00    +0.015 C 
ATOM     32  C   UNL     1      30.796 -23.547 -15.824  0.00  0.00    +0.000 C 
ATOM     33  C   UNL     1      30.393 -24.543 -14.936  0.00  0.00    +0.001 C 
ATOM     34  H   UNL     1      33.619 -25.510 -12.413  0.00  0.00    +0.152 HD
ENDBRANCH  24  26
ENDBRANCH  19  24
ENDBRANCH  18  19
ENDBRANCH   1  18
TORSDOF 7
ENDMDL
MODEL 6
REMARK VINA RESULT:     -11.5      4.734      8.871
REMARK  Name = 6914614
REMARK  7 active torsions:
REMARK  status: ('A' for Active; 'I' for Inactive)
REMARK    1  A    between atoms: O_1  and  C_4
REMARK    2  A    between atoms: O_1  and  C_18
REMARK    3  A    between atoms: C_9  and  C_13
REMARK    4  A    between atoms: C_18  and  C_19
REMARK    5  A    between atoms: C_19  and  N_20
REMARK    6  A    between atoms: C_19  and  C_24
REMARK    7  A    between atoms: C_24  and  C_26
REMARK                            x       y       z     vdW  Elec       q    Type
REMARK                         _______ _______ _______ _____ _____    ______ ____
ROOT
ATOM      1  O   UNL     1      33.672 -14.861 -26.928  0.00  0.00    -0.476 OA
ENDROOT
BRANCH   1   4
ATOM      2  N   UNL     1      33.316 -18.706 -24.028  0.00  0.00    -0.404 NA
ATOM      3  N   UNL     1      31.609 -17.837 -27.136  0.00  0.00    -0.258 NA
ATOM      4  C   UNL     1      33.148 -16.068 -26.584  0.00  0.00    +0.159 C 
ATOM      5  C   UNL     1      33.545 -16.758 -25.432  0.00  0.00    +0.063 C 
ATOM      6  C   UNL     1      32.969 -18.002 -25.124  0.00  0.00    +0.136 C 
ATOM      7  C   UNL     1      34.512 -16.246 -24.556  0.00  0.00    +0.008 C 
ATOM      8  C   UNL     1      32.187 -16.646 -27.393  0.00  0.00    +0.130 C 
ATOM      9  C   UNL     1      34.253 -18.178 -23.208  0.00  0.00    +0.131 C 
ATOM     10  C   UNL     1      34.876 -16.965 -23.425  0.00  0.00    +0.032 C 
ATOM     11  C   UNL     1      32.018 -18.474 -26.013  0.00  0.00    +0.184 C 
BRANCH   9  13
ATOM     12  N   UNL     1      35.197 -20.548 -19.819  0.00  0.00    -0.242 NA
ATOM     13  C   UNL     1      34.575 -18.985 -22.055  0.00  0.00    +0.033 C 
ATOM     14  C   UNL     1      33.587 -19.742 -21.433  0.00  0.00    +0.023 C 
ATOM     15  C   UNL     1      35.874 -19.009 -21.557  0.00  0.00    +0.023 C 
ATOM     16  C   UNL     1      33.946 -20.501 -20.330  0.00  0.00    +0.099 C 
ATOM     17  C   UNL     1      36.131 -19.800 -20.448  0.00  0.00    +0.099 C 
ENDBRANCH   9  13
ENDBRANCH   1   4
BRANCH   1  18
ATOM     18  C   UNL     1      32.870 -14.012 -27.747  0.00  0.00    +0.184 C 
BRANCH  18  19
ATOM     19  C   UNL     1      32.906 -12.556 -27.267  0.00  0.00    -0.017 C 
BRANCH  19  20
ATOM     20  N   UNL     1      31.640 -11.910 -27.632  0.00  0.00    +0.384 N 
ATOM     21  H   UNL     1      31.662 -10.931 -27.344  0.00  0.00    -0.089 HD
ATOM     22  H   UNL     1      30.869 -12.384 -27.163  0.00  0.00    -0.089 HD
ATOM     23  H   UNL     1      31.509 -11.964 -28.642  0.00  0.00    -0.089 HD
ENDBRANCH  19  20
BRANCH  19  24
ATOM     24  C   UNL     1      33.114 -12.402 -25.747  0.00  0.00    +0.009 C 
BRANCH  24  26
ATOM     25  N   UNL     1      35.363  -9.555 -25.331  0.00  0.00    -0.312 N 
ATOM     26  C   UNL     1      33.857 -11.152 -25.366  0.00  0.00    -0.008 C 
ATOM     27  C   UNL     1      33.485 -10.253 -24.350  0.00  0.00    +0.011 C 
ATOM     28  C   UNL     1      34.453  -9.246 -24.345  0.00  0.00    +0.048 C 
ATOM     29  C   UNL     1      35.003 -10.718 -25.958  0.00  0.00    +0.058 C 
ATOM     30  C   UNL     1      32.424 -10.177 -23.425  0.00  0.00    +0.001 C 
ATOM     31  C   UNL     1      34.414  -8.164 -23.458  0.00  0.00    +0.015 C 
ATOM     32  C   UNL     1      32.371  -9.101 -22.532  0.00  0.00    +0.000 C 
ATOM     33  C   UNL     1      33.353  -8.111 -22.549  0.00  0.00    +0.001 C 
ATOM     34  H   UNL     1      36.156  -9.018 -25.553  0.00  0.00    +0.152 HD
ENDBRANCH  24  26
ENDBRANCH  19  24
ENDBRANCH  18  19
ENDBRANCH   1  18
TORSDOF 7
ENDMDL
MODEL 7
REMARK VINA RESULT:     -11.4      4.716      8.530
REMARK  Name = 6914614
REMARK  7 active torsions:
REMARK  status: ('A' for Active; 'I' for Inactive)
REMARK    1  A    between atoms: O_1  and  C_4
REMARK    2  A    between atoms: O_1  and  C_18
REMARK    3  A    between atoms: C_9  and  C_13
REMARK    4  A    between atoms: C_18  and  C_19
REMARK    5  A    between atoms: C_19  and  N_20
REMARK    6  A    between atoms: C_19  and  C_24
REMARK    7  A    between atoms: C_24  and  C_26
REMARK                            x       y       z     vdW  Elec       q    Type
REMARK                         _______ _______ _______ _____ _____    ______ ____
ROOT
ATOM      1  O   UNL     1      33.345 -14.481 -26.480  0.00  0.00    -0.476 OA
ENDROOT
BRANCH   1   4
ATOM      2  N   UNL     1      33.475 -18.620 -23.995  0.00  0.00    -0.404 NA
ATOM      3  N   UNL     1      31.834 -17.713 -27.128  0.00  0.00    -0.258 NA
ATOM      4  C   UNL     1      33.014 -15.786 -26.294  0.00  0.00    +0.159 C 
ATOM      5  C   UNL     1      33.453 -16.522 -25.185  0.00  0.00    +0.063 C 
ATOM      6  C   UNL     1      33.080 -17.869 -25.043  0.00  0.00    +0.136 C 
ATOM      7  C   UNL     1      34.265 -15.955 -24.193  0.00  0.00    +0.008 C 
ATOM      8  C   UNL     1      32.215 -16.423 -27.226  0.00  0.00    +0.130 C 
ATOM      9  C   UNL     1      34.258 -18.036 -23.059  0.00  0.00    +0.131 C 
ATOM     10  C   UNL     1      34.678 -16.721 -23.111  0.00  0.00    +0.032 C 
ATOM     11  C   UNL     1      32.277 -18.391 -26.043  0.00  0.00    +0.184 C 
BRANCH   9  13
ATOM     12  N   UNL     1      35.390 -20.570 -19.851  0.00  0.00    -0.242 NA
ATOM     13  C   UNL     1      34.643 -18.898 -21.967  0.00  0.00    +0.033 C 
ATOM     14  C   UNL     1      35.967 -18.937 -21.538  0.00  0.00    +0.023 C 
ATOM     15  C   UNL     1      33.694 -19.697 -21.337  0.00  0.00    +0.023 C 
ATOM     16  C   UNL     1      36.285 -19.780 -20.486  0.00  0.00    +0.099 C 
ATOM     17  C   UNL     1      34.114 -20.507 -20.294  0.00  0.00    +0.099 C 
ENDBRANCH   9  13
ENDBRANCH   1   4
BRANCH   1  18
ATOM     18  C   UNL     1      33.031 -13.903 -27.747  0.00  0.00    +0.184 C 
BRANCH  18  19
ATOM     19  C   UNL     1      33.120 -12.372 -27.713  0.00  0.00    -0.017 C 
BRANCH  19  20
ATOM     20  N   UNL     1      31.786 -11.833 -27.423  0.00  0.00    +0.384 N 
ATOM     21  H   UNL     1      31.564 -11.985 -26.438  0.00  0.00    -0.089 HD
ATOM     22  H   UNL     1      31.094 -12.304 -28.004  0.00  0.00    -0.089 HD
ATOM     23  H   UNL     1      31.773 -10.832 -27.622  0.00  0.00    -0.089 HD
ENDBRANCH  19  20
BRANCH  19  24
ATOM     24  C   UNL     1      34.108 -11.824 -26.665  0.00  0.00    +0.009 C 
BRANCH  24  26
ATOM     25  N   UNL     1      32.675  -9.147 -24.638  0.00  0.00    -0.312 N 
ATOM     26  C   UNL     1      33.465 -10.933 -25.640  0.00  0.00    -0.008 C 
ATOM     27  C   UNL     1      32.951 -11.347 -24.397  0.00  0.00    +0.011 C 
ATOM     28  C   UNL     1      32.454 -10.199 -23.777  0.00  0.00    +0.048 C 
ATOM     29  C   UNL     1      33.291  -9.590 -25.777  0.00  0.00    +0.058 C 
ATOM     30  C   UNL     1      32.850 -12.580 -23.722  0.00  0.00    +0.001 C 
ATOM     31  C   UNL     1      31.859 -10.221 -22.511  0.00  0.00    +0.015 C 
ATOM     32  C   UNL     1      32.257 -12.618 -22.455  0.00  0.00    +0.000 C 
ATOM     33  C   UNL     1      31.770 -11.455 -21.860  0.00  0.00    +0.001 C 
ATOM     34  H   UNL     1      32.425  -8.212 -24.460  0.00  0.00    +0.152 HD
ENDBRANCH  24  26
ENDBRANCH  19  24
ENDBRANCH  18  19
ENDBRANCH   1  18
TORSDOF 7
ENDMDL
MODEL 8
REMARK VINA RESULT:     -11.4      2.928     10.995
REMARK  Name = 6914614
REMARK  7 active torsions:
REMARK  status: ('A' for Active; 'I' for Inactive)
REMARK    1  A    between atoms: O_1  and  C_4
REMARK    2  A    between atoms: O_1  and  C_18
REMARK    3  A    between atoms: C_9  and  C_13
REMARK    4  A    between atoms: C_18  and  C_19
REMARK    5  A    between atoms: C_19  and  N_20
REMARK    6  A    between atoms: C_19  and  C_24
REMARK    7  A    between atoms: C_24  and  C_26
REMARK                            x       y       z     vdW  Elec       q    Type
REMARK                         _______ _______ _______ _____ _____    ______ ____
ROOT
ATOM      1  O   UNL     1      35.353 -18.196 -23.449  0.00  0.00    -0.476 OA
ENDROOT
BRANCH   1   4
ATOM      2  N   UNL     1      33.102 -14.128 -24.754  0.00  0.00    -0.404 NA
ATOM      3  N   UNL     1      33.533 -17.326 -26.462  0.00  0.00    -0.258 NA
ATOM      4  C   UNL     1      34.629 -17.445 -24.320  0.00  0.00    +0.159 C 
ATOM      5  C   UNL     1      34.244 -16.128 -24.038  0.00  0.00    +0.063 C 
ATOM      6  C   UNL     1      33.496 -15.398 -24.976  0.00  0.00    +0.136 C 
ATOM      7  C   UNL     1      34.584 -15.498 -22.834  0.00  0.00    +0.008 C 
ATOM      8  C   UNL     1      34.251 -17.990 -25.534  0.00  0.00    +0.130 C 
ATOM      9  C   UNL     1      33.449 -13.556 -23.578  0.00  0.00    +0.131 C 
ATOM     10  C   UNL     1      34.181 -14.191 -22.595  0.00  0.00    +0.032 C 
ATOM     11  C   UNL     1      33.181 -16.055 -26.154  0.00  0.00    +0.184 C 
BRANCH   9  13
ATOM     12  N   UNL     1      32.113  -9.561 -23.076  0.00  0.00    -0.242 NA
ATOM     13  C   UNL     1      32.994 -12.196 -23.407  0.00  0.00    +0.033 C 
ATOM     14  C   UNL     1      33.488 -11.185 -24.225  0.00  0.00    +0.023 C 
ATOM     15  C   UNL     1      32.060 -11.889 -22.423  0.00  0.00    +0.023 C 
ATOM     16  C   UNL     1      33.019  -9.896 -24.022  0.00  0.00    +0.099 C 
ATOM     17  C   UNL     1      31.655 -10.569 -22.300  0.00  0.00    +0.099 C 
ENDBRANCH   9  13
ENDBRANCH   1   4
BRANCH   1  18
ATOM     18  C   UNL     1      34.741 -19.383 -22.945  0.00  0.00    +0.184 C 
BRANCH  18  19
ATOM     19  C   UNL     1      35.121 -19.643 -21.482  0.00  0.00    -0.017 C 
BRANCH  19  20
ATOM     20  N   UNL     1      35.087 -18.369 -20.755  0.00  0.00    +0.384 N 
ATOM     21  H   UNL     1      36.038 -18.018 -20.639  0.00  0.00    -0.089 HD
ATOM     22  H   UNL     1      34.664 -18.511 -19.839  0.00  0.00    -0.089 HD
ATOM     23  H   UNL     1      34.537 -17.690 -21.283  0.00  0.00    -0.089 HD
ENDBRANCH  19  20
BRANCH  19  24
ATOM     24  C   UNL     1      34.195 -20.643 -20.761  0.00  0.00    +0.009 C 
BRANCH  24  26
ATOM     25  N   UNL     1      36.291 -21.860 -18.030  0.00  0.00    -0.312 N 
ATOM     26  C   UNL     1      34.812 -21.258 -19.537  0.00  0.00    -0.008 C 
ATOM     27  C   UNL     1      34.129 -22.008 -18.561  0.00  0.00    +0.011 C 
ATOM     28  C   UNL     1      35.086 -22.380 -17.614  0.00  0.00    +0.048 C 
ATOM     29  C   UNL     1      36.129 -21.174 -19.204  0.00  0.00    +0.058 C 
ATOM     30  C   UNL     1      32.794 -22.417 -18.373  0.00  0.00    +0.001 C 
ATOM     31  C   UNL     1      34.773 -23.142 -16.483  0.00  0.00    +0.015 C 
ATOM     32  C   UNL     1      32.466 -23.180 -17.247  0.00  0.00    +0.000 C 
ATOM     33  C   UNL     1      33.442 -23.537 -16.317  0.00  0.00    +0.001 C 
ATOM     34  H   UNL     1      37.144 -21.965 -17.553  0.00  0.00    +0.152 HD
ENDBRANCH  24  26
ENDBRANCH  19  24
ENDBRANCH  18  19
ENDBRANCH   1  18
TORSDOF 7
ENDMDL
MODEL 9
REMARK VINA RESULT:     -11.4      1.864     10.680
REMARK  Name = 6914614
REMARK  7 active torsions:
REMARK  status: ('A' for Active; 'I' for Inactive)
REMARK    1  A    between atoms: O_1  and  C_4
REMARK    2  A    between atoms: O_1  and  C_18
REMARK    3  A    between atoms: C_9  and  C_13
REMARK    4  A    between atoms: C_18  and  C_19
REMARK    5  A    between atoms: C_19  and  N_20
REMARK    6  A    between atoms: C_19  and  C_24
REMARK    7  A    between atoms: C_24  and  C_26
REMARK                            x       y       z     vdW  Elec       q    Type
REMARK                         _______ _______ _______ _____ _____    ______ ____
ROOT
ATOM      1  O   UNL     1      32.808 -22.448 -18.048  0.00  0.00    -0.476 OA
ENDROOT
BRANCH   1   4
ATOM      2  N   UNL     1      35.217 -19.769 -21.263  0.00  0.00    -0.404 NA
ATOM      3  N   UNL     1      36.361 -21.904 -18.531  0.00  0.00    -0.258 NA
ATOM      4  C   UNL     1      33.954 -21.960 -18.595  0.00  0.00    +0.159 C 
ATOM      5  C   UNL     1      33.951 -21.086 -19.689  0.00  0.00    +0.063 C 
ATOM      6  C   UNL     1      35.165 -20.612 -20.213  0.00  0.00    +0.136 C 
ATOM      7  C   UNL     1      32.762 -20.656 -20.292  0.00  0.00    +0.008 C 
ATOM      8  C   UNL     1      35.173 -22.334 -18.060  0.00  0.00    +0.130 C 
ATOM      9  C   UNL     1      34.047 -19.378 -21.818  0.00  0.00    +0.131 C 
ATOM     10  C   UNL     1      32.805 -19.788 -21.375  0.00  0.00    +0.032 C 
ATOM     11  C   UNL     1      36.318 -21.059 -19.588  0.00  0.00    +0.184 C 
BRANCH   9  13
ATOM     12  N   UNL     1      34.433 -16.729 -25.108  0.00  0.00    -0.242 NA
ATOM     13  C   UNL     1      34.178 -18.476 -22.938  0.00  0.00    +0.033 C 
ATOM     14  C   UNL     1      33.862 -18.906 -24.223  0.00  0.00    +0.023 C 
ATOM     15  C   UNL     1      34.622 -17.172 -22.739  0.00  0.00    +0.023 C 
ATOM     16  C   UNL     1      34.004 -18.002 -25.264  0.00  0.00    +0.099 C 
ATOM     17  C   UNL     1      34.731 -16.346 -23.847  0.00  0.00    +0.099 C 
ENDBRANCH   9  13
ENDBRANCH   1   4
BRANCH   1  18
ATOM     18  C   UNL     1      32.898 -23.685 -17.342  0.00  0.00    +0.184 C 
BRANCH  18  19
ATOM     19  C   UNL     1      32.969 -23.470 -15.825  0.00  0.00    -0.017 C 
BRANCH  19  20
ATOM     20  N   UNL     1      31.631 -23.112 -15.339  0.00  0.00    +0.384 N 
ATOM     21  H   UNL     1      30.933 -23.689 -15.808  0.00  0.00    -0.089 HD
ATOM     22  H   UNL     1      31.449 -22.129 -15.539  0.00  0.00    -0.089 HD
ATOM     23  H   UNL     1      31.582 -23.269 -14.332  0.00  0.00    -0.089 HD
ENDBRANCH  19  20
BRANCH  19  24
ATOM     24  C   UNL     1      33.461 -24.702 -15.039  0.00  0.00    +0.009 C 
BRANCH  24  26
ATOM     25  N   UNL     1      35.673 -23.516 -12.387  0.00  0.00    -0.312 N 
ATOM     26  C   UNL     1      34.565 -24.393 -14.067  0.00  0.00    -0.008 C 
ATOM     27  C   UNL     1      35.855 -24.955 -14.082  0.00  0.00    +0.011 C 
ATOM     28  C   UNL     1      36.542 -24.386 -13.008  0.00  0.00    +0.048 C 
ATOM     29  C   UNL     1      34.464 -23.517 -13.030  0.00  0.00    +0.058 C 
ATOM     30  C   UNL     1      36.523 -25.894 -14.894  0.00  0.00    +0.001 C 
ATOM     31  C   UNL     1      37.869 -24.709 -12.703  0.00  0.00    +0.015 C 
ATOM     32  C   UNL     1      37.851 -26.226 -14.601  0.00  0.00    +0.000 C 
ATOM     33  C   UNL     1      38.512 -25.642 -13.522  0.00  0.00    +0.001 C 
ATOM     34  H   UNL     1      35.890 -22.974 -11.595  0.00  0.00    +0.152 HD
ENDBRANCH  24  26
ENDBRANCH  19  24
ENDBRANCH  18  19
ENDBRANCH   1  18
TORSDOF 7
ENDMDL
