MODEL 1
REMARK VINA RESULT:     -11.8      0.000      0.000
REMARK  Name = 11234049
REMARK  5 active torsions:
REMARK  status: ('A' for Active; 'I' for Inactive)
REMARK    1  A    between atoms: C_2  and  N_10
REMARK    2  A    between atoms: C_5  and  C_18
REMARK    3  A    between atoms: C_11  and  C_14
REMARK    4  A    between atoms: C_14  and  O_15
REMARK    5  A    between atoms: C_22  and  C_27
REMARK                            x       y       z     vdW  Elec       q    Type
REMARK                         _______ _______ _______ _____ _____    ______ ____
ROOT
ATOM      1  F   UNL     1      32.692 -22.855 -18.062  0.00  0.00    -0.204 F 
ATOM      2  C   UNL     1      35.302 -23.498 -15.609  0.00  0.00    +0.059 C 
ATOM      3  C   UNL     1      34.070 -23.536 -16.271  0.00  0.00    +0.045 C 
ATOM      4  C   UNL     1      36.341 -22.723 -16.132  0.00  0.00    +0.015 C 
ATOM      5  C   UNL     1      34.921 -22.033 -17.960  0.00  0.00    +0.029 C 
ATOM      6  C   UNL     1      33.880 -22.806 -17.443  0.00  0.00    +0.141 C 
ATOM      7  C   UNL     1      36.152 -21.993 -17.305  0.00  0.00    +0.004 C 
ENDROOT
BRANCH   2  10
ATOM      8  O   UNL     1      36.281 -25.721 -12.896  0.00  0.00    -0.434 OA
ATOM      9  O   UNL     1      37.253 -25.734 -14.944  0.00  0.00    -0.226 OA
ATOM     10  N   UNL     1      35.496 -24.243 -14.411  0.00  0.00    -0.221 N 
ATOM     11  C   UNL     1      35.395 -24.849 -12.180  0.00  0.00    +0.220 C 
ATOM     12  C   UNL     1      34.639 -24.110 -13.263  0.00  0.00    +0.148 C 
ATOM     13  C   UNL     1      36.426 -25.254 -14.184  0.00  0.00    +0.409 C 
BRANCH  11  14
ATOM     14  C   UNL     1      36.220 -23.930 -11.290  0.00  0.00    +0.183 C 
BRANCH  14  15
ATOM     15  O   UNL     1      35.927 -24.226  -9.936  0.00  0.00    -0.378 OA
ATOM     16  H   UNL     1      35.015 -24.549  -9.867  0.00  0.00    +0.211 HD
ENDBRANCH  14  15
ENDBRANCH  11  14
ENDBRANCH   2  10
BRANCH   5  18
ATOM     17  N   UNL     1      35.701 -20.068 -21.031  0.00  0.00    -0.234 NA
ATOM     18  C   UNL     1      34.729 -21.273 -19.177  0.00  0.00    +0.021 C 
ATOM     19  C   UNL     1      33.454 -21.016 -19.664  0.00  0.00    +0.004 C 
ATOM     20  C   UNL     1      35.811 -20.783 -19.888  0.00  0.00    +0.100 C 
ATOM     21  C   UNL     1      33.301 -20.283 -20.836  0.00  0.00    +0.029 C 
ATOM     22  C   UNL     1      34.445 -19.836 -21.475  0.00  0.00    +0.146 C 
BRANCH  22  27
ATOM     23  N   UNL     1      33.259 -19.062 -23.461  0.00  0.00    -0.105 NA
ATOM     24  N   UNL     1      33.686 -18.228 -24.419  0.00  0.00    -0.113 N 
ATOM     25  N   UNL     1      35.367 -18.297 -23.146  0.00  0.00    -0.085 NA
ATOM     26  N   UNL     1      34.930 -17.749 -24.272  0.00  0.00    -0.018 NA
ATOM     27  C   UNL     1      34.347 -19.074 -22.687  0.00  0.00    +0.092 C 
ATOM     28  C   UNL     1      32.858 -17.866 -25.540  0.00  0.00    +0.163 C 
ENDBRANCH  22  27
ENDBRANCH   5  18
TORSDOF 5
ENDMDL
MODEL 2
REMARK VINA RESULT:     -11.2      1.256      2.006
REMARK  Name = 11234049
REMARK  5 active torsions:
REMARK  status: ('A' for Active; 'I' for Inactive)
REMARK    1  A    between atoms: C_2  and  N_10
REMARK    2  A    between atoms: C_5  and  C_18
REMARK    3  A    between atoms: C_11  and  C_14
REMARK    4  A    between atoms: C_14  and  O_15
REMARK    5  A    between atoms: C_22  and  C_27
REMARK                            x       y       z     vdW  Elec       q    Type
REMARK                         _______ _______ _______ _____ _____    ______ ____
ROOT
ATOM      1  F   UNL     1      32.804 -22.476 -18.736  0.00  0.00    -0.204 F 
ATOM      2  C   UNL     1      35.541 -23.068 -16.412  0.00  0.00    +0.059 C 
ATOM      3  C   UNL     1      34.286 -23.143 -17.023  0.00  0.00    +0.045 C 
ATOM      4  C   UNL     1      36.523 -22.233 -16.954  0.00  0.00    +0.015 C 
ATOM      5  C   UNL     1      34.998 -21.559 -18.702  0.00  0.00    +0.029 C 
ATOM      6  C   UNL     1      34.014 -22.391 -18.165  0.00  0.00    +0.141 C 
ATOM      7  C   UNL     1      36.252 -21.481 -18.097  0.00  0.00    +0.004 C 
ENDROOT
BRANCH   2  10
ATOM      8  O   UNL     1      35.599 -24.921 -13.278  0.00  0.00    -0.434 OA
ATOM      9  O   UNL     1      33.755 -23.879 -14.088  0.00  0.00    -0.226 OA
ATOM     10  N   UNL     1      35.818 -23.836 -15.245  0.00  0.00    -0.221 N 
ATOM     11  C   UNL     1      36.889 -25.282 -13.790  0.00  0.00    +0.220 C 
ATOM     12  C   UNL     1      37.139 -24.293 -14.907  0.00  0.00    +0.148 C 
ATOM     13  C   UNL     1      34.933 -24.174 -14.224  0.00  0.00    +0.409 C 
BRANCH  11  14
ATOM     14  C   UNL     1      36.842 -26.727 -14.267  0.00  0.00    +0.183 C 
BRANCH  14  15
ATOM     15  O   UNL     1      37.398 -26.793 -15.569  0.00  0.00    -0.378 OA
ATOM     16  H   UNL     1      38.266 -27.224 -15.527  0.00  0.00    +0.211 HD
ENDBRANCH  14  15
ENDBRANCH  11  14
ENDBRANCH   2  10
BRANCH   5  18
ATOM     17  N   UNL     1      35.560 -19.479 -21.745  0.00  0.00    -0.234 NA
ATOM     18  C   UNL     1      34.721 -20.775 -19.888  0.00  0.00    +0.021 C 
ATOM     19  C   UNL     1      33.417 -20.561 -20.313  0.00  0.00    +0.004 C 
ATOM     20  C   UNL     1      35.749 -20.219 -20.629  0.00  0.00    +0.100 C 
ATOM     21  C   UNL     1      33.182 -19.805 -21.456  0.00  0.00    +0.029 C 
ATOM     22  C   UNL     1      34.278 -19.290 -22.129  0.00  0.00    +0.146 C 
BRANCH  22  27
ATOM     23  N   UNL     1      33.045 -18.630 -24.128  0.00  0.00    -0.105 NA
ATOM     24  N   UNL     1      33.360 -17.696 -25.035  0.00  0.00    -0.113 N 
ATOM     25  N   UNL     1      34.990 -17.551 -23.703  0.00  0.00    -0.085 NA
ATOM     26  N   UNL     1      34.505 -17.031 -24.823  0.00  0.00    -0.018 NA
ATOM     27  C   UNL     1      34.095 -18.501 -23.314  0.00  0.00    +0.092 C 
ATOM     28  C   UNL     1      32.520 -17.423 -26.172  0.00  0.00    +0.163 C 
ENDBRANCH  22  27
ENDBRANCH   5  18
TORSDOF 5
ENDMDL
MODEL 3
REMARK VINA RESULT:     -11.2      6.497     11.585
REMARK  Name = 11234049
REMARK  5 active torsions:
REMARK  status: ('A' for Active; 'I' for Inactive)
REMARK    1  A    between atoms: C_2  and  N_10
REMARK    2  A    between atoms: C_5  and  C_18
REMARK    3  A    between atoms: C_11  and  C_14
REMARK    4  A    between atoms: C_14  and  O_15
REMARK    5  A    between atoms: C_22  and  C_27
REMARK                            x       y       z     vdW  Elec       q    Type
REMARK                         _______ _______ _______ _____ _____    ______ ____
ROOT
ATOM      1  F   UNL     1      34.915 -16.539 -21.762  0.00  0.00    -0.204 F 
ATOM      2  C   UNL     1      33.559 -16.948 -25.115  0.00  0.00    +0.059 C 
ATOM      3  C   UNL     1      34.086 -16.351 -23.964  0.00  0.00    +0.045 C 
ATOM      4  C   UNL     1      33.364 -18.333 -25.144  0.00  0.00    +0.015 C 
ATOM      5  C   UNL     1      34.215 -18.512 -22.891  0.00  0.00    +0.029 C 
ATOM      6  C   UNL     1      34.413 -17.130 -22.855  0.00  0.00    +0.141 C 
ATOM      7  C   UNL     1      33.693 -19.112 -24.036  0.00  0.00    +0.004 C 
ENDROOT
BRANCH   2  10
ATOM      8  O   UNL     1      32.299 -15.428 -28.174  0.00  0.00    -0.434 OA
ATOM      9  O   UNL     1      31.660 -17.474 -27.431  0.00  0.00    -0.226 OA
ATOM     10  N   UNL     1      33.225 -16.152 -26.247  0.00  0.00    -0.221 N 
ATOM     11  C   UNL     1      33.011 -14.309 -27.629  0.00  0.00    +0.220 C 
ATOM     12  C   UNL     1      33.882 -14.909 -26.547  0.00  0.00    +0.148 C 
ATOM     13  C   UNL     1      32.329 -16.465 -27.267  0.00  0.00    +0.409 C 
BRANCH  11  14
ATOM     14  C   UNL     1      32.005 -13.297 -27.097  0.00  0.00    +0.183 C 
BRANCH  14  15
ATOM     15  O   UNL     1      31.804 -12.298 -28.081  0.00  0.00    -0.378 OA
ATOM     16  H   UNL     1      31.216 -11.611 -27.729  0.00  0.00    +0.211 HD
ENDBRANCH  14  15
ENDBRANCH  11  14
ENDBRANCH   2  10
BRANCH   5  18
ATOM     17  N   UNL     1      33.817 -20.744 -19.932  0.00  0.00    -0.234 NA
ATOM     18  C   UNL     1      34.554 -19.326 -21.742  0.00  0.00    +0.021 C 
ATOM     19  C   UNL     1      35.874 -19.482 -21.342  0.00  0.00    +0.004 C 
ATOM     20  C   UNL     1      33.570 -19.970 -21.013  0.00  0.00    +0.100 C 
ATOM     21  C   UNL     1      36.168 -20.269 -20.235  0.00  0.00    +0.029 C 
ATOM     22  C   UNL     1      35.113 -20.873 -19.570  0.00  0.00    +0.146 C 
BRANCH  22  27
ATOM     23  N   UNL     1      36.485 -21.645 -17.706  0.00  0.00    -0.105 NA
ATOM     24  N   UNL     1      36.201 -22.580 -16.789  0.00  0.00    -0.113 N 
ATOM     25  N   UNL     1      34.449 -22.604 -17.966  0.00  0.00    -0.085 NA
ATOM     26  N   UNL     1      35.004 -23.174 -16.904  0.00  0.00    -0.018 NA
ATOM     27  C   UNL     1      35.358 -21.697 -18.420  0.00  0.00    +0.092 C 
ATOM     28  C   UNL     1      37.125 -22.927 -15.742  0.00  0.00    +0.163 C 
ENDBRANCH  22  27
ENDBRANCH   5  18
TORSDOF 5
ENDMDL
MODEL 4
REMARK VINA RESULT:     -11.1      2.873      4.712
REMARK  Name = 11234049
REMARK  5 active torsions:
REMARK  status: ('A' for Active; 'I' for Inactive)
REMARK    1  A    between atoms: C_2  and  N_10
REMARK    2  A    between atoms: C_5  and  C_18
REMARK    3  A    between atoms: C_11  and  C_14
REMARK    4  A    between atoms: C_14  and  O_15
REMARK    5  A    between atoms: C_22  and  C_27
REMARK                            x       y       z     vdW  Elec       q    Type
REMARK                         _______ _______ _______ _____ _____    ______ ____
ROOT
ATOM      1  F   UNL     1      36.428 -19.444 -21.382  0.00  0.00    -0.204 F 
ATOM      2  C   UNL     1      34.289 -21.415 -19.195  0.00  0.00    +0.059 C 
ATOM      3  C   UNL     1      35.434 -20.859 -19.775  0.00  0.00    +0.045 C 
ATOM      4  C   UNL     1      33.029 -21.069 -19.691  0.00  0.00    +0.015 C 
ATOM      5  C   UNL     1      34.058 -19.624 -21.330  0.00  0.00    +0.029 C 
ATOM      6  C   UNL     1      35.319 -19.965 -20.840  0.00  0.00    +0.141 C 
ATOM      7  C   UNL     1      32.913 -20.175 -20.754  0.00  0.00    +0.004 C 
ENDROOT
BRANCH   2  10
ATOM      8  O   UNL     1      35.187 -23.449 -16.312  0.00  0.00    -0.434 OA
ATOM      9  O   UNL     1      36.506 -21.805 -17.149  0.00  0.00    -0.226 OA
ATOM     10  N   UNL     1      34.407 -22.328 -18.109  0.00  0.00    -0.221 N 
ATOM     11  C   UNL     1      33.826 -23.868 -16.483  0.00  0.00    +0.220 C 
ATOM     12  C   UNL     1      33.452 -23.375 -17.863  0.00  0.00    +0.148 C 
ATOM     13  C   UNL     1      35.461 -22.437 -17.204  0.00  0.00    +0.409 C 
BRANCH  11  14
ATOM     14  C   UNL     1      32.979 -23.253 -15.377  0.00  0.00    +0.183 C 
BRANCH  14  15
ATOM     15  O   UNL     1      32.703 -24.252 -14.409  0.00  0.00    -0.378 OA
ATOM     16  H   UNL     1      32.353 -25.041 -14.851  0.00  0.00    +0.211 HD
ENDBRANCH  14  15
ENDBRANCH  11  14
ENDBRANCH   2  10
BRANCH   5  18
ATOM     17  N   UNL     1      33.075 -18.223 -24.642  0.00  0.00    -0.234 NA
ATOM     18  C   UNL     1      33.933 -18.696 -22.435  0.00  0.00    +0.021 C 
ATOM     19  C   UNL     1      34.514 -17.437 -22.378  0.00  0.00    +0.004 C 
ATOM     20  C   UNL     1      33.230 -19.041 -23.576  0.00  0.00    +0.100 C 
ATOM     21  C   UNL     1      34.377 -16.568 -23.455  0.00  0.00    +0.029 C 
ATOM     22  C   UNL     1      33.654 -17.005 -24.553  0.00  0.00    +0.146 C 
BRANCH  22  27
ATOM     23  N   UNL     1      33.419 -14.820 -25.611  0.00  0.00    -0.105 NA
ATOM     24  N   UNL     1      33.258 -14.532 -26.910  0.00  0.00    -0.113 N 
ATOM     25  N   UNL     1      33.366 -16.638 -26.960  0.00  0.00    -0.085 NA
ATOM     26  N   UNL     1      33.222 -15.579 -27.746  0.00  0.00    -0.018 NA
ATOM     27  C   UNL     1      33.482 -16.151 -25.693  0.00  0.00    +0.092 C 
ATOM     28  C   UNL     1      33.131 -13.177 -27.381  0.00  0.00    +0.163 C 
ENDBRANCH  22  27
ENDBRANCH   5  18
TORSDOF 5
ENDMDL
MODEL 5
REMARK VINA RESULT:     -11.0      1.285      1.678
REMARK  Name = 11234049
REMARK  5 active torsions:
REMARK  status: ('A' for Active; 'I' for Inactive)
REMARK    1  A    between atoms: C_2  and  N_10
REMARK    2  A    between atoms: C_5  and  C_18
REMARK    3  A    between atoms: C_11  and  C_14
REMARK    4  A    between atoms: C_14  and  O_15
REMARK    5  A    between atoms: C_22  and  C_27
REMARK                            x       y       z     vdW  Elec       q    Type
REMARK                         _______ _______ _______ _____ _____    ______ ____
ROOT
ATOM      1  F   UNL     1      32.943 -22.265 -19.042  0.00  0.00    -0.204 F 
ATOM      2  C   UNL     1      35.597 -22.899 -16.634  0.00  0.00    +0.059 C 
ATOM      3  C   UNL     1      34.363 -22.961 -17.289  0.00  0.00    +0.045 C 
ATOM      4  C   UNL     1      36.599 -22.060 -17.131  0.00  0.00    +0.015 C 
ATOM      5  C   UNL     1      35.137 -21.356 -18.921  0.00  0.00    +0.029 C 
ATOM      6  C   UNL     1      34.133 -22.192 -18.429  0.00  0.00    +0.141 C 
ATOM      7  C   UNL     1      36.370 -21.291 -18.272  0.00  0.00    +0.004 C 
ENDROOT
BRANCH   2  10
ATOM      8  O   UNL     1      36.849 -24.810 -13.799  0.00  0.00    -0.434 OA
ATOM      9  O   UNL     1      38.190 -23.789 -15.316  0.00  0.00    -0.226 OA
ATOM     10  N   UNL     1      35.831 -23.684 -15.469  0.00  0.00    -0.221 N 
ATOM     11  C   UNL     1      35.456 -24.770 -13.461  0.00  0.00    +0.220 C 
ATOM     12  C   UNL     1      34.773 -24.325 -14.736  0.00  0.00    +0.148 C 
ATOM     13  C   UNL     1      37.061 -24.042 -14.922  0.00  0.00    +0.409 C 
BRANCH  11  14
ATOM     14  C   UNL     1      35.257 -23.800 -12.304  0.00  0.00    +0.183 C 
BRANCH  14  15
ATOM     15  O   UNL     1      33.868 -23.580 -12.130  0.00  0.00    -0.378 OA
ATOM     16  H   UNL     1      33.545 -22.992 -12.830  0.00  0.00    +0.211 HD
ENDBRANCH  14  15
ENDBRANCH  11  14
ENDBRANCH   2  10
BRANCH   5  18
ATOM     17  N   UNL     1      33.341 -19.667 -21.717  0.00  0.00    -0.234 NA
ATOM     18  C   UNL     1      34.904 -20.555 -20.104  0.00  0.00    +0.021 C 
ATOM     19  C   UNL     1      35.954 -19.922 -20.755  0.00  0.00    +0.004 C 
ATOM     20  C   UNL     1      33.628 -20.400 -20.617  0.00  0.00    +0.100 C 
ATOM     21  C   UNL     1      35.699 -19.159 -21.890  0.00  0.00    +0.029 C 
ATOM     22  C   UNL     1      34.387 -19.064 -22.326  0.00  0.00    +0.146 C 
BRANCH  22  27
ATOM     23  N   UNL     1      33.032 -18.563 -24.291  0.00  0.00    -0.105 NA
ATOM     24  N   UNL     1      33.187 -17.576 -25.185  0.00  0.00    -0.113 N 
ATOM     25  N   UNL     1      34.800 -17.211 -23.875  0.00  0.00    -0.085 NA
ATOM     26  N   UNL     1      34.222 -16.750 -24.977  0.00  0.00    -0.018 NA
ATOM     27  C   UNL     1      34.066 -18.292 -23.492  0.00  0.00    +0.092 C 
ATOM     28  C   UNL     1      32.295 -17.413 -26.303  0.00  0.00    +0.163 C 
ENDBRANCH  22  27
ENDBRANCH   5  18
TORSDOF 5
ENDMDL
MODEL 6
REMARK VINA RESULT:     -10.7      5.265     10.300
REMARK  Name = 11234049
REMARK  5 active torsions:
REMARK  status: ('A' for Active; 'I' for Inactive)
REMARK    1  A    between atoms: C_2  and  N_10
REMARK    2  A    between atoms: C_5  and  C_18
REMARK    3  A    between atoms: C_11  and  C_14
REMARK    4  A    between atoms: C_14  and  O_15
REMARK    5  A    between atoms: C_22  and  C_27
REMARK                            x       y       z     vdW  Elec       q    Type
REMARK                         _______ _______ _______ _____ _____    ______ ____
ROOT
ATOM      1  F   UNL     1      36.847 -20.004 -20.501  0.00  0.00    -0.204 F 
ATOM      2  C   UNL     1      34.443 -18.773 -22.939  0.00  0.00    +0.059 C 
ATOM      3  C   UNL     1      35.650 -18.999 -22.269  0.00  0.00    +0.045 C 
ATOM      4  C   UNL     1      33.268 -19.357 -22.458  0.00  0.00    +0.015 C 
ATOM      5  C   UNL     1      34.504 -20.381 -20.653  0.00  0.00    +0.029 C 
ATOM      6  C   UNL     1      35.681 -19.801 -21.129  0.00  0.00    +0.141 C 
ATOM      7  C   UNL     1      33.298 -20.160 -21.318  0.00  0.00    +0.004 C 
ENDROOT
BRANCH   2  10
ATOM      8  O   UNL     1      34.205 -17.249 -26.238  0.00  0.00    -0.434 OA
ATOM      9  O   UNL     1      33.856 -19.455 -25.845  0.00  0.00    -0.226 OA
ATOM     10  N   UNL     1      34.412 -17.953 -24.103  0.00  0.00    -0.221 N 
ATOM     11  C   UNL     1      34.326 -16.065 -25.438  0.00  0.00    +0.220 C 
ATOM     12  C   UNL     1      34.799 -16.567 -24.092  0.00  0.00    +0.148 C 
ATOM     13  C   UNL     1      34.122 -18.345 -25.408  0.00  0.00    +0.409 C 
BRANCH  11  14
ATOM     14  C   UNL     1      32.972 -15.371 -25.378  0.00  0.00    +0.183 C 
BRANCH  14  15
ATOM     15  O   UNL     1      32.963 -14.489 -24.269  0.00  0.00    -0.378 OA
ATOM     16  H   UNL     1      33.874 -14.253 -24.037  0.00  0.00    +0.211 HD
ENDBRANCH  14  15
ENDBRANCH  11  14
ENDBRANCH   2  10
BRANCH   5  18
ATOM     17  N   UNL     1      35.799 -22.175 -17.652  0.00  0.00    -0.234 NA
ATOM     18  C   UNL     1      34.531 -21.215 -19.469  0.00  0.00    +0.021 C 
ATOM     19  C   UNL     1      33.379 -21.839 -19.011  0.00  0.00    +0.004 C 
ATOM     20  C   UNL     1      35.705 -21.411 -18.764  0.00  0.00    +0.100 C 
ATOM     21  C   UNL     1      33.435 -22.634 -17.871  0.00  0.00    +0.029 C 
ATOM     22  C   UNL     1      34.658 -22.768 -17.234  0.00  0.00    +0.146 C 
BRANCH  22  27
ATOM     23  N   UNL     1      35.917 -24.147 -15.664  0.00  0.00    -0.105 NA
ATOM     24  N   UNL     1      35.484 -24.759 -14.554  0.00  0.00    -0.113 N 
ATOM     25  N   UNL     1      33.717 -23.828 -15.234  0.00  0.00    -0.085 NA
ATOM     26  N   UNL     1      34.186 -24.597 -14.260  0.00  0.00    -0.018 NA
ATOM     27  C   UNL     1      34.775 -23.577 -16.054  0.00  0.00    +0.092 C 
ATOM     28  C   UNL     1      36.360 -25.546 -13.725  0.00  0.00    +0.163 C 
ENDBRANCH  22  27
ENDBRANCH   5  18
TORSDOF 5
ENDMDL
MODEL 7
REMARK VINA RESULT:     -10.5      5.421      6.716
REMARK  Name = 11234049
REMARK  5 active torsions:
REMARK  status: ('A' for Active; 'I' for Inactive)
REMARK    1  A    between atoms: C_2  and  N_10
REMARK    2  A    between atoms: C_5  and  C_18
REMARK    3  A    between atoms: C_11  and  C_14
REMARK    4  A    between atoms: C_14  and  O_15
REMARK    5  A    between atoms: C_22  and  C_27
REMARK                            x       y       z     vdW  Elec       q    Type
REMARK                         _______ _______ _______ _____ _____    ______ ____
ROOT
ATOM      1  F   UNL     1      34.440 -22.587 -17.110  0.00  0.00    -0.204 F 
ATOM      2  C   UNL     1      36.341 -24.158 -14.435  0.00  0.00    +0.059 C 
ATOM      3  C   UNL     1      36.036 -23.495 -15.628  0.00  0.00    +0.045 C 
ATOM      4  C   UNL     1      35.305 -24.545 -13.578  0.00  0.00    +0.015 C 
ATOM      5  C   UNL     1      33.681 -23.611 -15.103  0.00  0.00    +0.029 C 
ATOM      6  C   UNL     1      34.711 -23.222 -15.962  0.00  0.00    +0.141 C 
ATOM      7  C   UNL     1      33.979 -24.271 -13.911  0.00  0.00    +0.004 C 
ENDROOT
BRANCH   2  10
ATOM      8  O   UNL     1      39.557 -25.000 -12.949  0.00  0.00    -0.434 OA
ATOM      9  O   UNL     1      37.599 -25.026 -11.805  0.00  0.00    -0.226 OA
ATOM     10  N   UNL     1      37.695 -24.438 -14.095  0.00  0.00    -0.221 N 
ATOM     11  C   UNL     1      39.945 -24.923 -14.328  0.00  0.00    +0.220 C 
ATOM     12  C   UNL     1      38.788 -24.224 -15.006  0.00  0.00    +0.148 C 
ATOM     13  C   UNL     1      38.192 -24.843 -12.858  0.00  0.00    +0.409 C 
BRANCH  11  14
ATOM     14  C   UNL     1      40.185 -26.332 -14.852  0.00  0.00    +0.183 C 
BRANCH  14  15
ATOM     15  O   UNL     1      40.221 -26.290 -16.268  0.00  0.00    -0.378 OA
ATOM     16  H   UNL     1      40.970 -26.817 -16.587  0.00  0.00    +0.211 HD
ENDBRANCH  14  15
ENDBRANCH  11  14
ENDBRANCH   2  10
BRANCH   5  18
ATOM     17  N   UNL     1      30.016 -23.043 -14.721  0.00  0.00    -0.234 NA
ATOM     18  C   UNL     1      32.303 -23.330 -15.444  0.00  0.00    +0.021 C 
ATOM     19  C   UNL     1      31.930 -23.081 -16.758  0.00  0.00    +0.004 C 
ATOM     20  C   UNL     1      31.320 -23.300 -14.470  0.00  0.00    +0.100 C 
ATOM     21  C   UNL     1      30.598 -22.814 -17.056  0.00  0.00    +0.029 C 
ATOM     22  C   UNL     1      29.689 -22.807 -16.011  0.00  0.00    +0.146 C 
BRANCH  22  27
ATOM     23  N   UNL     1      27.849 -22.005 -17.397  0.00  0.00    -0.105 NA
ATOM     24  N   UNL     1      26.540 -21.970 -17.112  0.00  0.00    -0.113 N 
ATOM     25  N   UNL     1      27.330 -22.808 -15.344  0.00  0.00    -0.085 NA
ATOM     26  N   UNL     1      26.187 -22.436 -15.905  0.00  0.00    -0.018 NA
ATOM     27  C   UNL     1      28.301 -22.538 -16.260  0.00  0.00    +0.092 C 
ATOM     28  C   UNL     1      25.569 -21.460 -18.045  0.00  0.00    +0.163 C 
ENDBRANCH  22  27
ENDBRANCH   5  18
TORSDOF 5
ENDMDL
MODEL 8
REMARK VINA RESULT:      -9.9      4.755     10.229
REMARK  Name = 11234049
REMARK  5 active torsions:
REMARK  status: ('A' for Active; 'I' for Inactive)
REMARK    1  A    between atoms: C_2  and  N_10
REMARK    2  A    between atoms: C_5  and  C_18
REMARK    3  A    between atoms: C_11  and  C_14
REMARK    4  A    between atoms: C_14  and  O_15
REMARK    5  A    between atoms: C_22  and  C_27
REMARK                            x       y       z     vdW  Elec       q    Type
REMARK                         _______ _______ _______ _____ _____    ______ ____
ROOT
ATOM      1  F   UNL     1      37.081 -20.375 -19.899  0.00  0.00    -0.204 F 
ATOM      2  C   UNL     1      34.142 -19.353 -21.786  0.00  0.00    +0.059 C 
ATOM      3  C   UNL     1      35.474 -19.481 -21.379  0.00  0.00    +0.045 C 
ATOM      4  C   UNL     1      33.138 -20.018 -21.075  0.00  0.00    +0.015 C 
ATOM      5  C   UNL     1      34.792 -20.926 -19.568  0.00  0.00    +0.029 C 
ATOM      6  C   UNL     1      35.799 -20.266 -20.273  0.00  0.00    +0.141 C 
ATOM      7  C   UNL     1      33.462 -20.803 -19.970  0.00  0.00    +0.004 C 
ENDROOT
BRANCH   2  10
ATOM      8  O   UNL     1      33.616 -16.810 -24.338  0.00  0.00    -0.434 OA
ATOM      9  O   UNL     1      34.723 -16.430 -22.396  0.00  0.00    -0.226 OA
ATOM     10  N   UNL     1      33.810 -18.551 -22.915  0.00  0.00    -0.221 N 
ATOM     11  C   UNL     1      33.154 -17.963 -25.054  0.00  0.00    +0.220 C 
ATOM     12  C   UNL     1      32.976 -19.021 -23.988  0.00  0.00    +0.148 C 
ATOM     13  C   UNL     1      34.125 -17.210 -23.123  0.00  0.00    +0.409 C 
BRANCH  11  14
ATOM     14  C   UNL     1      34.191 -18.339 -26.104  0.00  0.00    +0.183 C 
BRANCH  14  15
ATOM     15  O   UNL     1      34.824 -17.156 -26.560  0.00  0.00    -0.378 OA
ATOM     16  H   UNL     1      35.480 -16.869 -25.907  0.00  0.00    +0.211 HD
ENDBRANCH  14  15
ENDBRANCH  11  14
ENDBRANCH   2  10
BRANCH   5  18
ATOM     17  N   UNL     1      34.466 -23.453 -16.845  0.00  0.00    -0.234 NA
ATOM     18  C   UNL     1      35.123 -21.742 -18.418  0.00  0.00    +0.021 C 
ATOM     19  C   UNL     1      36.358 -21.626 -17.794  0.00  0.00    +0.004 C 
ATOM     20  C   UNL     1      34.219 -22.661 -17.913  0.00  0.00    +0.100 C 
ATOM     21  C   UNL     1      36.648 -22.423 -16.692  0.00  0.00    +0.029 C 
ATOM     22  C   UNL     1      35.677 -23.313 -16.261  0.00  0.00    +0.146 C 
BRANCH  22  27
ATOM     23  N   UNL     1      35.780 -23.755 -13.864  0.00  0.00    -0.105 NA
ATOM     24  N   UNL     1      36.121 -24.889 -13.236  0.00  0.00    -0.113 N 
ATOM     25  N   UNL     1      36.322 -25.455 -15.259  0.00  0.00    -0.085 NA
ATOM     26  N   UNL     1      36.449 -25.923 -14.024  0.00  0.00    -0.018 NA
ATOM     27  C   UNL     1      35.922 -24.159 -15.128  0.00  0.00    +0.092 C 
ATOM     28  C   UNL     1      36.134 -24.992 -11.801  0.00  0.00    +0.163 C 
ENDBRANCH  22  27
ENDBRANCH   5  18
TORSDOF 5
ENDMDL
MODEL 9
REMARK VINA RESULT:      -9.8     10.399     14.235
REMARK  Name = 11234049
REMARK  5 active torsions:
REMARK  status: ('A' for Active; 'I' for Inactive)
REMARK    1  A    between atoms: C_2  and  N_10
REMARK    2  A    between atoms: C_5  and  C_18
REMARK    3  A    between atoms: C_11  and  C_14
REMARK    4  A    between atoms: C_14  and  O_15
REMARK    5  A    between atoms: C_22  and  C_27
REMARK                            x       y       z     vdW  Elec       q    Type
REMARK                         _______ _______ _______ _____ _____    ______ ____
ROOT
ATOM      1  F   UNL     1      31.186 -12.225 -21.550  0.00  0.00    -0.204 F 
ATOM      2  C   UNL     1      32.128  -8.794 -22.318  0.00  0.00    +0.059 C 
ATOM      3  C   UNL     1      31.502  -9.892 -21.716  0.00  0.00    +0.045 C 
ATOM      4  C   UNL     1      33.050  -9.006 -23.347  0.00  0.00    +0.015 C 
ATOM      5  C   UNL     1      32.719 -11.392 -23.167  0.00  0.00    +0.029 C 
ATOM      6  C   UNL     1      31.797 -11.187 -22.139  0.00  0.00    +0.141 C 
ATOM      7  C   UNL     1      33.346 -10.302 -23.769  0.00  0.00    +0.004 C 
ENDROOT
BRANCH   2  10
ATOM      8  O   UNL     1      31.763  -5.556 -20.694  0.00  0.00    -0.434 OA
ATOM      9  O   UNL     1      33.050  -7.234 -19.875  0.00  0.00    -0.226 OA
ATOM     10  N   UNL     1      31.826  -7.471 -21.886  0.00  0.00    -0.221 N 
ATOM     11  C   UNL     1      31.101  -5.275 -21.934  0.00  0.00    +0.220 C 
ATOM     12  C   UNL     1      30.860  -6.636 -22.549  0.00  0.00    +0.148 C 
ATOM     13  C   UNL     1      32.302  -6.822 -20.750  0.00  0.00    +0.409 C 
BRANCH  11  14
ATOM     14  C   UNL     1      31.999  -4.384 -22.782  0.00  0.00    +0.183 C 
BRANCH  14  15
ATOM     15  O   UNL     1      31.573  -3.041 -22.637  0.00  0.00    -0.378 OA
ATOM     16  H   UNL     1      32.324  -2.492 -22.363  0.00  0.00    +0.211 HD
ENDBRANCH  14  15
ENDBRANCH  11  14
ENDBRANCH   2  10
BRANCH   5  18
ATOM     17  N   UNL     1      32.998 -14.382 -25.376  0.00  0.00    -0.234 NA
ATOM     18  C   UNL     1      33.028 -12.735 -23.610  0.00  0.00    +0.021 C 
ATOM     19  C   UNL     1      33.629 -13.648 -22.754  0.00  0.00    +0.004 C 
ATOM     20  C   UNL     1      32.735 -13.144 -24.899  0.00  0.00    +0.100 C 
ATOM     21  C   UNL     1      33.914 -14.932 -23.208  0.00  0.00    +0.029 C 
ATOM     22  C   UNL     1      33.581 -15.246 -24.515  0.00  0.00    +0.146 C 
BRANCH  22  27
ATOM     23  N   UNL     1      34.000 -17.636 -24.268  0.00  0.00    -0.105 NA
ATOM     24  N   UNL     1      34.226 -18.549 -25.222  0.00  0.00    -0.113 N 
ATOM     25  N   UNL     1      33.980 -16.796 -26.371  0.00  0.00    -0.085 NA
ATOM     26  N   UNL     1      34.223 -18.096 -26.484  0.00  0.00    -0.018 NA
ATOM     27  C   UNL     1      33.852 -16.555 -25.037  0.00  0.00    +0.092 C 
ATOM     28  C   UNL     1      34.461 -19.935 -24.912  0.00  0.00    +0.163 C 
ENDBRANCH  22  27
ENDBRANCH   5  18
TORSDOF 5
ENDMDL
