MODEL 1
REMARK VINA RESULT:     -11.7      0.000      0.000
REMARK  Name = 656913
REMARK  7 active torsions:
REMARK  status: ('A' for Active; 'I' for Inactive)
REMARK    1  A    between atoms: N_3  and  C_22
REMARK    2  A    between atoms: N_4  and  C_11
REMARK    3  A    between atoms: C_11  and  C_14
REMARK    4  A    between atoms: C_14  and  C_17
REMARK    5  A    between atoms: C_22  and  C_25
REMARK    6  A    between atoms: N_24  and  C_27
REMARK    7  A    between atoms: C_27  and  C_29
REMARK                            x       y       z     vdW  Elec       q    Type
REMARK                         _______ _______ _______ _____ _____    ______ ____
ROOT
ATOM      1 CL   UNL     1      29.016 -23.717 -15.099  0.00  0.00    -0.064 Cl
ATOM      2  O   UNL     1      33.881 -24.150 -16.281  0.00  0.00    -0.266 OA
ATOM      3  N   UNL     1      31.616 -23.973 -15.701  0.00  0.00    -0.233 N 
ATOM      4  N   UNL     1      33.678 -22.469 -18.375  0.00  0.00    -0.310 N 
ATOM      5  N   UNL     1      31.399 -22.215 -17.888  0.00  0.00    -0.223 NA
ATOM      6  C   UNL     1      32.562 -22.741 -17.625  0.00  0.00    +0.183 C 
ATOM      7  C   UNL     1      32.755 -23.700 -16.459  0.00  0.00    +0.285 C 
ATOM      8  C   UNL     1      30.417 -23.377 -16.040  0.00  0.00    +0.133 C 
ATOM      9  C   UNL     1      30.347 -22.546 -17.085  0.00  0.00    +0.127 C 
ATOM     10  H   UNL     1      34.532 -22.895 -18.130  0.00  0.00    +0.149 HD
ENDROOT
BRANCH   4  11
ATOM     11  C   UNL     1      33.644 -21.587 -19.499  0.00  0.00    +0.162 C 
BRANCH  11  14
ATOM     12  F   UNL     1      35.712 -22.283 -20.367  0.00  0.00    -0.196 F 
ATOM     13  F   UNL     1      35.739 -20.833 -18.754  0.00  0.00    -0.196 F 
ATOM     14  C   UNL     1      35.064 -21.179 -19.890  0.00  0.00    +0.317 C 
BRANCH  14  17
ATOM     15  O   UNL     1      37.284 -19.654 -20.475  0.00  0.00    -0.163 OA
ATOM     16  N   UNL     1      36.212 -19.366 -21.104  0.00  0.00    -0.128 N 
ATOM     17  C   UNL     1      35.043 -20.055 -20.898  0.00  0.00    +0.142 C 
ATOM     18  C   UNL     1      33.876 -19.755 -21.574  0.00  0.00    +0.022 C 
ATOM     19  C   UNL     1      36.210 -18.335 -22.023  0.00  0.00    +0.121 C 
ATOM     20  C   UNL     1      33.885 -18.715 -22.498  0.00  0.00    +0.003 C 
ATOM     21  C   UNL     1      35.057 -18.000 -22.725  0.00  0.00    +0.022 C 
ENDBRANCH  14  17
ENDBRANCH  11  14
ENDBRANCH   4  11
BRANCH   3  22
ATOM     22  C   UNL     1      31.722 -24.885 -14.567  0.00  0.00    +0.184 C 
BRANCH  22  25
ATOM     23  O   UNL     1      32.096 -23.327 -12.758  0.00  0.00    -0.273 OA
ATOM     24  N   UNL     1      33.816 -24.749 -13.404  0.00  0.00    -0.299 N 
ATOM     25  C   UNL     1      32.531 -24.232 -13.466  0.00  0.00    +0.243 C 
ATOM     26  H   UNL     1      34.058 -25.477 -14.022  0.00  0.00    +0.150 HD
BRANCH  24  27
ATOM     27  C   UNL     1      34.819 -24.274 -12.477  0.00  0.00    +0.119 C 
BRANCH  27  29
ATOM     28  F   UNL     1      37.157 -23.115 -11.392  0.00  0.00    -0.204 F 
ATOM     29  C   UNL     1      36.202 -24.703 -12.876  0.00  0.00    +0.025 C 
ATOM     30  C   UNL     1      37.308 -24.089 -12.301  0.00  0.00    +0.138 C 
ATOM     31  C   UNL     1      36.360 -25.712 -13.819  0.00  0.00    -0.000 C 
ATOM     32  C   UNL     1      38.590 -24.490 -12.673  0.00  0.00    +0.029 C 
ATOM     33  C   UNL     1      37.642 -26.113 -14.191  0.00  0.00    -0.000 C 
ATOM     34  C   UNL     1      38.758 -25.502 -13.619  0.00  0.00    +0.002 C 
ENDBRANCH  27  29
ENDBRANCH  24  27
ENDBRANCH  22  25
ENDBRANCH   3  22
TORSDOF 7
ENDMDL
MODEL 2
REMARK VINA RESULT:     -11.6      6.139     11.714
REMARK  Name = 656913
REMARK  7 active torsions:
REMARK  status: ('A' for Active; 'I' for Inactive)
REMARK    1  A    between atoms: N_3  and  C_22
REMARK    2  A    between atoms: N_4  and  C_11
REMARK    3  A    between atoms: C_11  and  C_14
REMARK    4  A    between atoms: C_14  and  C_17
REMARK    5  A    between atoms: C_22  and  C_25
REMARK    6  A    between atoms: N_24  and  C_27
REMARK    7  A    between atoms: C_27  and  C_29
REMARK                            x       y       z     vdW  Elec       q    Type
REMARK                         _______ _______ _______ _____ _____    ______ ____
ROOT
ATOM      1 CL   UNL     1      30.367 -16.365 -27.738  0.00  0.00    -0.064 Cl
ATOM      2  O   UNL     1      35.062 -16.231 -25.949  0.00  0.00    -0.266 OA
ATOM      3  N   UNL     1      32.879 -16.264 -26.806  0.00  0.00    -0.233 N 
ATOM      4  N   UNL     1      34.640 -18.288 -24.263  0.00  0.00    -0.310 N 
ATOM      5  N   UNL     1      32.434 -18.414 -25.046  0.00  0.00    -0.223 NA
ATOM      6  C   UNL     1      33.613 -17.861 -25.067  0.00  0.00    +0.183 C 
ATOM      7  C   UNL     1      33.928 -16.693 -25.992  0.00  0.00    +0.285 C 
ATOM      8  C   UNL     1      31.656 -16.901 -26.729  0.00  0.00    +0.133 C 
ATOM      9  C   UNL     1      31.476 -17.920 -25.883  0.00  0.00    +0.127 C 
ATOM     10  H   UNL     1      35.511 -17.833 -24.321  0.00  0.00    +0.149 HD
ENDROOT
BRANCH   4  11
ATOM     11  C   UNL     1      34.488 -19.373 -23.345  0.00  0.00    +0.162 C 
BRANCH  11  14
ATOM     12  F   UNL     1      34.255 -17.773 -21.643  0.00  0.00    -0.196 F 
ATOM     13  F   UNL     1      36.231 -18.607 -21.972  0.00  0.00    -0.196 F 
ATOM     14  C   UNL     1      34.906 -18.937 -21.942  0.00  0.00    +0.317 C 
BRANCH  14  17
ATOM     15  O   UNL     1      32.348 -19.708 -21.270  0.00  0.00    -0.163 OA
ATOM     16  N   UNL     1      33.301 -20.318 -20.681  0.00  0.00    -0.128 N 
ATOM     17  C   UNL     1      34.617 -20.022 -20.933  0.00  0.00    +0.142 C 
ATOM     18  C   UNL     1      35.658 -20.676 -20.303  0.00  0.00    +0.022 C 
ATOM     19  C   UNL     1      33.017 -21.308 -19.760  0.00  0.00    +0.121 C 
ATOM     20  C   UNL     1      35.362 -21.672 -19.378  0.00  0.00    +0.003 C 
ATOM     21  C   UNL     1      34.036 -21.991 -19.104  0.00  0.00    +0.022 C 
ENDBRANCH  14  17
ENDBRANCH  11  14
ENDBRANCH   4  11
BRANCH   3  22
ATOM     22  C   UNL     1      33.103 -15.148 -27.719  0.00  0.00    +0.184 C 
BRANCH  22  25
ATOM     23  O   UNL     1      32.910 -12.747 -27.530  0.00  0.00    -0.273 OA
ATOM     24  N   UNL     1      32.868 -14.043 -25.602  0.00  0.00    -0.299 N 
ATOM     25  C   UNL     1      32.935 -13.841 -26.973  0.00  0.00    +0.243 C 
ATOM     26  H   UNL     1      32.897 -14.967 -25.264  0.00  0.00    +0.150 HD
BRANCH  24  27
ATOM     27  C   UNL     1      32.756 -12.964 -24.646  0.00  0.00    +0.119 C 
BRANCH  27  29
ATOM     28  F   UNL     1      31.300 -12.120 -22.375  0.00  0.00    -0.204 F 
ATOM     29  C   UNL     1      33.089 -13.413 -23.252  0.00  0.00    +0.025 C 
ATOM     30  C   UNL     1      32.328 -12.958 -22.180  0.00  0.00    +0.138 C 
ATOM     31  C   UNL     1      34.155 -14.280 -23.048  0.00  0.00    -0.000 C 
ATOM     32  C   UNL     1      32.640 -13.376 -20.887  0.00  0.00    +0.029 C 
ATOM     33  C   UNL     1      34.466 -14.698 -21.754  0.00  0.00    -0.000 C 
ATOM     34  C   UNL     1      33.709 -14.247 -20.674  0.00  0.00    +0.002 C 
ENDBRANCH  27  29
ENDBRANCH  24  27
ENDBRANCH  22  25
ENDBRANCH   3  22
TORSDOF 7
ENDMDL
MODEL 3
REMARK VINA RESULT:     -11.5      2.035      8.100
REMARK  Name = 656913
REMARK  7 active torsions:
REMARK  status: ('A' for Active; 'I' for Inactive)
REMARK    1  A    between atoms: N_3  and  C_22
REMARK    2  A    between atoms: N_4  and  C_11
REMARK    3  A    between atoms: C_11  and  C_14
REMARK    4  A    between atoms: C_14  and  C_17
REMARK    5  A    between atoms: C_22  and  C_25
REMARK    6  A    between atoms: N_24  and  C_27
REMARK    7  A    between atoms: C_27  and  C_29
REMARK                            x       y       z     vdW  Elec       q    Type
REMARK                         _______ _______ _______ _____ _____    ______ ____
ROOT
ATOM      1 CL   UNL     1      29.329 -24.279 -16.088  0.00  0.00    -0.064 Cl
ATOM      2  O   UNL     1      34.068 -22.660 -15.666  0.00  0.00    -0.266 OA
ATOM      3  N   UNL     1      31.853 -23.398 -15.896  0.00  0.00    -0.233 N 
ATOM      4  N   UNL     1      34.397 -23.789 -13.243  0.00  0.00    -0.310 N 
ATOM      5  N   UNL     1      32.194 -24.579 -13.365  0.00  0.00    -0.223 NA
ATOM      6  C   UNL     1      33.192 -23.923 -13.885  0.00  0.00    +0.183 C 
ATOM      7  C   UNL     1      33.082 -23.258 -15.250  0.00  0.00    +0.285 C 
ATOM      8  C   UNL     1      30.841 -24.109 -15.282  0.00  0.00    +0.133 C 
ATOM      9  C   UNL     1      31.034 -24.659 -14.079  0.00  0.00    +0.127 C 
ATOM     10  H   UNL     1      35.118 -23.282 -13.684  0.00  0.00    +0.149 HD
ENDROOT
BRANCH   4  11
ATOM     11  C   UNL     1      34.644 -24.361 -11.957  0.00  0.00    +0.162 C 
BRANCH  11  14
ATOM     12  F   UNL     1      36.236 -24.506 -10.238  0.00  0.00    -0.196 F 
ATOM     13  F   UNL     1      36.298 -22.754 -11.517  0.00  0.00    -0.196 F 
ATOM     14  C   UNL     1      36.090 -24.104 -11.535  0.00  0.00    +0.317 C 
BRANCH  14  17
ATOM     15  O   UNL     1      38.724 -23.343 -11.815  0.00  0.00    -0.163 OA
ATOM     16  N   UNL     1      38.341 -24.340 -12.512  0.00  0.00    -0.128 N 
ATOM     17  C   UNL     1      37.053 -24.811 -12.458  0.00  0.00    +0.142 C 
ATOM     18  C   UNL     1      36.626 -25.891 -13.207  0.00  0.00    +0.022 C 
ATOM     19  C   UNL     1      39.235 -24.975 -13.352  0.00  0.00    +0.121 C 
ATOM     20  C   UNL     1      37.535 -26.523 -14.049  0.00  0.00    +0.003 C 
ATOM     21  C   UNL     1      38.847 -26.065 -14.123  0.00  0.00    +0.022 C 
ENDBRANCH  14  17
ENDBRANCH  11  14
ENDBRANCH   4  11
BRANCH   3  22
ATOM     22  C   UNL     1      31.670 -22.786 -17.208  0.00  0.00    +0.184 C 
BRANCH  22  25
ATOM     23  O   UNL     1      33.172 -24.315 -18.325  0.00  0.00    -0.273 OA
ATOM     24  N   UNL     1      33.479 -22.027 -18.591  0.00  0.00    -0.299 N 
ATOM     25  C   UNL     1      32.833 -23.155 -18.105  0.00  0.00    +0.243 C 
ATOM     26  H   UNL     1      33.119 -21.142 -18.350  0.00  0.00    +0.150 HD
BRANCH  24  27
ATOM     27  C   UNL     1      34.653 -22.085 -19.432  0.00  0.00    +0.119 C 
BRANCH  27  29
ATOM     28  F   UNL     1      32.552 -20.703 -20.722  0.00  0.00    -0.204 F 
ATOM     29  C   UNL     1      34.864 -20.807 -20.192  0.00  0.00    +0.025 C 
ATOM     30  C   UNL     1      33.784 -20.180 -20.802  0.00  0.00    +0.138 C 
ATOM     31  C   UNL     1      36.141 -20.264 -20.276  0.00  0.00    -0.000 C 
ATOM     32  C   UNL     1      33.983 -18.993 -21.506  0.00  0.00    +0.029 C 
ATOM     33  C   UNL     1      36.339 -19.077 -20.980  0.00  0.00    -0.000 C 
ATOM     34  C   UNL     1      35.261 -18.442 -21.595  0.00  0.00    +0.002 C 
ENDBRANCH  27  29
ENDBRANCH  24  27
ENDBRANCH  22  25
ENDBRANCH   3  22
TORSDOF 7
ENDMDL
MODEL 4
REMARK VINA RESULT:     -11.3      6.451     12.828
REMARK  Name = 656913
REMARK  7 active torsions:
REMARK  status: ('A' for Active; 'I' for Inactive)
REMARK    1  A    between atoms: N_3  and  C_22
REMARK    2  A    between atoms: N_4  and  C_11
REMARK    3  A    between atoms: C_11  and  C_14
REMARK    4  A    between atoms: C_14  and  C_17
REMARK    5  A    between atoms: C_22  and  C_25
REMARK    6  A    between atoms: N_24  and  C_27
REMARK    7  A    between atoms: C_27  and  C_29
REMARK                            x       y       z     vdW  Elec       q    Type
REMARK                         _______ _______ _______ _____ _____    ______ ____
ROOT
ATOM      1 CL   UNL     1      30.826 -16.393 -27.731  0.00  0.00    -0.064 Cl
ATOM      2  O   UNL     1      35.111 -15.807 -25.171  0.00  0.00    -0.266 OA
ATOM      3  N   UNL     1      33.117 -16.047 -26.383  0.00  0.00    -0.233 N 
ATOM      4  N   UNL     1      34.770 -18.088 -23.782  0.00  0.00    -0.310 N 
ATOM      5  N   UNL     1      32.758 -18.432 -24.934  0.00  0.00    -0.223 NA
ATOM      6  C   UNL     1      33.823 -17.719 -24.704  0.00  0.00    +0.183 C 
ATOM      7  C   UNL     1      34.085 -16.417 -25.449  0.00  0.00    +0.285 C 
ATOM      8  C   UNL     1      32.015 -16.856 -26.574  0.00  0.00    +0.133 C 
ATOM      9  C   UNL     1      31.872 -17.983 -25.870  0.00  0.00    +0.127 C 
ATOM     10  H   UNL     1      35.556 -17.510 -23.649  0.00  0.00    +0.149 HD
ENDROOT
BRANCH   4  11
ATOM     11  C   UNL     1      34.655 -19.285 -23.009  0.00  0.00    +0.162 C 
BRANCH  11  14
ATOM     12  F   UNL     1      34.482 -17.830 -21.174  0.00  0.00    -0.196 F 
ATOM     13  F   UNL     1      36.396 -18.794 -21.512  0.00  0.00    -0.196 F 
ATOM     14  C   UNL     1      35.049 -19.013 -21.558  0.00  0.00    +0.317 C 
BRANCH  14  17
ATOM     15  O   UNL     1      32.413 -19.706 -21.151  0.00  0.00    -0.163 OA
ATOM     16  N   UNL     1      33.287 -20.405 -20.540  0.00  0.00    -0.128 N 
ATOM     17  C   UNL     1      34.631 -20.156 -20.665  0.00  0.00    +0.142 C 
ATOM     18  C   UNL     1      35.589 -20.907 -20.010  0.00  0.00    +0.022 C 
ATOM     19  C   UNL     1      32.887 -21.447 -19.727  0.00  0.00    +0.121 C 
ATOM     20  C   UNL     1      35.175 -21.955 -19.193  0.00  0.00    +0.003 C 
ATOM     21  C   UNL     1      33.818 -22.228 -19.050  0.00  0.00    +0.022 C 
ENDBRANCH  14  17
ENDBRANCH  11  14
ENDBRANCH   4  11
BRANCH   3  22
ATOM     22  C   UNL     1      33.298 -14.811 -27.137  0.00  0.00    +0.184 C 
BRANCH  22  25
ATOM     23  O   UNL     1      31.578 -13.127 -26.919  0.00  0.00    -0.273 OA
ATOM     24  N   UNL     1      33.176 -13.339 -25.245  0.00  0.00    -0.299 N 
ATOM     25  C   UNL     1      32.564 -13.683 -26.442  0.00  0.00    +0.243 C 
ATOM     26  H   UNL     1      33.964 -13.855 -24.958  0.00  0.00    +0.150 HD
BRANCH  24  27
ATOM     27  C   UNL     1      32.714 -12.261 -24.399  0.00  0.00    +0.119 C 
BRANCH  27  29
ATOM     28  F   UNL     1      32.277  -9.916 -22.883  0.00  0.00    -0.204 F 
ATOM     29  C   UNL     1      33.611 -11.059 -24.481  0.00  0.00    +0.025 C 
ATOM     30  C   UNL     1      33.336  -9.938 -23.706  0.00  0.00    +0.138 C 
ATOM     31  C   UNL     1      34.708 -11.080 -25.334  0.00  0.00    -0.000 C 
ATOM     32  C   UNL     1      34.170  -8.824 -23.784  0.00  0.00    +0.029 C 
ATOM     33  C   UNL     1      35.542  -9.966 -25.411  0.00  0.00    -0.000 C 
ATOM     34  C   UNL     1      35.274  -8.838 -24.637  0.00  0.00    +0.002 C 
ENDBRANCH  27  29
ENDBRANCH  24  27
ENDBRANCH  22  25
ENDBRANCH   3  22
TORSDOF 7
ENDMDL
MODEL 5
REMARK VINA RESULT:     -11.2      3.508      5.170
REMARK  Name = 656913
REMARK  7 active torsions:
REMARK  status: ('A' for Active; 'I' for Inactive)
REMARK    1  A    between atoms: N_3  and  C_22
REMARK    2  A    between atoms: N_4  and  C_11
REMARK    3  A    between atoms: C_11  and  C_14
REMARK    4  A    between atoms: C_14  and  C_17
REMARK    5  A    between atoms: C_22  and  C_25
REMARK    6  A    between atoms: N_24  and  C_27
REMARK    7  A    between atoms: C_27  and  C_29
REMARK                            x       y       z     vdW  Elec       q    Type
REMARK                         _______ _______ _______ _____ _____    ______ ____
ROOT
ATOM      1 CL   UNL     1      33.351 -22.751 -18.770  0.00  0.00    -0.064 Cl
ATOM      2  O   UNL     1      36.982 -19.711 -20.453  0.00  0.00    -0.266 OA
ATOM      3  N   UNL     1      35.314 -21.152 -19.652  0.00  0.00    -0.233 N 
ATOM      4  N   UNL     1      35.243 -18.072 -21.695  0.00  0.00    -0.310 N 
ATOM      5  N   UNL     1      33.493 -19.442 -20.949  0.00  0.00    -0.223 NA
ATOM      6  C   UNL     1      34.765 -19.164 -21.016  0.00  0.00    +0.183 C 
ATOM      7  C   UNL     1      35.808 -20.043 -20.340  0.00  0.00    +0.285 C 
ATOM      8  C   UNL     1      33.953 -21.381 -19.624  0.00  0.00    +0.133 C 
ATOM      9  C   UNL     1      33.113 -20.550 -20.249  0.00  0.00    +0.127 C 
ATOM     10  H   UNL     1      36.215 -17.910 -21.713  0.00  0.00    +0.149 HD
ENDROOT
BRANCH   4  11
ATOM     11  C   UNL     1      34.380 -17.160 -22.377  0.00  0.00    +0.162 C 
BRANCH  11  14
ATOM     12  F   UNL     1      33.447 -18.590 -23.988  0.00  0.00    -0.196 F 
ATOM     13  F   UNL     1      35.514 -17.989 -24.257  0.00  0.00    -0.196 F 
ATOM     14  C   UNL     1      34.293 -17.525 -23.858  0.00  0.00    +0.317 C 
BRANCH  14  17
ATOM     15  O   UNL     1      33.847 -17.672 -26.574  0.00  0.00    -0.163 OA
ATOM     16  N   UNL     1      33.653 -16.537 -26.024  0.00  0.00    -0.128 N 
ATOM     17  C   UNL     1      33.842 -16.341 -24.679  0.00  0.00    +0.142 C 
ATOM     18  C   UNL     1      33.634 -15.118 -24.071  0.00  0.00    +0.022 C 
ATOM     19  C   UNL     1      33.241 -15.464 -26.790  0.00  0.00    +0.121 C 
ATOM     20  C   UNL     1      33.218 -14.044 -24.851  0.00  0.00    +0.003 C 
ATOM     21  C   UNL     1      33.020 -14.216 -26.218  0.00  0.00    +0.022 C 
ENDBRANCH  14  17
ENDBRANCH  11  14
ENDBRANCH   4  11
BRANCH   3  22
ATOM     22  C   UNL     1      36.253 -22.043 -18.979  0.00  0.00    +0.184 C 
BRANCH  22  25
ATOM     23  O   UNL     1      36.967 -20.529 -17.236  0.00  0.00    -0.273 OA
ATOM     24  N   UNL     1      35.988 -22.553 -16.649  0.00  0.00    -0.299 N 
ATOM     25  C   UNL     1      36.439 -21.594 -17.545  0.00  0.00    +0.243 C 
ATOM     26  H   UNL     1      35.579 -23.373 -17.010  0.00  0.00    +0.150 HD
BRANCH  24  27
ATOM     27  C   UNL     1      36.087 -22.407 -15.214  0.00  0.00    +0.119 C 
BRANCH  27  29
ATOM     28  F   UNL     1      36.031 -23.039 -12.460  0.00  0.00    -0.204 F 
ATOM     29  C   UNL     1      36.964 -23.462 -14.602  0.00  0.00    +0.025 C 
ATOM     30  C   UNL     1      36.883 -23.721 -13.239  0.00  0.00    +0.138 C 
ATOM     31  C   UNL     1      37.848 -24.169 -15.408  0.00  0.00    -0.000 C 
ATOM     32  C   UNL     1      37.697 -24.701 -12.674  0.00  0.00    +0.029 C 
ATOM     33  C   UNL     1      38.663 -25.150 -14.842  0.00  0.00    -0.000 C 
ATOM     34  C   UNL     1      38.588 -25.416 -13.476  0.00  0.00    +0.002 C 
ENDBRANCH  27  29
ENDBRANCH  24  27
ENDBRANCH  22  25
ENDBRANCH   3  22
TORSDOF 7
ENDMDL
MODEL 6
REMARK VINA RESULT:     -11.2      6.549     13.109
REMARK  Name = 656913
REMARK  7 active torsions:
REMARK  status: ('A' for Active; 'I' for Inactive)
REMARK    1  A    between atoms: N_3  and  C_22
REMARK    2  A    between atoms: N_4  and  C_11
REMARK    3  A    between atoms: C_11  and  C_14
REMARK    4  A    between atoms: C_14  and  C_17
REMARK    5  A    between atoms: C_22  and  C_25
REMARK    6  A    between atoms: N_24  and  C_27
REMARK    7  A    between atoms: C_27  and  C_29
REMARK                            x       y       z     vdW  Elec       q    Type
REMARK                         _______ _______ _______ _____ _____    ______ ____
ROOT
ATOM      1 CL   UNL     1      31.217 -17.118 -27.752  0.00  0.00    -0.064 Cl
ATOM      2  O   UNL     1      34.042 -15.093 -24.122  0.00  0.00    -0.266 OA
ATOM      3  N   UNL     1      32.709 -16.003 -25.823  0.00  0.00    -0.233 N 
ATOM      4  N   UNL     1      35.104 -17.465 -23.417  0.00  0.00    -0.310 N 
ATOM      5  N   UNL     1      33.817 -18.484 -25.089  0.00  0.00    -0.223 NA
ATOM      6  C   UNL     1      34.193 -17.419 -24.441  0.00  0.00    +0.183 C 
ATOM      7  C   UNL     1      33.637 -16.043 -24.781  0.00  0.00    +0.285 C 
ATOM      8  C   UNL     1      32.361 -17.175 -26.465  0.00  0.00    +0.133 C 
ATOM      9  C   UNL     1      32.905 -18.338 -26.094  0.00  0.00    +0.127 C 
ATOM     10  H   UNL     1      35.352 -16.628 -22.961  0.00  0.00    +0.149 HD
ENDROOT
BRANCH   4  11
ATOM     11  C   UNL     1      35.709 -18.687 -22.989  0.00  0.00    +0.162 C 
BRANCH  11  14
ATOM     12  F   UNL     1      35.646 -17.442 -20.999  0.00  0.00    -0.196 F 
ATOM     13  F   UNL     1      37.097 -19.049 -21.131  0.00  0.00    -0.196 F 
ATOM     14  C   UNL     1      35.816 -18.716 -21.464  0.00  0.00    +0.317 C 
BRANCH  14  17
ATOM     15  O   UNL     1      36.537 -20.835 -19.858  0.00  0.00    -0.163 OA
ATOM     16  N   UNL     1      35.290 -20.691 -20.087  0.00  0.00    -0.128 N 
ATOM     17  C   UNL     1      34.810 -19.673 -20.872  0.00  0.00    +0.142 C 
ATOM     18  C   UNL     1      33.462 -19.505 -21.126  0.00  0.00    +0.022 C 
ATOM     19  C   UNL     1      34.384 -21.577 -19.537  0.00  0.00    +0.121 C 
ATOM     20  C   UNL     1      32.558 -20.402 -20.567  0.00  0.00    +0.003 C 
ATOM     21  C   UNL     1      33.019 -21.443 -19.769  0.00  0.00    +0.022 C 
ENDBRANCH  14  17
ENDBRANCH  11  14
ENDBRANCH   4  11
BRANCH   3  22
ATOM     22  C   UNL     1      32.131 -14.720 -26.207  0.00  0.00    +0.184 C 
BRANCH  22  25
ATOM     23  O   UNL     1      33.939 -14.239 -27.736  0.00  0.00    -0.273 OA
ATOM     24  N   UNL     1      33.259 -12.603 -26.232  0.00  0.00    -0.299 N 
ATOM     25  C   UNL     1      33.199 -13.850 -26.835  0.00  0.00    +0.243 C 
ATOM     26  H   UNL     1      32.614 -12.398 -25.517  0.00  0.00    +0.150 HD
BRANCH  24  27
ATOM     27  C   UNL     1      34.221 -11.588 -26.601  0.00  0.00    +0.119 C 
BRANCH  27  29
ATOM     28  F   UNL     1      36.537 -10.375 -25.528  0.00  0.00    -0.204 F 
ATOM     29  C   UNL     1      34.168 -10.403 -25.682  0.00  0.00    +0.025 C 
ATOM     30  C   UNL     1      35.348  -9.856 -25.191  0.00  0.00    +0.138 C 
ATOM     31  C   UNL     1      32.936  -9.864 -25.330  0.00  0.00    -0.000 C 
ATOM     32  C   UNL     1      35.295  -8.755 -24.337  0.00  0.00    +0.029 C 
ATOM     33  C   UNL     1      32.884  -8.762 -24.477  0.00  0.00    -0.000 C 
ATOM     34  C   UNL     1      34.063  -8.207 -23.980  0.00  0.00    +0.002 C 
ENDBRANCH  27  29
ENDBRANCH  24  27
ENDBRANCH  22  25
ENDBRANCH   3  22
TORSDOF 7
ENDMDL
MODEL 7
REMARK VINA RESULT:     -11.1      3.995     10.840
REMARK  Name = 656913
REMARK  7 active torsions:
REMARK  status: ('A' for Active; 'I' for Inactive)
REMARK    1  A    between atoms: N_3  and  C_22
REMARK    2  A    between atoms: N_4  and  C_11
REMARK    3  A    between atoms: C_11  and  C_14
REMARK    4  A    between atoms: C_14  and  C_17
REMARK    5  A    between atoms: C_22  and  C_25
REMARK    6  A    between atoms: N_24  and  C_27
REMARK    7  A    between atoms: C_27  and  C_29
REMARK                            x       y       z     vdW  Elec       q    Type
REMARK                         _______ _______ _______ _____ _____    ______ ____
ROOT
ATOM      1 CL   UNL     1      36.971 -19.060 -21.258  0.00  0.00    -0.064 Cl
ATOM      2  O   UNL     1      32.161 -20.346 -20.579  0.00  0.00    -0.266 OA
ATOM      3  N   UNL     1      34.395 -19.718 -20.919  0.00  0.00    -0.233 N 
ATOM      4  N   UNL     1      32.783 -22.407 -18.962  0.00  0.00    -0.310 N 
ATOM      5  N   UNL     1      35.049 -21.872 -19.230  0.00  0.00    -0.223 NA
ATOM      6  C   UNL     1      33.792 -21.640 -19.485  0.00  0.00    +0.183 C 
ATOM      7  C   UNL     1      33.363 -20.493 -20.390  0.00  0.00    +0.285 C 
ATOM      8  C   UNL     1      35.704 -20.023 -20.602  0.00  0.00    +0.133 C 
ATOM      9  C   UNL     1      35.982 -21.053 -19.796  0.00  0.00    +0.127 C 
ATOM     10  H   UNL     1      31.850 -22.187 -19.189  0.00  0.00    +0.149 HD
ENDROOT
BRANCH   4  11
ATOM     11  C   UNL     1      33.038 -23.516 -18.097  0.00  0.00    +0.162 C 
BRANCH  11  14
ATOM     12  F   UNL     1      31.213 -24.232 -16.805  0.00  0.00    -0.196 F 
ATOM     13  F   UNL     1      31.689 -22.115 -16.783  0.00  0.00    -0.196 F 
ATOM     14  C   UNL     1      32.261 -23.355 -16.791  0.00  0.00    +0.317 C 
BRANCH  14  17
ATOM     15  O   UNL     1      31.295 -23.863 -14.261  0.00  0.00    -0.163 OA
ATOM     16  N   UNL     1      32.563 -23.815 -14.389  0.00  0.00    -0.128 N 
ATOM     17  C   UNL     1      33.162 -23.570 -15.599  0.00  0.00    +0.142 C 
ATOM     18  C   UNL     1      34.534 -23.517 -15.751  0.00  0.00    +0.022 C 
ATOM     19  C   UNL     1      33.373 -24.013 -13.287  0.00  0.00    +0.121 C 
ATOM     20  C   UNL     1      35.340 -23.719 -14.635  0.00  0.00    +0.003 C 
ATOM     21  C   UNL     1      34.759 -23.969 -13.396  0.00  0.00    +0.022 C 
ENDBRANCH  14  17
ENDBRANCH  11  14
ENDBRANCH   4  11
BRANCH   3  22
ATOM     22  C   UNL     1      34.062 -18.601 -21.797  0.00  0.00    +0.184 C 
BRANCH  22  25
ATOM     23  O   UNL     1      34.985 -19.816 -23.671  0.00  0.00    -0.273 OA
ATOM     24  N   UNL     1      33.121 -18.469 -24.001  0.00  0.00    -0.299 N 
ATOM     25  C   UNL     1      34.121 -19.056 -23.240  0.00  0.00    +0.243 C 
ATOM     26  H   UNL     1      32.479 -17.874 -23.550  0.00  0.00    +0.150 HD
BRANCH  24  27
ATOM     27  C   UNL     1      32.972 -18.688 -25.422  0.00  0.00    +0.119 C 
BRANCH  27  29
ATOM     28  F   UNL     1      34.776 -16.518 -25.571  0.00  0.00    -0.204 F 
ATOM     29  C   UNL     1      32.659 -17.417 -26.157  0.00  0.00    +0.025 C 
ATOM     30  C   UNL     1      33.594 -16.389 -26.190  0.00  0.00    +0.138 C 
ATOM     31  C   UNL     1      31.433 -17.282 -26.798  0.00  0.00    -0.000 C 
ATOM     32  C   UNL     1      33.299 -15.210 -26.873  0.00  0.00    +0.029 C 
ATOM     33  C   UNL     1      31.139 -16.102 -27.482  0.00  0.00    -0.000 C 
ATOM     34  C   UNL     1      32.072 -15.066 -27.519  0.00  0.00    +0.002 C 
ENDBRANCH  27  29
ENDBRANCH  24  27
ENDBRANCH  22  25
ENDBRANCH   3  22
TORSDOF 7
ENDMDL
MODEL 8
REMARK VINA RESULT:     -11.0      2.812      5.084
REMARK  Name = 656913
REMARK  7 active torsions:
REMARK  status: ('A' for Active; 'I' for Inactive)
REMARK    1  A    between atoms: N_3  and  C_22
REMARK    2  A    between atoms: N_4  and  C_11
REMARK    3  A    between atoms: C_11  and  C_14
REMARK    4  A    between atoms: C_14  and  C_17
REMARK    5  A    between atoms: C_22  and  C_25
REMARK    6  A    between atoms: N_24  and  C_27
REMARK    7  A    between atoms: C_27  and  C_29
REMARK                            x       y       z     vdW  Elec       q    Type
REMARK                         _______ _______ _______ _____ _____    ______ ____
ROOT
ATOM      1 CL   UNL     1      37.572 -24.284 -13.485  0.00  0.00    -0.064 Cl
ATOM      2  O   UNL     1      33.415 -24.081 -16.301  0.00  0.00    -0.266 OA
ATOM      3  N   UNL     1      35.337 -24.199 -14.963  0.00  0.00    -0.233 N 
ATOM      4  N   UNL     1      34.493 -22.327 -18.037  0.00  0.00    -0.310 N 
ATOM      5  N   UNL     1      36.468 -22.366 -16.774  0.00  0.00    -0.223 NA
ATOM      6  C   UNL     1      35.245 -22.767 -16.976  0.00  0.00    +0.183 C 
ATOM      7  C   UNL     1      34.567 -23.757 -16.039  0.00  0.00    +0.285 C 
ATOM      8  C   UNL     1      36.627 -23.731 -14.815  0.00  0.00    +0.133 C 
ATOM      9  C   UNL     1      37.136 -22.860 -15.692  0.00  0.00    +0.127 C 
ATOM     10  H   UNL     1      33.573 -22.663 -18.141  0.00  0.00    +0.149 HD
ENDROOT
BRANCH   4  11
ATOM     11  C   UNL     1      35.000 -21.397 -18.996  0.00  0.00    +0.162 C 
BRANCH  11  14
ATOM     12  F   UNL     1      32.842 -20.504 -19.244  0.00  0.00    -0.196 F 
ATOM     13  F   UNL     1      33.419 -22.118 -20.574  0.00  0.00    -0.196 F 
ATOM     14  C   UNL     1      33.894 -20.990 -19.969  0.00  0.00    +0.317 C 
BRANCH  14  17
ATOM     15  O   UNL     1      32.283 -19.854 -21.895  0.00  0.00    -0.163 OA
ATOM     16  N   UNL     1      33.505 -19.486 -21.883  0.00  0.00    -0.128 N 
ATOM     17  C   UNL     1      34.403 -19.982 -20.971  0.00  0.00    +0.142 C 
ATOM     18  C   UNL     1      35.728 -19.591 -20.946  0.00  0.00    +0.022 C 
ATOM     19  C   UNL     1      33.954 -18.563 -22.807  0.00  0.00    +0.121 C 
ATOM     20  C   UNL     1      36.169 -18.660 -21.881  0.00  0.00    +0.003 C 
ATOM     21  C   UNL     1      35.279 -18.143 -22.817  0.00  0.00    +0.022 C 
ENDBRANCH  14  17
ENDBRANCH  11  14
ENDBRANCH   4  11
BRANCH   3  22
ATOM     22  C   UNL     1      34.755 -25.148 -14.020  0.00  0.00    +0.184 C 
BRANCH  22  25
ATOM     23  O   UNL     1      33.609 -23.636 -12.524  0.00  0.00    -0.273 OA
ATOM     24  N   UNL     1      32.366 -25.133 -13.794  0.00  0.00    -0.299 N 
ATOM     25  C   UNL     1      33.539 -24.529 -13.364  0.00  0.00    +0.243 C 
ATOM     26  H   UNL     1      32.428 -25.842 -14.475  0.00  0.00    +0.150 HD
BRANCH  24  27
ATOM     27  C   UNL     1      31.058 -24.772 -13.294  0.00  0.00    +0.119 C 
BRANCH  27  29
ATOM     28  F   UNL     1      31.247 -22.176 -14.393  0.00  0.00    -0.204 F 
ATOM     29  C   UNL     1      30.154 -24.283 -14.388  0.00  0.00    +0.025 C 
ATOM     30  C   UNL     1      30.303 -22.992 -14.883  0.00  0.00    +0.138 C 
ATOM     31  C   UNL     1      29.174 -25.128 -14.896  0.00  0.00    -0.000 C 
ATOM     32  C   UNL     1      29.462 -22.541 -15.899  0.00  0.00    +0.029 C 
ATOM     33  C   UNL     1      28.333 -24.677 -15.912  0.00  0.00    -0.000 C 
ATOM     34  C   UNL     1      28.477 -23.384 -16.414  0.00  0.00    +0.002 C 
ENDBRANCH  27  29
ENDBRANCH  24  27
ENDBRANCH  22  25
ENDBRANCH   3  22
TORSDOF 7
ENDMDL
MODEL 9
REMARK VINA RESULT:     -10.9      7.572     13.214
REMARK  Name = 656913
REMARK  7 active torsions:
REMARK  status: ('A' for Active; 'I' for Inactive)
REMARK    1  A    between atoms: N_3  and  C_22
REMARK    2  A    between atoms: N_4  and  C_11
REMARK    3  A    between atoms: C_11  and  C_14
REMARK    4  A    between atoms: C_14  and  C_17
REMARK    5  A    between atoms: C_22  and  C_25
REMARK    6  A    between atoms: N_24  and  C_27
REMARK    7  A    between atoms: C_27  and  C_29
REMARK                            x       y       z     vdW  Elec       q    Type
REMARK                         _______ _______ _______ _____ _____    ______ ____
ROOT
ATOM      1 CL   UNL     1      32.428 -12.872 -26.482  0.00  0.00    -0.064 Cl
ATOM      2  O   UNL     1      34.594 -13.853 -22.055  0.00  0.00    -0.266 OA
ATOM      3  N   UNL     1      33.582 -13.358 -24.112  0.00  0.00    -0.233 N 
ATOM      4  N   UNL     1      34.693 -16.504 -22.519  0.00  0.00    -0.310 N 
ATOM      5  N   UNL     1      33.683 -16.128 -24.601  0.00  0.00    -0.223 NA
ATOM      6  C   UNL     1      34.153 -15.677 -23.472  0.00  0.00    +0.183 C 
ATOM      7  C   UNL     1      34.132 -14.192 -23.138  0.00  0.00    +0.285 C 
ATOM      8  C   UNL     1      33.104 -13.909 -25.285  0.00  0.00    +0.133 C 
ATOM      9  C   UNL     1      33.167 -15.228 -25.488  0.00  0.00    +0.127 C 
ATOM     10  H   UNL     1      35.033 -16.108 -21.683  0.00  0.00    +0.149 HD
ENDROOT
BRANCH   4  11
ATOM     11  C   UNL     1      34.778 -17.919 -22.697  0.00  0.00    +0.162 C 
BRANCH  11  14
ATOM     12  F   UNL     1      35.774 -17.573 -20.599  0.00  0.00    -0.196 F 
ATOM     13  F   UNL     1      36.652 -19.080 -21.890  0.00  0.00    -0.196 F 
ATOM     14  C   UNL     1      35.454 -18.562 -21.486  0.00  0.00    +0.317 C 
BRANCH  14  17
ATOM     15  O   UNL     1      36.402 -20.505 -19.778  0.00  0.00    -0.163 OA
ATOM     16  N   UNL     1      35.152 -20.528 -20.031  0.00  0.00    -0.128 N 
ATOM     17  C   UNL     1      34.564 -19.611 -20.867  0.00  0.00    +0.142 C 
ATOM     18  C   UNL     1      33.211 -19.624 -21.148  0.00  0.00    +0.022 C 
ATOM     19  C   UNL     1      34.352 -21.496 -19.456  0.00  0.00    +0.121 C 
ATOM     20  C   UNL     1      32.415 -20.603 -20.563  0.00  0.00    +0.003 C 
ATOM     21  C   UNL     1      32.986 -21.544 -19.712  0.00  0.00    +0.022 C 
ENDBRANCH  14  17
ENDBRANCH  11  14
ENDBRANCH   4  11
BRANCH   3  22
ATOM     22  C   UNL     1      33.525 -11.922 -23.863  0.00  0.00    +0.184 C 
BRANCH  22  25
ATOM     23  O   UNL     1      31.644 -12.475 -22.450  0.00  0.00    -0.273 OA
ATOM     24  N   UNL     1      32.123 -10.241 -22.878  0.00  0.00    -0.299 N 
ATOM     25  C   UNL     1      32.340 -11.608 -22.974  0.00  0.00    +0.243 C 
ATOM     26  H   UNL     1      32.747  -9.636 -23.341  0.00  0.00    +0.150 HD
BRANCH  24  27
ATOM     27  C   UNL     1      31.028  -9.662 -22.132  0.00  0.00    +0.119 C 
BRANCH  27  29
ATOM     28  F   UNL     1      32.608  -9.214 -19.832  0.00  0.00    -0.204 F 
ATOM     29  C   UNL     1      31.358  -8.287 -21.626  0.00  0.00    +0.025 C 
ATOM     30  C   UNL     1      32.142  -8.141 -20.488  0.00  0.00    +0.138 C 
ATOM     31  C   UNL     1      30.875  -7.174 -22.304  0.00  0.00    -0.000 C 
ATOM     32  C   UNL     1      32.447  -6.863 -20.020  0.00  0.00    +0.029 C 
ATOM     33  C   UNL     1      31.181  -5.897 -21.836  0.00  0.00    -0.000 C 
ATOM     34  C   UNL     1      31.966  -5.741 -20.695  0.00  0.00    +0.002 C 
ENDBRANCH  27  29
ENDBRANCH  24  27
ENDBRANCH  22  25
ENDBRANCH   3  22
TORSDOF 7
ENDMDL
