MODEL 1
REMARK VINA RESULT:     -11.9      0.000      0.000
REMARK  Name = 9804992
REMARK  10 active torsions:
REMARK  status: ('A' for Active; 'I' for Inactive)
REMARK    1  A    between atoms: C_1  and  C_9
REMARK    2  A    between atoms: C_1  and  O_19
REMARK    3  A    between atoms: C_2  and  C_12
REMARK    4  A    between atoms: C_12  and  N_13
REMARK    5  A    between atoms: N_13  and  C_15
REMARK    6  A    between atoms: N_13  and  C_17
REMARK    7  A    between atoms: O_19  and  C_22
REMARK    8  A    between atoms: N_21  and  C_24
REMARK    9  A    between atoms: C_27  and  C_32
REMARK   10  A    between atoms: N_31  and  O_34
REMARK                            x       y       z     vdW  Elec       q    Type
REMARK                         _______ _______ _______ _____ _____    ______ ____
ROOT
ATOM      1  C   UNL     1      36.390 -20.363 -20.699  0.00  0.00    +0.237 C 
ENDROOT
BRANCH   1   9
ATOM      2  C   UNL     1      32.375 -23.384 -16.548  0.00  0.00    -0.043 C 
ATOM      3  C   UNL     1      33.156 -22.119 -18.473  0.00  0.00    -0.000 C 
ATOM      4  C   UNL     1      34.486 -22.238 -18.003  0.00  0.00    -0.000 C 
ATOM      5  C   UNL     1      32.112 -22.697 -17.734  0.00  0.00    -0.006 C 
ATOM      6  C   UNL     1      33.682 -23.502 -16.086  0.00  0.00    -0.006 C 
ATOM      7  C   UNL     1      34.732 -22.933 -16.807  0.00  0.00    -0.000 C 
ATOM      8  C   UNL     1      35.530 -21.659 -18.742  0.00  0.00    -0.001 C 
ATOM      9  C   UNL     1      35.268 -20.972 -19.928  0.00  0.00    +0.021 C 
ATOM     10  C   UNL     1      32.910 -21.424 -19.668  0.00  0.00    -0.000 C 
ATOM     11  C   UNL     1      33.960 -20.855 -20.390  0.00  0.00    -0.001 C 
BRANCH   2  12
ATOM     12  C   UNL     1      31.253 -23.993 -15.775  0.00  0.00    -0.050 C 
BRANCH  12  13
ATOM     13  N   UNL     1      30.636 -23.044 -14.848  0.00  0.00    +0.390 N 
ATOM     14  H   UNL     1      31.158 -22.169 -14.883  0.00  0.00    -0.079 HD
BRANCH  13  15
ATOM     15  C   UNL     1      29.254 -22.772 -15.241  0.00  0.00    -0.077 C 
ATOM     16  C   UNL     1      28.599 -24.008 -15.832  0.00  0.00    -0.025 C 
ENDBRANCH  13  15
BRANCH  13  17
ATOM     17  C   UNL     1      30.688 -23.559 -13.481  0.00  0.00    -0.077 C 
ATOM     18  C   UNL     1      31.077 -25.028 -13.462  0.00  0.00    -0.025 C 
ENDBRANCH  13  17
ENDBRANCH  12  13
ENDBRANCH   2  12
ENDBRANCH   1   9
BRANCH   1  19
ATOM     19  O   UNL     1      36.439 -18.966 -20.438  0.00  0.00    -0.429 OA
BRANCH  19  22
ATOM     20  O   UNL     1      34.892 -17.291 -20.608  0.00  0.00    -0.226 OA
ATOM     21  N   UNL     1      35.543 -18.569 -22.458  0.00  0.00    -0.250 N 
ATOM     22  C   UNL     1      35.550 -18.182 -21.132  0.00  0.00    +0.406 C 
ATOM     23  H   UNL     1      36.147 -19.312 -22.693  0.00  0.00    +0.158 HD
BRANCH  21  24
ATOM     24  C   UNL     1      34.779 -18.032 -23.518  0.00  0.00    +0.053 C 
ATOM     25  C   UNL     1      34.727 -16.651 -23.710  0.00  0.00    +0.015 C 
ATOM     26  C   UNL     1      34.076 -18.882 -24.372  0.00  0.00    +0.015 C 
ATOM     27  C   UNL     1      33.268 -16.972 -25.610  0.00  0.00    +0.055 C 
ATOM     28  C   UNL     1      33.971 -16.121 -24.756  0.00  0.00    +0.006 C 
ATOM     29  C   UNL     1      33.321 -18.352 -25.418  0.00  0.00    +0.006 C 
BRANCH  27  32
ATOM     30  O   UNL     1      33.030 -15.817 -27.641  0.00  0.00    -0.268 OA
ATOM     31  N   UNL     1      31.105 -16.580 -26.632  0.00  0.00    -0.193 N 
ATOM     32  C   UNL     1      32.481 -16.418 -26.700  0.00  0.00    +0.268 C 
ATOM     33  H   UNL     1      30.678 -17.058 -25.884  0.00  0.00    +0.183 HD
BRANCH  31  34
ATOM     34  O   UNL     1      30.350 -16.033 -27.680  0.00  0.00    -0.295 OA
ATOM     35  H   UNL     1      29.589 -16.605 -27.864  0.00  0.00    +0.241 HD
ENDBRANCH  31  34
ENDBRANCH  27  32
ENDBRANCH  21  24
ENDBRANCH  19  22
ENDBRANCH   1  19
TORSDOF 10
ENDMDL
MODEL 2
REMARK VINA RESULT:     -11.7      2.733      3.888
REMARK  Name = 9804992
REMARK  10 active torsions:
REMARK  status: ('A' for Active; 'I' for Inactive)
REMARK    1  A    between atoms: C_1  and  C_9
REMARK    2  A    between atoms: C_1  and  O_19
REMARK    3  A    between atoms: C_2  and  C_12
REMARK    4  A    between atoms: C_12  and  N_13
REMARK    5  A    between atoms: N_13  and  C_15
REMARK    6  A    between atoms: N_13  and  C_17
REMARK    7  A    between atoms: O_19  and  C_22
REMARK    8  A    between atoms: N_21  and  C_24
REMARK    9  A    between atoms: C_27  and  C_32
REMARK   10  A    between atoms: N_31  and  O_34
REMARK                            x       y       z     vdW  Elec       q    Type
REMARK                         _______ _______ _______ _____ _____    ______ ____
ROOT
ATOM      1  C   UNL     1      34.788 -20.556 -20.751  0.00  0.00    +0.237 C 
ENDROOT
BRANCH   1   9
ATOM      2  C   UNL     1      36.002 -23.571 -15.101  0.00  0.00    -0.043 C 
ATOM      3  C   UNL     1      34.822 -22.807 -17.086  0.00  0.00    -0.000 C 
ATOM      4  C   UNL     1      35.979 -22.102 -17.495  0.00  0.00    -0.000 C 
ATOM      5  C   UNL     1      34.849 -23.537 -15.887  0.00  0.00    -0.006 C 
ATOM      6  C   UNL     1      37.140 -22.879 -15.503  0.00  0.00    -0.006 C 
ATOM      7  C   UNL     1      37.130 -22.149 -16.691  0.00  0.00    -0.000 C 
ATOM      8  C   UNL     1      35.952 -21.372 -18.694  0.00  0.00    -0.001 C 
ATOM      9  C   UNL     1      34.799 -21.337 -19.480  0.00  0.00    +0.021 C 
ATOM     10  C   UNL     1      33.671 -22.761 -17.890  0.00  0.00    -0.000 C 
ATOM     11  C   UNL     1      33.661 -22.031 -19.079  0.00  0.00    -0.001 C 
BRANCH   2  12
ATOM     12  C   UNL     1      36.013 -24.352 -13.830  0.00  0.00    -0.050 C 
BRANCH  12  13
ATOM     13  N   UNL     1      37.369 -24.583 -13.330  0.00  0.00    +0.390 N 
ATOM     14  H   UNL     1      38.000 -23.926 -13.788  0.00  0.00    -0.079 HD
BRANCH  13  15
ATOM     15  C   UNL     1      37.427 -24.350 -11.888  0.00  0.00    -0.077 C 
ATOM     16  C   UNL     1      36.210 -23.578 -11.407  0.00  0.00    -0.025 C 
ENDBRANCH  13  15
BRANCH  13  17
ATOM     17  C   UNL     1      37.805 -25.941 -13.648  0.00  0.00    -0.077 C 
ATOM     18  C   UNL     1      39.225 -25.950 -14.187  0.00  0.00    -0.025 C 
ENDBRANCH  13  17
ENDBRANCH  12  13
ENDBRANCH   2  12
ENDBRANCH   1   9
BRANCH   1  19
ATOM     19  O   UNL     1      35.470 -19.324 -20.554  0.00  0.00    -0.429 OA
BRANCH  19  22
ATOM     20  O   UNL     1      34.880 -17.126 -20.780  0.00  0.00    -0.226 OA
ATOM     21  N   UNL     1      34.716 -18.643 -22.556  0.00  0.00    -0.250 N 
ATOM     22  C   UNL     1      35.002 -18.245 -21.264  0.00  0.00    +0.406 C 
ATOM     23  H   UNL     1      34.882 -19.593 -22.761  0.00  0.00    +0.158 HD
BRANCH  21  24
ATOM     24  C   UNL     1      34.215 -17.858 -23.618  0.00  0.00    +0.053 C 
ATOM     25  C   UNL     1      33.658 -18.475 -24.739  0.00  0.00    +0.015 C 
ATOM     26  C   UNL     1      34.278 -16.466 -23.547  0.00  0.00    +0.015 C 
ATOM     27  C   UNL     1      33.227 -16.308 -25.717  0.00  0.00    +0.055 C 
ATOM     28  C   UNL     1      33.164 -17.700 -25.788  0.00  0.00    +0.006 C 
ATOM     29  C   UNL     1      33.784 -15.692 -24.597  0.00  0.00    +0.006 C 
BRANCH  27  32
ATOM     30  O   UNL     1      32.713 -15.935 -27.978  0.00  0.00    -0.268 OA
ATOM     31  N   UNL     1      32.239 -14.235 -26.497  0.00  0.00    -0.193 N 
ATOM     32  C   UNL     1      32.713 -15.501 -26.811  0.00  0.00    +0.268 C 
ATOM     33  H   UNL     1      32.242 -13.899 -25.570  0.00  0.00    +0.183 HD
BRANCH  31  34
ATOM     34  O   UNL     1      31.757 -13.457 -27.558  0.00  0.00    -0.295 OA
ATOM     35  H   UNL     1      30.986 -12.947 -27.262  0.00  0.00    +0.241 HD
ENDBRANCH  31  34
ENDBRANCH  27  32
ENDBRANCH  21  24
ENDBRANCH  19  22
ENDBRANCH   1  19
TORSDOF 10
ENDMDL
MODEL 3
REMARK VINA RESULT:     -11.3      3.673     11.401
REMARK  Name = 9804992
REMARK  10 active torsions:
REMARK  status: ('A' for Active; 'I' for Inactive)
REMARK    1  A    between atoms: C_1  and  C_9
REMARK    2  A    between atoms: C_1  and  O_19
REMARK    3  A    between atoms: C_2  and  C_12
REMARK    4  A    between atoms: C_12  and  N_13
REMARK    5  A    between atoms: N_13  and  C_15
REMARK    6  A    between atoms: N_13  and  C_17
REMARK    7  A    between atoms: O_19  and  C_22
REMARK    8  A    between atoms: N_21  and  C_24
REMARK    9  A    between atoms: C_27  and  C_32
REMARK   10  A    between atoms: N_31  and  O_34
REMARK                            x       y       z     vdW  Elec       q    Type
REMARK                         _______ _______ _______ _____ _____    ______ ____
ROOT
ATOM      1  C   UNL     1      35.315 -20.233 -20.282  0.00  0.00    +0.237 C 
ENDROOT
BRANCH   1   9
ATOM      2  C   UNL     1      33.911 -16.702 -25.578  0.00  0.00    -0.043 C 
ATOM      3  C   UNL     1      34.541 -17.265 -23.297  0.00  0.00    -0.000 C 
ATOM      4  C   UNL     1      34.418 -18.640 -23.610  0.00  0.00    -0.000 C 
ATOM      5  C   UNL     1      34.285 -16.309 -24.293  0.00  0.00    -0.006 C 
ATOM      6  C   UNL     1      33.791 -18.054 -25.885  0.00  0.00    -0.006 C 
ATOM      7  C   UNL     1      34.041 -19.018 -24.909  0.00  0.00    -0.000 C 
ATOM      8  C   UNL     1      34.674 -19.596 -22.614  0.00  0.00    -0.001 C 
ATOM      9  C   UNL     1      35.047 -19.203 -21.328  0.00  0.00    +0.021 C 
ATOM     10  C   UNL     1      34.917 -16.887 -21.998  0.00  0.00    -0.000 C 
ATOM     11  C   UNL     1      35.169 -17.851 -21.021  0.00  0.00    -0.001 C 
BRANCH   2  12
ATOM     12  C   UNL     1      33.642 -15.673 -26.624  0.00  0.00    -0.050 C 
BRANCH  12  13
ATOM     13  N   UNL     1      32.277 -15.152 -26.555  0.00  0.00    +0.390 N 
ATOM     14  H   UNL     1      31.886 -15.385 -25.642  0.00  0.00    -0.079 HD
BRANCH  13  15
ATOM     15  C   UNL     1      32.279 -13.696 -26.697  0.00  0.00    -0.077 C 
ATOM     16  C   UNL     1      32.979 -13.031 -25.525  0.00  0.00    -0.025 C 
ENDBRANCH  13  15
BRANCH  13  17
ATOM     17  C   UNL     1      31.444 -15.766 -27.586  0.00  0.00    -0.077 C 
ATOM     18  C   UNL     1      30.210 -14.925 -27.870  0.00  0.00    -0.025 C 
ENDBRANCH  13  17
ENDBRANCH  12  13
ENDBRANCH   2  12
ENDBRANCH   1   9
BRANCH   1  19
ATOM     19  O   UNL     1      34.214 -21.129 -20.209  0.00  0.00    -0.429 OA
BRANCH  19  22
ATOM     20  O   UNL     1      33.702 -23.191 -19.361  0.00  0.00    -0.226 OA
ATOM     21  N   UNL     1      35.131 -21.710 -18.245  0.00  0.00    -0.250 N 
ATOM     22  C   UNL     1      34.296 -22.123 -19.264  0.00  0.00    +0.406 C 
ATOM     23  H   UNL     1      35.521 -20.811 -18.344  0.00  0.00    +0.158 HD
BRANCH  21  24
ATOM     24  C   UNL     1      35.495 -22.417 -17.077  0.00  0.00    +0.053 C 
ATOM     25  C   UNL     1      34.531 -23.133 -16.366  0.00  0.00    +0.015 C 
ATOM     26  C   UNL     1      36.818 -22.399 -16.634  0.00  0.00    +0.015 C 
ATOM     27  C   UNL     1      36.213 -23.812 -14.769  0.00  0.00    +0.055 C 
ATOM     28  C   UNL     1      34.890 -23.830 -15.212  0.00  0.00    +0.006 C 
ATOM     29  C   UNL     1      37.177 -23.096 -15.480  0.00  0.00    +0.006 C 
BRANCH  27  32
ATOM     30  O   UNL     1      37.780 -24.632 -13.224  0.00  0.00    -0.268 OA
ATOM     31  N   UNL     1      35.562 -25.125 -12.838  0.00  0.00    -0.193 N 
ATOM     32  C   UNL     1      36.587 -24.538 -13.567  0.00  0.00    +0.268 C 
ATOM     33  H   UNL     1      34.620 -25.045 -13.116  0.00  0.00    +0.183 HD
BRANCH  31  34
ATOM     34  O   UNL     1      35.930 -25.835 -11.686  0.00  0.00    -0.295 OA
ATOM     35  H   UNL     1      36.672 -25.386 -11.251  0.00  0.00    +0.241 HD
ENDBRANCH  31  34
ENDBRANCH  27  32
ENDBRANCH  21  24
ENDBRANCH  19  22
ENDBRANCH   1  19
TORSDOF 10
ENDMDL
MODEL 4
REMARK VINA RESULT:     -11.3      2.629      3.990
REMARK  Name = 9804992
REMARK  10 active torsions:
REMARK  status: ('A' for Active; 'I' for Inactive)
REMARK    1  A    between atoms: C_1  and  C_9
REMARK    2  A    between atoms: C_1  and  O_19
REMARK    3  A    between atoms: C_2  and  C_12
REMARK    4  A    between atoms: C_12  and  N_13
REMARK    5  A    between atoms: N_13  and  C_15
REMARK    6  A    between atoms: N_13  and  C_17
REMARK    7  A    between atoms: O_19  and  C_22
REMARK    8  A    between atoms: N_21  and  C_24
REMARK    9  A    between atoms: C_27  and  C_32
REMARK   10  A    between atoms: N_31  and  O_34
REMARK                            x       y       z     vdW  Elec       q    Type
REMARK                         _______ _______ _______ _____ _____    ______ ____
ROOT
ATOM      1  C   UNL     1      34.034 -20.759 -20.809  0.00  0.00    +0.237 C 
ENDROOT
BRANCH   1   9
ATOM      2  C   UNL     1      35.771 -23.535 -15.174  0.00  0.00    -0.043 C 
ATOM      3  C   UNL     1      35.911 -22.272 -17.248  0.00  0.00    -0.000 C 
ATOM      4  C   UNL     1      34.545 -22.546 -17.499  0.00  0.00    -0.000 C 
ATOM      5  C   UNL     1      36.508 -22.774 -16.080  0.00  0.00    -0.006 C 
ATOM      6  C   UNL     1      34.428 -23.803 -15.420  0.00  0.00    -0.006 C 
ATOM      7  C   UNL     1      33.817 -23.313 -16.574  0.00  0.00    -0.000 C 
ATOM      8  C   UNL     1      33.947 -22.044 -18.666  0.00  0.00    -0.001 C 
ATOM      9  C   UNL     1      34.685 -21.283 -19.574  0.00  0.00    +0.021 C 
ATOM     10  C   UNL     1      36.638 -21.504 -18.172  0.00  0.00    -0.000 C 
ATOM     11  C   UNL     1      36.028 -21.013 -19.327  0.00  0.00    -0.001 C 
BRANCH   2  12
ATOM     12  C   UNL     1      36.422 -24.060 -13.938  0.00  0.00    -0.050 C 
BRANCH  12  13
ATOM     13  N   UNL     1      37.353 -25.153 -14.221  0.00  0.00    +0.390 N 
ATOM     14  H   UNL     1      37.681 -25.060 -15.183  0.00  0.00    -0.079 HD
BRANCH  13  15
ATOM     15  C   UNL     1      38.510 -25.080 -13.330  0.00  0.00    -0.077 C 
ATOM     16  C   UNL     1      39.796 -25.395 -14.073  0.00  0.00    -0.025 C 
ENDBRANCH  13  15
BRANCH  13  17
ATOM     17  C   UNL     1      36.681 -26.443 -14.085  0.00  0.00    -0.077 C 
ATOM     18  C   UNL     1      36.439 -27.083 -15.441  0.00  0.00    -0.025 C 
ENDBRANCH  13  17
ENDBRANCH  12  13
ENDBRANCH   2  12
ENDBRANCH   1   9
BRANCH   1  19
ATOM     19  O   UNL     1      34.983 -20.020 -21.567  0.00  0.00    -0.429 OA
BRANCH  19  22
ATOM     20  O   UNL     1      34.441 -17.798 -21.608  0.00  0.00    -0.226 OA
ATOM     21  N   UNL     1      34.192 -19.171 -23.488  0.00  0.00    -0.250 N 
ATOM     22  C   UNL     1      34.523 -18.879 -22.179  0.00  0.00    +0.406 C 
ATOM     23  H   UNL     1      34.329 -20.105 -23.770  0.00  0.00    +0.158 HD
BRANCH  21  24
ATOM     24  C   UNL     1      33.682 -18.295 -24.473  0.00  0.00    +0.053 C 
ATOM     25  C   UNL     1      34.279 -17.050 -24.676  0.00  0.00    +0.015 C 
ATOM     26  C   UNL     1      32.582 -18.675 -25.242  0.00  0.00    +0.015 C 
ATOM     27  C   UNL     1      32.674 -16.566 -26.416  0.00  0.00    +0.055 C 
ATOM     28  C   UNL     1      33.775 -16.186 -25.647  0.00  0.00    +0.006 C 
ATOM     29  C   UNL     1      32.078 -17.810 -26.213  0.00  0.00    +0.006 C 
BRANCH  27  32
ATOM     30  O   UNL     1      32.915 -14.963 -28.116  0.00  0.00    -0.268 OA
ATOM     31  N   UNL     1      30.771 -15.614 -27.579  0.00  0.00    -0.193 N 
ATOM     32  C   UNL     1      32.149 -15.663 -27.428  0.00  0.00    +0.268 C 
ATOM     33  H   UNL     1      30.172 -16.173 -27.031  0.00  0.00    +0.183 HD
BRANCH  31  34
ATOM     34  O   UNL     1      30.270 -14.733 -28.548  0.00  0.00    -0.295 OA
ATOM     35  H   UNL     1      29.732 -15.225 -29.187  0.00  0.00    +0.241 HD
ENDBRANCH  31  34
ENDBRANCH  27  32
ENDBRANCH  21  24
ENDBRANCH  19  22
ENDBRANCH   1  19
TORSDOF 10
ENDMDL
MODEL 5
REMARK VINA RESULT:     -11.3      1.518      2.188
REMARK  Name = 9804992
REMARK  10 active torsions:
REMARK  status: ('A' for Active; 'I' for Inactive)
REMARK    1  A    between atoms: C_1  and  C_9
REMARK    2  A    between atoms: C_1  and  O_19
REMARK    3  A    between atoms: C_2  and  C_12
REMARK    4  A    between atoms: C_12  and  N_13
REMARK    5  A    between atoms: N_13  and  C_15
REMARK    6  A    between atoms: N_13  and  C_17
REMARK    7  A    between atoms: O_19  and  C_22
REMARK    8  A    between atoms: N_21  and  C_24
REMARK    9  A    between atoms: C_27  and  C_32
REMARK   10  A    between atoms: N_31  and  O_34
REMARK                            x       y       z     vdW  Elec       q    Type
REMARK                         _______ _______ _______ _____ _____    ______ ____
ROOT
ATOM      1  C   UNL     1      35.837 -20.110 -20.987  0.00  0.00    +0.237 C 
ENDROOT
BRANCH   1   9
ATOM      2  C   UNL     1      34.804 -23.628 -15.598  0.00  0.00    -0.043 C 
ATOM      3  C   UNL     1      34.406 -22.525 -17.729  0.00  0.00    -0.000 C 
ATOM      4  C   UNL     1      35.739 -22.052 -17.726  0.00  0.00    -0.000 C 
ATOM      5  C   UNL     1      33.954 -23.312 -16.657  0.00  0.00    -0.006 C 
ATOM      6  C   UNL     1      36.116 -23.163 -15.595  0.00  0.00    -0.006 C 
ATOM      7  C   UNL     1      36.582 -22.380 -16.651  0.00  0.00    -0.000 C 
ATOM      8  C   UNL     1      36.191 -21.265 -18.797  0.00  0.00    -0.001 C 
ATOM      9  C   UNL     1      35.340 -20.948 -19.857  0.00  0.00    +0.021 C 
ATOM     10  C   UNL     1      33.563 -22.197 -18.803  0.00  0.00    -0.000 C 
ATOM     11  C   UNL     1      34.029 -21.414 -19.860  0.00  0.00    -0.001 C 
BRANCH   2  12
ATOM     12  C   UNL     1      34.308 -24.465 -14.467  0.00  0.00    -0.050 C 
BRANCH  12  13
ATOM     13  N   UNL     1      33.821 -23.658 -13.348  0.00  0.00    +0.390 N 
ATOM     14  H   UNL     1      34.117 -22.692 -13.491  0.00  0.00    -0.079 HD
BRANCH  13  15
ATOM     15  C   UNL     1      32.361 -23.691 -13.293  0.00  0.00    -0.077 C 
ATOM     16  C   UNL     1      31.814 -24.936 -13.968  0.00  0.00    -0.025 C 
ENDBRANCH  13  15
BRANCH  13  17
ATOM     17  C   UNL     1      34.392 -24.134 -12.090  0.00  0.00    -0.077 C 
ATOM     18  C   UNL     1      35.707 -24.860 -12.323  0.00  0.00    -0.025 C 
ENDBRANCH  13  17
ENDBRANCH  12  13
ENDBRANCH   2  12
ENDBRANCH   1   9
BRANCH   1  19
ATOM     19  O   UNL     1      35.895 -18.750 -20.577  0.00  0.00    -0.429 OA
BRANCH  19  22
ATOM     20  O   UNL     1      34.777 -16.782 -20.902  0.00  0.00    -0.226 OA
ATOM     21  N   UNL     1      35.036 -18.358 -22.613  0.00  0.00    -0.250 N 
ATOM     22  C   UNL     1      35.186 -17.851 -21.337  0.00  0.00    +0.406 C 
ATOM     23  H   UNL     1      35.439 -19.242 -22.777  0.00  0.00    +0.158 HD
BRANCH  21  24
ATOM     24  C   UNL     1      34.377 -17.765 -23.714  0.00  0.00    +0.053 C 
ATOM     25  C   UNL     1      33.465 -18.509 -24.464  0.00  0.00    +0.015 C 
ATOM     26  C   UNL     1      34.637 -16.437 -24.050  0.00  0.00    +0.015 C 
ATOM     27  C   UNL     1      33.076 -16.596 -25.887  0.00  0.00    +0.055 C 
ATOM     28  C   UNL     1      32.815 -17.925 -25.550  0.00  0.00    +0.006 C 
ATOM     29  C   UNL     1      33.987 -15.852 -25.137  0.00  0.00    +0.006 C 
BRANCH  27  32
ATOM     30  O   UNL     1      33.047 -15.467 -27.947  0.00  0.00    -0.268 OA
ATOM     31  N   UNL     1      31.011 -16.004 -27.012  0.00  0.00    -0.193 N 
ATOM     32  C   UNL     1      32.398 -15.987 -27.020  0.00  0.00    +0.268 C 
ATOM     33  H   UNL     1      30.505 -16.418 -26.275  0.00  0.00    +0.183 HD
BRANCH  31  34
ATOM     34  O   UNL     1      30.363 -15.404 -28.101  0.00  0.00    -0.295 OA
ATOM     35  H   UNL     1      30.205 -14.467 -27.908  0.00  0.00    +0.241 HD
ENDBRANCH  31  34
ENDBRANCH  27  32
ENDBRANCH  21  24
ENDBRANCH  19  22
ENDBRANCH   1  19
TORSDOF 10
ENDMDL
MODEL 6
REMARK VINA RESULT:     -11.1      4.167     11.341
REMARK  Name = 9804992
REMARK  10 active torsions:
REMARK  status: ('A' for Active; 'I' for Inactive)
REMARK    1  A    between atoms: C_1  and  C_9
REMARK    2  A    between atoms: C_1  and  O_19
REMARK    3  A    between atoms: C_2  and  C_12
REMARK    4  A    between atoms: C_12  and  N_13
REMARK    5  A    between atoms: N_13  and  C_15
REMARK    6  A    between atoms: N_13  and  C_17
REMARK    7  A    between atoms: O_19  and  C_22
REMARK    8  A    between atoms: N_21  and  C_24
REMARK    9  A    between atoms: C_27  and  C_32
REMARK   10  A    between atoms: N_31  and  O_34
REMARK                            x       y       z     vdW  Elec       q    Type
REMARK                         _______ _______ _______ _____ _____    ______ ____
ROOT
ATOM      1  C   UNL     1      34.491 -18.045 -23.565  0.00  0.00    +0.237 C 
ENDROOT
BRANCH   1   9
ATOM      2  C   UNL     1      33.058 -11.835 -24.929  0.00  0.00    -0.043 C 
ATOM      3  C   UNL     1      33.820 -13.799 -23.714  0.00  0.00    -0.000 C 
ATOM      4  C   UNL     1      33.497 -14.607 -24.831  0.00  0.00    -0.000 C 
ATOM      5  C   UNL     1      33.594 -12.415 -23.779  0.00  0.00    -0.006 C 
ATOM      6  C   UNL     1      32.741 -12.628 -26.027  0.00  0.00    -0.006 C 
ATOM      7  C   UNL     1      32.958 -14.005 -25.980  0.00  0.00    -0.000 C 
ATOM      8  C   UNL     1      33.723 -15.991 -24.766  0.00  0.00    -0.001 C 
ATOM      9  C   UNL     1      34.258 -16.572 -23.616  0.00  0.00    +0.021 C 
ATOM     10  C   UNL     1      34.358 -14.401 -22.565  0.00  0.00    -0.000 C 
ATOM     11  C   UNL     1      34.576 -15.779 -22.518  0.00  0.00    -0.001 C 
BRANCH   2  12
ATOM     12  C   UNL     1      32.825 -10.362 -24.980  0.00  0.00    -0.050 C 
BRANCH  12  13
ATOM     13  N   UNL     1      33.498  -9.653 -23.892  0.00  0.00    +0.390 N 
ATOM     14  H   UNL     1      33.954 -10.338 -23.290  0.00  0.00    -0.079 HD
BRANCH  13  15
ATOM     15  C   UNL     1      34.522  -8.755 -24.426  0.00  0.00    -0.077 C 
ATOM     16  C   UNL     1      35.640  -9.534 -25.096  0.00  0.00    -0.025 C 
ENDBRANCH  13  15
BRANCH  13  17
ATOM     17  C   UNL     1      32.529  -8.907 -23.093  0.00  0.00    -0.077 C 
ATOM     18  C   UNL     1      33.220  -7.888 -22.201  0.00  0.00    -0.025 C 
ENDBRANCH  13  17
ENDBRANCH  12  13
ENDBRANCH   2  12
ENDBRANCH   1   9
BRANCH   1  19
ATOM     19  O   UNL     1      35.689 -18.309 -22.847  0.00  0.00    -0.429 OA
BRANCH  19  22
ATOM     20  O   UNL     1      36.082 -18.292 -20.594  0.00  0.00    -0.226 OA
ATOM     21  N   UNL     1      34.717 -19.904 -21.602  0.00  0.00    -0.250 N 
ATOM     22  C   UNL     1      35.543 -18.798 -21.571  0.00  0.00    +0.406 C 
ATOM     23  H   UNL     1      34.375 -20.163 -22.490  0.00  0.00    +0.158 HD
BRANCH  21  24
ATOM     24  C   UNL     1      34.301 -20.711 -20.519  0.00  0.00    +0.053 C 
ATOM     25  C   UNL     1      35.245 -21.416 -19.773  0.00  0.00    +0.015 C 
ATOM     26  C   UNL     1      32.947 -20.803 -20.197  0.00  0.00    +0.015 C 
ATOM     27  C   UNL     1      33.480 -22.306 -18.383  0.00  0.00    +0.055 C 
ATOM     28  C   UNL     1      34.835 -22.214 -18.704  0.00  0.00    +0.006 C 
ATOM     29  C   UNL     1      32.537 -21.601 -19.129  0.00  0.00    +0.006 C 
BRANCH  27  32
ATOM     30  O   UNL     1      33.851 -23.913 -16.711  0.00  0.00    -0.268 OA
ATOM     31  N   UNL     1      31.727 -23.034 -16.873  0.00  0.00    -0.193 N 
ATOM     32  C   UNL     1      33.053 -23.138 -17.269  0.00  0.00    +0.268 C 
ATOM     33  H   UNL     1      31.103 -22.417 -17.320  0.00  0.00    +0.183 HD
BRANCH  31  34
ATOM     34  O   UNL     1      31.319 -23.848 -15.807  0.00  0.00    -0.295 OA
ATOM     35  H   UNL     1      30.840 -24.618 -16.152  0.00  0.00    +0.241 HD
ENDBRANCH  31  34
ENDBRANCH  27  32
ENDBRANCH  21  24
ENDBRANCH  19  22
ENDBRANCH   1  19
TORSDOF 10
ENDMDL
MODEL 7
REMARK VINA RESULT:     -11.1      5.995     11.620
REMARK  Name = 9804992
REMARK  10 active torsions:
REMARK  status: ('A' for Active; 'I' for Inactive)
REMARK    1  A    between atoms: C_1  and  C_9
REMARK    2  A    between atoms: C_1  and  O_19
REMARK    3  A    between atoms: C_2  and  C_12
REMARK    4  A    between atoms: C_12  and  N_13
REMARK    5  A    between atoms: N_13  and  C_15
REMARK    6  A    between atoms: N_13  and  C_17
REMARK    7  A    between atoms: O_19  and  C_22
REMARK    8  A    between atoms: N_21  and  C_24
REMARK    9  A    between atoms: C_27  and  C_32
REMARK   10  A    between atoms: N_31  and  O_34
REMARK                            x       y       z     vdW  Elec       q    Type
REMARK                         _______ _______ _______ _____ _____    ______ ____
ROOT
ATOM      1  C   UNL     1      33.762 -15.053 -23.978  0.00  0.00    +0.237 C 
ENDROOT
BRANCH   1   9
ATOM      2  C   UNL     1      31.436  -9.307 -21.965  0.00  0.00    -0.043 C 
ATOM      3  C   UNL     1      32.631 -10.962 -23.289  0.00  0.00    -0.000 C 
ATOM      4  C   UNL     1      32.175 -11.979 -22.416  0.00  0.00    -0.000 C 
ATOM      5  C   UNL     1      32.253  -9.631 -23.049  0.00  0.00    -0.006 C 
ATOM      6  C   UNL     1      30.987 -10.307 -21.108  0.00  0.00    -0.006 C 
ATOM      7  C   UNL     1      31.353 -11.634 -21.330  0.00  0.00    -0.000 C 
ATOM      8  C   UNL     1      32.553 -13.309 -22.656  0.00  0.00    -0.001 C 
ATOM      9  C   UNL     1      33.370 -13.634 -23.739  0.00  0.00    +0.021 C 
ATOM     10  C   UNL     1      33.452 -11.306 -24.374  0.00  0.00    -0.000 C 
ATOM     11  C   UNL     1      33.818 -12.634 -24.597  0.00  0.00    -0.001 C 
BRANCH   2  12
ATOM     12  C   UNL     1      31.044  -7.887 -21.726  0.00  0.00    -0.050 C 
BRANCH  12  13
ATOM     13  N   UNL     1      32.203  -7.002 -21.605  0.00  0.00    +0.390 N 
ATOM     14  H   UNL     1      32.972  -7.397 -22.146  0.00  0.00    -0.079 HD
BRANCH  13  15
ATOM     15  C   UNL     1      31.892  -5.679 -22.143  0.00  0.00    -0.077 C 
ATOM     16  C   UNL     1      30.495  -5.643 -22.739  0.00  0.00    -0.025 C 
ENDBRANCH  13  15
BRANCH  13  17
ATOM     17  C   UNL     1      32.624  -6.901 -20.209  0.00  0.00    -0.077 C 
ATOM     18  C   UNL     1      31.448  -6.579 -19.302  0.00  0.00    -0.025 C 
ENDBRANCH  13  17
ENDBRANCH  12  13
ENDBRANCH   2  12
ENDBRANCH   1   9
BRANCH   1  19
ATOM     19  O   UNL     1      34.952 -15.343 -23.255  0.00  0.00    -0.429 OA
BRANCH  19  22
ATOM     20  O   UNL     1      34.642 -15.667 -21.012  0.00  0.00    -0.226 OA
ATOM     21  N   UNL     1      34.891 -17.456 -22.502  0.00  0.00    -0.250 N 
ATOM     22  C   UNL     1      34.812 -16.127 -22.136  0.00  0.00    +0.406 C 
ATOM     23  H   UNL     1      35.030 -17.632 -23.461  0.00  0.00    +0.158 HD
BRANCH  21  24
ATOM     24  C   UNL     1      34.798 -18.595 -21.671  0.00  0.00    +0.053 C 
ATOM     25  C   UNL     1      35.948 -19.127 -21.086  0.00  0.00    +0.015 C 
ATOM     26  C   UNL     1      33.557 -19.188 -21.436  0.00  0.00    +0.015 C 
ATOM     27  C   UNL     1      34.615 -20.846 -20.032  0.00  0.00    +0.055 C 
ATOM     28  C   UNL     1      35.856 -20.253 -20.266  0.00  0.00    +0.006 C 
ATOM     29  C   UNL     1      33.466 -20.314 -20.617  0.00  0.00    +0.006 C 
BRANCH  27  32
ATOM     30  O   UNL     1      35.388 -22.250 -18.315  0.00  0.00    -0.268 OA
ATOM     31  N   UNL     1      33.437 -22.862 -19.378  0.00  0.00    -0.193 N 
ATOM     32  C   UNL     1      34.520 -22.019 -19.178  0.00  0.00    +0.268 C 
ATOM     33  H   UNL     1      32.755 -22.671 -20.063  0.00  0.00    +0.183 HD
BRANCH  31  34
ATOM     34  O   UNL     1      33.358 -23.998 -18.560  0.00  0.00    -0.295 OA
ATOM     35  H   UNL     1      33.178 -23.728 -17.646  0.00  0.00    +0.241 HD
ENDBRANCH  31  34
ENDBRANCH  27  32
ENDBRANCH  21  24
ENDBRANCH  19  22
ENDBRANCH   1  19
TORSDOF 10
ENDMDL
MODEL 8
REMARK VINA RESULT:     -11.1      4.524     11.706
REMARK  Name = 9804992
REMARK  10 active torsions:
REMARK  status: ('A' for Active; 'I' for Inactive)
REMARK    1  A    between atoms: C_1  and  C_9
REMARK    2  A    between atoms: C_1  and  O_19
REMARK    3  A    between atoms: C_2  and  C_12
REMARK    4  A    between atoms: C_12  and  N_13
REMARK    5  A    between atoms: N_13  and  C_15
REMARK    6  A    between atoms: N_13  and  C_17
REMARK    7  A    between atoms: O_19  and  C_22
REMARK    8  A    between atoms: N_21  and  C_24
REMARK    9  A    between atoms: C_27  and  C_32
REMARK   10  A    between atoms: N_31  and  O_34
REMARK                            x       y       z     vdW  Elec       q    Type
REMARK                         _______ _______ _______ _____ _____    ______ ____
ROOT
ATOM      1  C   UNL     1      33.565 -17.214 -25.329  0.00  0.00    +0.237 C 
ENDROOT
BRANCH   1   9
ATOM      2  C   UNL     1      32.738 -10.770 -25.857  0.00  0.00    -0.043 C 
ATOM      3  C   UNL     1      33.230 -12.948 -24.893  0.00  0.00    -0.000 C 
ATOM      4  C   UNL     1      32.958 -13.555 -26.142  0.00  0.00    -0.000 C 
ATOM      5  C   UNL     1      33.115 -11.555 -24.767  0.00  0.00    -0.006 C 
ATOM      6  C   UNL     1      32.471 -11.367 -27.085  0.00  0.00    -0.006 C 
ATOM      7  C   UNL     1      32.580 -12.750 -27.229  0.00  0.00    -0.000 C 
ATOM      8  C   UNL     1      33.073 -14.949 -26.268  0.00  0.00    -0.001 C 
ATOM      9  C   UNL     1      33.449 -15.734 -25.177  0.00  0.00    +0.021 C 
ATOM     10  C   UNL     1      33.608 -13.754 -23.806  0.00  0.00    -0.000 C 
ATOM     11  C   UNL     1      33.717 -15.138 -23.949  0.00  0.00    -0.001 C 
BRANCH   2  12
ATOM     12  C   UNL     1      32.621  -9.291 -25.705  0.00  0.00    -0.050 C 
BRANCH  12  13
ATOM     13  N   UNL     1      32.862  -8.851 -24.331  0.00  0.00    +0.390 N 
ATOM     14  H   UNL     1      33.100  -9.666 -23.766  0.00  0.00    -0.079 HD
BRANCH  13  15
ATOM     15  C   UNL     1      33.985  -7.915 -24.286  0.00  0.00    -0.077 C 
ATOM     16  C   UNL     1      35.311  -8.651 -24.214  0.00  0.00    -0.025 C 
ENDBRANCH  13  15
BRANCH  13  17
ATOM     17  C   UNL     1      31.660  -8.236 -23.773  0.00  0.00    -0.077 C 
ATOM     18  C   UNL     1      31.077  -9.083 -22.655  0.00  0.00    -0.025 C 
ENDBRANCH  13  17
ENDBRANCH  12  13
ENDBRANCH   2  12
ENDBRANCH   1   9
BRANCH   1  19
ATOM     19  O   UNL     1      34.700 -17.675 -24.607  0.00  0.00    -0.429 OA
BRANCH  19  22
ATOM     20  O   UNL     1      34.593 -19.957 -24.493  0.00  0.00    -0.226 OA
ATOM     21  N   UNL     1      34.372 -18.608 -22.592  0.00  0.00    -0.250 N 
ATOM     22  C   UNL     1      34.555 -18.866 -23.937  0.00  0.00    +0.406 C 
ATOM     23  H   UNL     1      34.372 -17.658 -22.331  0.00  0.00    +0.158 HD
BRANCH  21  24
ATOM     24  C   UNL     1      34.185 -19.539 -21.545  0.00  0.00    +0.053 C 
ATOM     25  C   UNL     1      35.287 -20.179 -20.976  0.00  0.00    +0.015 C 
ATOM     26  C   UNL     1      32.900 -19.818 -21.081  0.00  0.00    +0.015 C 
ATOM     27  C   UNL     1      33.816 -21.377 -19.479  0.00  0.00    +0.055 C 
ATOM     28  C   UNL     1      35.102 -21.098 -19.943  0.00  0.00    +0.006 C 
ATOM     29  C   UNL     1      32.715 -20.737 -20.048  0.00  0.00    +0.006 C 
BRANCH  27  32
ATOM     30  O   UNL     1      34.600 -22.841 -17.819  0.00  0.00    -0.268 OA
ATOM     31  N   UNL     1      32.317 -22.664 -18.073  0.00  0.00    -0.193 N 
ATOM     32  C   UNL     1      33.624 -22.336 -18.403  0.00  0.00    +0.268 C 
ATOM     33  H   UNL     1      31.550 -22.259 -18.540  0.00  0.00    +0.183 HD
BRANCH  31  34
ATOM     34  O   UNL     1      32.139 -23.599 -17.043  0.00  0.00    -0.295 OA
ATOM     35  H   UNL     1      31.628 -23.195 -16.324  0.00  0.00    +0.241 HD
ENDBRANCH  31  34
ENDBRANCH  27  32
ENDBRANCH  21  24
ENDBRANCH  19  22
ENDBRANCH   1  19
TORSDOF 10
ENDMDL
MODEL 9
REMARK VINA RESULT:     -11.0      4.183     11.291
REMARK  Name = 9804992
REMARK  10 active torsions:
REMARK  status: ('A' for Active; 'I' for Inactive)
REMARK    1  A    between atoms: C_1  and  C_9
REMARK    2  A    between atoms: C_1  and  O_19
REMARK    3  A    between atoms: C_2  and  C_12
REMARK    4  A    between atoms: C_12  and  N_13
REMARK    5  A    between atoms: N_13  and  C_15
REMARK    6  A    between atoms: N_13  and  C_17
REMARK    7  A    between atoms: O_19  and  C_22
REMARK    8  A    between atoms: N_21  and  C_24
REMARK    9  A    between atoms: C_27  and  C_32
REMARK   10  A    between atoms: N_31  and  O_34
REMARK                            x       y       z     vdW  Elec       q    Type
REMARK                         _______ _______ _______ _____ _____    ______ ____
ROOT
ATOM      1  C   UNL     1      33.531 -22.770 -19.024  0.00  0.00    +0.237 C 
ENDROOT
BRANCH   1   9
ATOM      2  C   UNL     1      35.216 -17.620 -22.646  0.00  0.00    -0.043 C 
ATOM      3  C   UNL     1      33.842 -19.270 -21.503  0.00  0.00    -0.000 C 
ATOM      4  C   UNL     1      35.013 -19.905 -21.026  0.00  0.00    -0.000 C 
ATOM      5  C   UNL     1      33.960 -18.128 -22.312  0.00  0.00    -0.006 C 
ATOM      6  C   UNL     1      36.367 -18.244 -22.176  0.00  0.00    -0.006 C 
ATOM      7  C   UNL     1      36.269 -19.379 -21.371  0.00  0.00    -0.000 C 
ATOM      8  C   UNL     1      34.894 -21.047 -20.217  0.00  0.00    -0.001 C 
ATOM      9  C   UNL     1      33.638 -21.556 -19.884  0.00  0.00    +0.021 C 
ATOM     10  C   UNL     1      32.586 -19.796 -21.158  0.00  0.00    -0.000 C 
ATOM     11  C   UNL     1      32.486 -20.932 -20.353  0.00  0.00    -0.001 C 
BRANCH   2  12
ATOM     12  C   UNL     1      35.324 -16.406 -23.506  0.00  0.00    -0.050 C 
BRANCH  12  13
ATOM     13  N   UNL     1      34.103 -16.157 -24.273  0.00  0.00    +0.390 N 
ATOM     14  H   UNL     1      33.341 -16.689 -23.853  0.00  0.00    -0.079 HD
BRANCH  13  15
ATOM     15  C   UNL     1      33.754 -14.738 -24.229  0.00  0.00    -0.077 C 
ATOM     16  C   UNL     1      33.847 -14.194 -22.814  0.00  0.00    -0.025 C 
ENDBRANCH  13  15
BRANCH  13  17
ATOM     17  C   UNL     1      34.270 -16.601 -25.656  0.00  0.00    -0.077 C 
ATOM     18  C   UNL     1      33.416 -17.823 -25.948  0.00  0.00    -0.025 C 
ENDBRANCH  13  17
ENDBRANCH  12  13
ENDBRANCH   2  12
ENDBRANCH   1   9
BRANCH   1  19
ATOM     19  O   UNL     1      32.297 -22.742 -18.319  0.00  0.00    -0.429 OA
BRANCH  19  22
ATOM     20  O   UNL     1      31.349 -23.153 -16.278  0.00  0.00    -0.226 OA
ATOM     21  N   UNL     1      33.663 -23.264 -16.616  0.00  0.00    -0.250 N 
ATOM     22  C   UNL     1      32.347 -23.065 -16.984  0.00  0.00    +0.406 C 
ATOM     23  H   UNL     1      34.333 -23.149 -17.330  0.00  0.00    +0.158 HD
BRANCH  21  24
ATOM     24  C   UNL     1      34.169 -23.611 -15.343  0.00  0.00    +0.053 C 
ATOM     25  C   UNL     1      33.335 -24.223 -14.406  0.00  0.00    +0.015 C 
ATOM     26  C   UNL     1      35.499 -23.341 -15.023  0.00  0.00    +0.015 C 
ATOM     27  C   UNL     1      35.165 -24.295 -12.828  0.00  0.00    +0.055 C 
ATOM     28  C   UNL     1      33.833 -24.565 -13.148  0.00  0.00    +0.006 C 
ATOM     29  C   UNL     1      35.997 -23.683 -13.766  0.00  0.00    +0.006 C 
BRANCH  27  32
ATOM     30  O   UNL     1      35.965 -25.832 -11.244  0.00  0.00    -0.268 OA
ATOM     31  N   UNL     1      35.834 -23.625 -10.596  0.00  0.00    -0.193 N 
ATOM     32  C   UNL     1      35.683 -24.651 -11.518  0.00  0.00    +0.268 C 
ATOM     33  H   UNL     1      35.609 -22.693 -10.821  0.00  0.00    +0.183 HD
BRANCH  31  34
ATOM     34  O   UNL     1      36.322 -23.977  -9.330  0.00  0.00    -0.295 OA
ATOM     35  H   UNL     1      37.275 -24.151  -9.386  0.00  0.00    +0.241 HD
ENDBRANCH  31  34
ENDBRANCH  27  32
ENDBRANCH  21  24
ENDBRANCH  19  22
ENDBRANCH   1  19
TORSDOF 10
ENDMDL
