MODEL 1
REMARK VINA RESULT:     -13.2      0.000      0.000
REMARK  Name = 9976892
REMARK  4 active torsions:
REMARK  status: ('A' for Active; 'I' for Inactive)
REMARK    1  A    between atoms: N_1  and  C_13
REMARK    2  A    between atoms: C_10  and  O_17
REMARK    3  A    between atoms: O_17  and  C_20
REMARK    4  A    between atoms: C_19  and  N_25
REMARK                            x       y       z     vdW  Elec       q    Type
REMARK                         _______ _______ _______ _____ _____    ______ ____
ROOT
ATOM      1  N   UNL     1      37.594 -24.131 -13.846  0.00  0.00    +0.389 N 
ATOM      2  C   UNL     1      37.618 -23.930 -15.302  0.00  0.00    -0.073 C 
ATOM      3  C   UNL     1      36.291 -24.595 -13.343  0.00  0.00    -0.073 C 
ATOM      4  C   UNL     1      36.804 -22.716 -15.763  0.00  0.00    +0.003 C 
ATOM      5  C   UNL     1      35.201 -23.520 -13.394  0.00  0.00    +0.003 C 
ATOM      6  C   UNL     1      35.326 -22.993 -15.875  0.00  0.00    -0.025 C 
ATOM      7  C   UNL     1      34.568 -23.373 -14.754  0.00  0.00    -0.028 C 
ATOM      8  C   UNL     1      34.690 -22.855 -17.119  0.00  0.00    +0.033 C 
ATOM      9  C   UNL     1      33.190 -23.605 -14.903  0.00  0.00    -0.002 C 
ATOM     10  C   UNL     1      33.323 -23.093 -17.254  0.00  0.00    +0.147 C 
ATOM     11  C   UNL     1      32.573 -23.467 -16.145  0.00  0.00    +0.037 C 
ATOM     12  H   UNL     1      37.778 -23.226 -13.409  0.00  0.00    -0.080 HD
ENDROOT
BRANCH   1  13
ATOM     13  C   UNL     1      38.592 -25.112 -13.508  0.00  0.00    -0.058 C 
ATOM     14  C   UNL     1      38.447 -26.370 -14.388  0.00  0.00    -0.021 C 
ATOM     15  C   UNL     1      39.912 -24.834 -14.256  0.00  0.00    -0.021 C 
ATOM     16  C   UNL     1      39.983 -26.350 -14.536  0.00  0.00    -0.004 C 
ENDBRANCH   1  13
BRANCH  10  17
ATOM     17  O   UNL     1      32.724 -22.956 -18.468  0.00  0.00    -0.436 OA
BRANCH  17  20
ATOM     18  N   UNL     1      32.213 -21.114 -19.783  0.00  0.00    -0.209 NA
ATOM     19  C   UNL     1      33.986 -19.908 -20.902  0.00  0.00    +0.073 C 
ATOM     20  C   UNL     1      33.161 -21.929 -19.289  0.00  0.00    +0.230 C 
ATOM     21  C   UNL     1      34.926 -20.779 -20.364  0.00  0.00    +0.021 C 
ATOM     22  C   UNL     1      32.653 -20.116 -20.584  0.00  0.00    +0.117 C 
ATOM     23  C   UNL     1      34.513 -21.817 -19.537  0.00  0.00    +0.059 C 
BRANCH  19  25
ATOM     24  O   UNL     1      35.277 -17.219 -20.242  0.00  0.00    -0.275 OA
ATOM     25  N   UNL     1      34.379 -18.834 -21.754  0.00  0.00    -0.257 N 
ATOM     26  C   UNL     1      35.041 -17.767 -23.725  0.00  0.00    +0.031 C 
ATOM     27  C   UNL     1      34.128 -18.847 -23.182  0.00  0.00    +0.099 C 
ATOM     28  C   UNL     1      35.107 -16.761 -22.593  0.00  0.00    +0.087 C 
ATOM     29  C   UNL     1      34.966 -17.618 -21.355  0.00  0.00    +0.229 C 
ENDBRANCH  19  25
ENDBRANCH  17  20
ENDBRANCH  10  17
TORSDOF 4
ENDMDL
MODEL 2
REMARK VINA RESULT:     -12.6      1.847      2.855
REMARK  Name = 9976892
REMARK  4 active torsions:
REMARK  status: ('A' for Active; 'I' for Inactive)
REMARK    1  A    between atoms: N_1  and  C_13
REMARK    2  A    between atoms: C_10  and  O_17
REMARK    3  A    between atoms: O_17  and  C_20
REMARK    4  A    between atoms: C_19  and  N_25
REMARK                            x       y       z     vdW  Elec       q    Type
REMARK                         _______ _______ _______ _____ _____    ______ ____
ROOT
ATOM      1  N   UNL     1      36.028 -23.956 -14.196  0.00  0.00    +0.389 N 
ATOM      2  C   UNL     1      37.030 -23.488 -15.165  0.00  0.00    -0.073 C 
ATOM      3  C   UNL     1      34.771 -24.394 -14.825  0.00  0.00    -0.073 C 
ATOM      4  C   UNL     1      36.673 -22.144 -15.808  0.00  0.00    +0.003 C 
ATOM      5  C   UNL     1      33.942 -23.239 -15.395  0.00  0.00    +0.003 C 
ATOM      6  C   UNL     1      35.697 -22.266 -16.951  0.00  0.00    -0.025 C 
ATOM      7  C   UNL     1      34.405 -22.785 -16.755  0.00  0.00    -0.028 C 
ATOM      8  C   UNL     1      36.080 -21.842 -18.234  0.00  0.00    +0.033 C 
ATOM      9  C   UNL     1      33.524 -22.866 -17.848  0.00  0.00    -0.002 C 
ATOM     10  C   UNL     1      35.197 -21.933 -19.310  0.00  0.00    +0.147 C 
ATOM     11  C   UNL     1      33.920 -22.444 -19.116  0.00  0.00    +0.037 C 
ATOM     12  H   UNL     1      35.801 -23.170 -13.587  0.00  0.00    -0.080 HD
ENDROOT
BRANCH   1  13
ATOM     13  C   UNL     1      36.587 -25.066 -13.468  0.00  0.00    -0.058 C 
ATOM     14  C   UNL     1      37.206 -26.100 -14.431  0.00  0.00    -0.021 C 
ATOM     15  C   UNL     1      38.024 -24.751 -13.004  0.00  0.00    -0.021 C 
ATOM     16  C   UNL     1      38.400 -26.178 -13.457  0.00  0.00    -0.004 C 
ENDBRANCH   1  13
BRANCH  10  17
ATOM     17  O   UNL     1      35.586 -21.518 -20.546  0.00  0.00    -0.436 OA
BRANCH  17  20
ATOM     18  N   UNL     1      36.265 -19.301 -20.633  0.00  0.00    -0.209 NA
ATOM     19  C   UNL     1      34.797 -17.633 -21.589  0.00  0.00    +0.073 C 
ATOM     20  C   UNL     1      35.309 -20.209 -20.903  0.00  0.00    +0.230 C 
ATOM     21  C   UNL     1      33.843 -18.611 -21.847  0.00  0.00    +0.021 C 
ATOM     22  C   UNL     1      35.981 -18.026 -20.986  0.00  0.00    +0.117 C 
ATOM     23  C   UNL     1      34.097 -19.932 -21.498  0.00  0.00    +0.059 C 
BRANCH  19  25
ATOM     24  O   UNL     1      34.571 -16.286 -24.321  0.00  0.00    -0.275 OA
ATOM     25  N   UNL     1      34.565 -16.269 -21.934  0.00  0.00    -0.257 N 
ATOM     26  C   UNL     1      33.829 -14.067 -21.674  0.00  0.00    +0.031 C 
ATOM     27  C   UNL     1      34.468 -15.223 -20.934  0.00  0.00    +0.099 C 
ATOM     28  C   UNL     1      34.331 -14.237 -23.094  0.00  0.00    +0.087 C 
ATOM     29  C   UNL     1      34.483 -15.734 -23.234  0.00  0.00    +0.229 C 
ENDBRANCH  19  25
ENDBRANCH  17  20
ENDBRANCH  10  17
TORSDOF 4
ENDMDL
MODEL 3
REMARK VINA RESULT:     -11.7      2.127      9.592
REMARK  Name = 9976892
REMARK  4 active torsions:
REMARK  status: ('A' for Active; 'I' for Inactive)
REMARK    1  A    between atoms: N_1  and  C_13
REMARK    2  A    between atoms: C_10  and  O_17
REMARK    3  A    between atoms: O_17  and  C_20
REMARK    4  A    between atoms: C_19  and  N_25
REMARK                            x       y       z     vdW  Elec       q    Type
REMARK                         _______ _______ _______ _____ _____    ______ ____
ROOT
ATOM      1  N   UNL     1      34.589 -18.244 -23.336  0.00  0.00    +0.389 N 
ATOM      2  C   UNL     1      33.449 -19.065 -22.903  0.00  0.00    -0.073 C 
ATOM      3  C   UNL     1      35.893 -18.812 -22.960  0.00  0.00    -0.073 C 
ATOM      4  C   UNL     1      33.225 -19.043 -21.387  0.00  0.00    +0.003 C 
ATOM      5  C   UNL     1      36.179 -18.735 -21.457  0.00  0.00    +0.003 C 
ATOM      6  C   UNL     1      34.128 -19.986 -20.633  0.00  0.00    -0.025 C 
ATOM      7  C   UNL     1      35.526 -19.840 -20.666  0.00  0.00    -0.028 C 
ATOM      8  C   UNL     1      33.563 -21.021 -19.871  0.00  0.00    +0.033 C 
ATOM      9  C   UNL     1      36.327 -20.734 -19.935  0.00  0.00    -0.002 C 
ATOM     10  C   UNL     1      34.371 -21.904 -19.154  0.00  0.00    +0.147 C 
ATOM     11  C   UNL     1      35.753 -21.759 -19.186  0.00  0.00    +0.037 C 
ATOM     12  H   UNL     1      34.510 -17.340 -22.869  0.00  0.00    -0.080 HD
ENDROOT
BRANCH   1  13
ATOM     13  C   UNL     1      34.539 -18.122 -24.770  0.00  0.00    -0.058 C 
ATOM     14  C   UNL     1      33.161 -18.554 -25.312  0.00  0.00    -0.021 C 
ATOM     15  C   UNL     1      34.167 -16.684 -25.187  0.00  0.00    -0.021 C 
ATOM     16  C   UNL     1      33.218 -17.314 -26.228  0.00  0.00    -0.004 C 
ENDBRANCH   1  13
BRANCH  10  17
ATOM     17  O   UNL     1      33.806 -22.903 -18.423  0.00  0.00    -0.436 OA
BRANCH  17  20
ATOM     18  N   UNL     1      35.598 -22.791 -16.953  0.00  0.00    -0.209 NA
ATOM     19  C   UNL     1      35.344 -23.594 -14.686  0.00  0.00    +0.073 C 
ATOM     20  C   UNL     1      34.315 -23.141 -17.157  0.00  0.00    +0.230 C 
ATOM     21  C   UNL     1      34.023 -23.937 -14.949  0.00  0.00    +0.021 C 
ATOM     22  C   UNL     1      36.083 -23.029 -15.713  0.00  0.00    +0.117 C 
ATOM     23  C   UNL     1      33.487 -23.708 -16.212  0.00  0.00    +0.059 C 
BRANCH  19  25
ATOM     24  O   UNL     1      38.209 -24.289 -13.887  0.00  0.00    -0.275 OA
ATOM     25  N   UNL     1      35.921 -23.817 -13.401  0.00  0.00    -0.257 N 
ATOM     26  C   UNL     1      36.154 -23.674 -11.081  0.00  0.00    +0.031 C 
ATOM     27  C   UNL     1      35.128 -23.813 -12.186  0.00  0.00    +0.099 C 
ATOM     28  C   UNL     1      37.372 -24.382 -11.639  0.00  0.00    +0.087 C 
ATOM     29  C   UNL     1      37.263 -24.143 -13.128  0.00  0.00    +0.229 C 
ENDBRANCH  19  25
ENDBRANCH  17  20
ENDBRANCH  10  17
TORSDOF 4
ENDMDL
MODEL 4
REMARK VINA RESULT:     -11.6      4.588     12.314
REMARK  Name = 9976892
REMARK  4 active torsions:
REMARK  status: ('A' for Active; 'I' for Inactive)
REMARK    1  A    between atoms: N_1  and  C_13
REMARK    2  A    between atoms: C_10  and  O_17
REMARK    3  A    between atoms: O_17  and  C_20
REMARK    4  A    between atoms: C_19  and  N_25
REMARK                            x       y       z     vdW  Elec       q    Type
REMARK                         _______ _______ _______ _____ _____    ______ ____
ROOT
ATOM      1  N   UNL     1      32.917 -10.908 -25.447  0.00  0.00    +0.389 N 
ATOM      2  C   UNL     1      33.329 -12.032 -26.300  0.00  0.00    -0.073 C 
ATOM      3  C   UNL     1      33.429 -11.003 -24.071  0.00  0.00    -0.073 C 
ATOM      4  C   UNL     1      32.639 -13.353 -25.942  0.00  0.00    +0.003 C 
ATOM      5  C   UNL     1      32.759 -12.107 -23.247  0.00  0.00    +0.003 C 
ATOM      6  C   UNL     1      33.278 -14.067 -24.777  0.00  0.00    -0.025 C 
ATOM      7  C   UNL     1      33.335 -13.476 -23.502  0.00  0.00    -0.028 C 
ATOM      8  C   UNL     1      33.815 -15.350 -24.965  0.00  0.00    +0.033 C 
ATOM      9  C   UNL     1      33.926 -14.186 -22.443  0.00  0.00    -0.002 C 
ATOM     10  C   UNL     1      34.403 -16.041 -23.905  0.00  0.00    +0.147 C 
ATOM     11  C   UNL     1      34.458 -15.458 -22.645  0.00  0.00    +0.037 C 
ATOM     12  H   UNL     1      31.898 -10.925 -25.390  0.00  0.00    -0.080 HD
ENDROOT
BRANCH   1  13
ATOM     13  C   UNL     1      33.408  -9.689 -26.036  0.00  0.00    -0.058 C 
ATOM     14  C   UNL     1      33.570  -8.588 -24.969  0.00  0.00    -0.021 C 
ATOM     15  C   UNL     1      34.947  -9.710 -26.139  0.00  0.00    -0.021 C 
ATOM     16  C   UNL     1      34.924  -8.253 -25.630  0.00  0.00    -0.004 C 
ENDBRANCH   1  13
BRANCH  10  17
ATOM     17  O   UNL     1      34.919 -17.284 -24.106  0.00  0.00    -0.436 OA
BRANCH  17  20
ATOM     18  N   UNL     1      33.647 -18.737 -22.820  0.00  0.00    -0.209 NA
ATOM     19  C   UNL     1      34.683 -19.959 -21.008  0.00  0.00    +0.073 C 
ATOM     20  C   UNL     1      34.851 -18.186 -23.057  0.00  0.00    +0.230 C 
ATOM     21  C   UNL     1      35.905 -19.361 -21.296  0.00  0.00    +0.021 C 
ATOM     22  C   UNL     1      33.594 -19.616 -21.793  0.00  0.00    +0.117 C 
ATOM     23  C   UNL     1      36.000 -18.452 -22.343  0.00  0.00    +0.059 C 
BRANCH  19  25
ATOM     24  O   UNL     1      32.287 -21.621 -20.100  0.00  0.00    -0.275 OA
ATOM     25  N   UNL     1      34.555 -20.894 -19.940  0.00  0.00    -0.257 N 
ATOM     26  C   UNL     1      35.233 -22.452 -18.336  0.00  0.00    +0.031 C 
ATOM     27  C   UNL     1      35.632 -21.154 -19.005  0.00  0.00    +0.099 C 
ATOM     28  C   UNL     1      33.718 -22.396 -18.335  0.00  0.00    +0.087 C 
ATOM     29  C   UNL     1      33.397 -21.615 -19.589  0.00  0.00    +0.229 C 
ENDBRANCH  19  25
ENDBRANCH  17  20
ENDBRANCH  10  17
TORSDOF 4
ENDMDL
MODEL 5
REMARK VINA RESULT:     -11.4      7.920     13.144
REMARK  Name = 9976892
REMARK  4 active torsions:
REMARK  status: ('A' for Active; 'I' for Inactive)
REMARK    1  A    between atoms: N_1  and  C_13
REMARK    2  A    between atoms: C_10  and  O_17
REMARK    3  A    between atoms: O_17  and  C_20
REMARK    4  A    between atoms: C_19  and  N_25
REMARK                            x       y       z     vdW  Elec       q    Type
REMARK                         _______ _______ _______ _____ _____    ______ ____
ROOT
ATOM      1  N   UNL     1      33.970 -16.679 -24.190  0.00  0.00    +0.389 N 
ATOM      2  C   UNL     1      34.377 -15.438 -23.514  0.00  0.00    -0.073 C 
ATOM      3  C   UNL     1      33.990 -16.576 -25.658  0.00  0.00    -0.073 C 
ATOM      4  C   UNL     1      33.342 -14.314 -23.630  0.00  0.00    +0.003 C 
ATOM      5  C   UNL     1      32.873 -15.691 -26.221  0.00  0.00    +0.003 C 
ATOM      6  C   UNL     1      33.411 -13.567 -24.937  0.00  0.00    -0.025 C 
ATOM      7  C   UNL     1      33.190 -14.219 -26.163  0.00  0.00    -0.028 C 
ATOM      8  C   UNL     1      33.689 -12.190 -24.932  0.00  0.00    +0.033 C 
ATOM      9  C   UNL     1      33.249 -13.478 -27.356  0.00  0.00    -0.002 C 
ATOM     10  C   UNL     1      33.750 -11.468 -26.124  0.00  0.00    +0.147 C 
ATOM     11  C   UNL     1      33.529 -12.112 -27.335  0.00  0.00    +0.037 C 
ATOM     12  H   UNL     1      33.007 -16.874 -23.916  0.00  0.00    -0.080 HD
ENDROOT
BRANCH   1  13
ATOM     13  C   UNL     1      34.873 -17.727 -23.792  0.00  0.00    -0.058 C 
ATOM     14  C   UNL     1      35.245 -17.597 -22.301  0.00  0.00    -0.021 C 
ATOM     15  C   UNL     1      34.098 -19.005 -23.409  0.00  0.00    -0.021 C 
ATOM     16  C   UNL     1      35.046 -19.124 -22.197  0.00  0.00    -0.004 C 
ENDBRANCH   1  13
BRANCH  10  17
ATOM     17  O   UNL     1      34.022 -10.135 -26.099  0.00  0.00    -0.436 OA
BRANCH  17  20
ATOM     18  N   UNL     1      32.310  -9.317 -24.763  0.00  0.00    -0.209 NA
ATOM     19  C   UNL     1      32.841  -8.024 -22.790  0.00  0.00    +0.073 C 
ATOM     20  C   UNL     1      33.634  -9.420 -24.978  0.00  0.00    +0.230 C 
ATOM     21  C   UNL     1      34.198  -8.160 -23.058  0.00  0.00    +0.021 C 
ATOM     22  C   UNL     1      31.945  -8.616 -23.665  0.00  0.00    +0.117 C 
ATOM     23  C   UNL     1      34.614  -8.873 -24.176  0.00  0.00    +0.059 C 
BRANCH  19  25
ATOM     24  O   UNL     1      32.597  -8.866 -19.864  0.00  0.00    -0.275 OA
ATOM     25  N   UNL     1      32.385  -7.298 -21.650  0.00  0.00    -0.257 N 
ATOM     26  C   UNL     1      31.889  -5.436 -20.328  0.00  0.00    +0.031 C 
ATOM     27  C   UNL     1      31.855  -5.951 -21.752  0.00  0.00    +0.099 C 
ATOM     28  C   UNL     1      31.666  -6.684 -19.497  0.00  0.00    +0.087 C 
ATOM     29  C   UNL     1      32.300  -7.775 -20.328  0.00  0.00    +0.229 C 
ENDBRANCH  19  25
ENDBRANCH  17  20
ENDBRANCH  10  17
TORSDOF 4
ENDMDL
MODEL 6
REMARK VINA RESULT:     -11.2      4.092     11.091
REMARK  Name = 9976892
REMARK  4 active torsions:
REMARK  status: ('A' for Active; 'I' for Inactive)
REMARK    1  A    between atoms: N_1  and  C_13
REMARK    2  A    between atoms: C_10  and  O_17
REMARK    3  A    between atoms: O_17  and  C_20
REMARK    4  A    between atoms: C_19  and  N_25
REMARK                            x       y       z     vdW  Elec       q    Type
REMARK                         _______ _______ _______ _____ _____    ______ ____
ROOT
ATOM      1  N   UNL     1      32.239 -12.156 -21.250  0.00  0.00    +0.389 N 
ATOM      2  C   UNL     1      32.817 -13.401 -20.724  0.00  0.00    -0.073 C 
ATOM      3  C   UNL     1      31.733 -12.284 -22.626  0.00  0.00    -0.073 C 
ATOM      4  C   UNL     1      34.155 -13.773 -21.373  0.00  0.00    +0.003 C 
ATOM      5  C   UNL     1      32.844 -12.421 -23.672  0.00  0.00    +0.003 C 
ATOM      6  C   UNL     1      34.003 -14.464 -22.705  0.00  0.00    -0.025 C 
ATOM      7  C   UNL     1      33.383 -13.823 -23.793  0.00  0.00    -0.028 C 
ATOM      8  C   UNL     1      34.503 -15.765 -22.868  0.00  0.00    +0.033 C 
ATOM      9  C   UNL     1      33.278 -14.500 -25.020  0.00  0.00    -0.002 C 
ATOM     10  C   UNL     1      34.388 -16.427 -24.091  0.00  0.00    +0.147 C 
ATOM     11  C   UNL     1      33.777 -15.794 -25.166  0.00  0.00    +0.037 C 
ATOM     12  H   UNL     1      32.982 -11.457 -21.267  0.00  0.00    -0.080 HD
ENDROOT
BRANCH   1  13
ATOM     13  C   UNL     1      31.147 -11.768 -20.394  0.00  0.00    -0.058 C 
ATOM     14  C   UNL     1      31.644 -10.882 -19.234  0.00  0.00    -0.021 C 
ATOM     15  C   UNL     1      30.435 -10.515 -20.945  0.00  0.00    -0.021 C 
ATOM     16  C   UNL     1      30.418  -9.983 -19.497  0.00  0.00    -0.004 C 
ENDBRANCH   1  13
BRANCH  10  17
ATOM     17  O   UNL     1      34.877 -17.689 -24.230  0.00  0.00    -0.436 OA
BRANCH  17  20
ATOM     18  N   UNL     1      33.633 -19.011 -22.785  0.00  0.00    -0.209 NA
ATOM     19  C   UNL     1      34.730 -20.153 -20.957  0.00  0.00    +0.073 C 
ATOM     20  C   UNL     1      34.839 -18.521 -23.123  0.00  0.00    +0.230 C 
ATOM     21  C   UNL     1      35.953 -19.620 -21.349  0.00  0.00    +0.021 C 
ATOM     22  C   UNL     1      33.610 -19.821 -21.701  0.00  0.00    +0.117 C 
ATOM     23  C   UNL     1      36.018 -18.782 -22.457  0.00  0.00    +0.059 C 
BRANCH  19  25
ATOM     24  O   UNL     1      32.384 -21.810 -19.918  0.00  0.00    -0.275 OA
ATOM     25  N   UNL     1      34.632 -21.014 -19.825  0.00  0.00    -0.257 N 
ATOM     26  C   UNL     1      35.360 -22.436 -18.119  0.00  0.00    +0.031 C 
ATOM     27  C   UNL     1      35.721 -21.178 -18.880  0.00  0.00    +0.099 C 
ATOM     28  C   UNL     1      33.844 -22.420 -18.112  0.00  0.00    +0.087 C 
ATOM     29  C   UNL     1      33.496 -21.738 -19.416  0.00  0.00    +0.229 C 
ENDBRANCH  19  25
ENDBRANCH  17  20
ENDBRANCH  10  17
TORSDOF 4
ENDMDL
MODEL 7
REMARK VINA RESULT:     -11.2      3.297      9.620
REMARK  Name = 9976892
REMARK  4 active torsions:
REMARK  status: ('A' for Active; 'I' for Inactive)
REMARK    1  A    between atoms: N_1  and  C_13
REMARK    2  A    between atoms: C_10  and  O_17
REMARK    3  A    between atoms: O_17  and  C_20
REMARK    4  A    between atoms: C_19  and  N_25
REMARK                            x       y       z     vdW  Elec       q    Type
REMARK                         _______ _______ _______ _____ _____    ______ ____
ROOT
ATOM      1  N   UNL     1      33.575 -18.127 -24.073  0.00  0.00    +0.389 N 
ATOM      2  C   UNL     1      33.099 -19.389 -23.488  0.00  0.00    -0.073 C 
ATOM      3  C   UNL     1      35.010 -17.887 -23.852  0.00  0.00    -0.073 C 
ATOM      4  C   UNL     1      33.045 -19.368 -21.956  0.00  0.00    +0.003 C 
ATOM      5  C   UNL     1      35.353 -17.550 -22.398  0.00  0.00    +0.003 C 
ATOM      6  C   UNL     1      34.380 -19.626 -21.305  0.00  0.00    -0.025 C 
ATOM      7  C   UNL     1      35.472 -18.765 -21.514  0.00  0.00    -0.028 C 
ATOM      8  C   UNL     1      34.534 -20.738 -20.462  0.00  0.00    +0.033 C 
ATOM      9  C   UNL     1      36.694 -19.037 -20.874  0.00  0.00    -0.002 C 
ATOM     10  C   UNL     1      35.753 -20.999 -19.837  0.00  0.00    +0.147 C 
ATOM     11  C   UNL     1      36.832 -20.147 -20.042  0.00  0.00    +0.037 C 
ATOM     12  H   UNL     1      33.069 -17.368 -23.614  0.00  0.00    -0.080 HD
ENDROOT
BRANCH   1  13
ATOM     13  C   UNL     1      33.329 -18.165 -25.491  0.00  0.00    -0.058 C 
ATOM     14  C   UNL     1      31.938 -18.759 -25.793  0.00  0.00    -0.021 C 
ATOM     15  C   UNL     1      32.777 -16.814 -25.991  0.00  0.00    -0.021 C 
ATOM     16  C   UNL     1      31.763 -17.625 -26.825  0.00  0.00    -0.004 C 
ENDBRANCH   1  13
BRANCH  10  17
ATOM     17  O   UNL     1      35.884 -22.082 -19.025  0.00  0.00    -0.436 OA
BRANCH  17  20
ATOM     18  N   UNL     1      35.056 -22.791 -16.976  0.00  0.00    -0.209 NA
ATOM     19  C   UNL     1      32.680 -23.146 -16.699  0.00  0.00    +0.073 C 
ATOM     20  C   UNL     1      34.794 -22.440 -18.248  0.00  0.00    +0.230 C 
ATOM     21  C   UNL     1      32.463 -22.774 -18.022  0.00  0.00    +0.021 C 
ATOM     22  C   UNL     1      33.983 -23.139 -16.229  0.00  0.00    +0.117 C 
ATOM     23  C   UNL     1      33.540 -22.411 -18.822  0.00  0.00    +0.059 C 
BRANCH  19  25
ATOM     24  O   UNL     1      29.691 -22.556 -16.920  0.00  0.00    -0.275 OA
ATOM     25  N   UNL     1      31.595 -23.524 -15.855  0.00  0.00    -0.257 N 
ATOM     26  C   UNL     1      30.419 -24.784 -14.277  0.00  0.00    +0.031 C 
ATOM     27  C   UNL     1      31.795 -24.251 -14.616  0.00  0.00    +0.099 C 
ATOM     28  C   UNL     1      29.486 -23.729 -14.835  0.00  0.00    +0.087 C 
ATOM     29  C   UNL     1      30.237 -23.197 -16.034  0.00  0.00    +0.229 C 
ENDBRANCH  19  25
ENDBRANCH  17  20
ENDBRANCH  10  17
TORSDOF 4
ENDMDL
MODEL 8
REMARK VINA RESULT:     -11.1      2.943      5.182
REMARK  Name = 9976892
REMARK  4 active torsions:
REMARK  status: ('A' for Active; 'I' for Inactive)
REMARK    1  A    between atoms: N_1  and  C_13
REMARK    2  A    between atoms: C_10  and  O_17
REMARK    3  A    between atoms: O_17  and  C_20
REMARK    4  A    between atoms: C_19  and  N_25
REMARK                            x       y       z     vdW  Elec       q    Type
REMARK                         _______ _______ _______ _____ _____    ______ ____
ROOT
ATOM      1  N   UNL     1      31.419 -23.453 -16.033  0.00  0.00    +0.389 N 
ATOM      2  C   UNL     1      31.612 -22.706 -17.284  0.00  0.00    -0.073 C 
ATOM      3  C   UNL     1      32.481 -23.213 -15.042  0.00  0.00    -0.073 C 
ATOM      4  C   UNL     1      32.773 -23.233 -18.134  0.00  0.00    +0.003 C 
ATOM      5  C   UNL     1      33.822 -23.848 -15.423  0.00  0.00    +0.003 C 
ATOM      6  C   UNL     1      34.122 -22.731 -17.684  0.00  0.00    -0.025 C 
ATOM      7  C   UNL     1      34.618 -23.022 -16.401  0.00  0.00    -0.028 C 
ATOM      8  C   UNL     1      34.905 -21.970 -18.567  0.00  0.00    +0.033 C 
ATOM      9  C   UNL     1      35.887 -22.546 -16.031  0.00  0.00    -0.002 C 
ATOM     10  C   UNL     1      36.161 -21.500 -18.184  0.00  0.00    +0.147 C 
ATOM     11  C   UNL     1      36.652 -21.789 -16.917  0.00  0.00    +0.037 C 
ATOM     12  H   UNL     1      31.442 -24.447 -16.263  0.00  0.00    -0.080 HD
ENDROOT
BRANCH   1  13
ATOM     13  C   UNL     1      30.159 -23.055 -15.460  0.00  0.00    -0.058 C 
ATOM     14  C   UNL     1      29.136 -22.714 -16.562  0.00  0.00    -0.021 C 
ATOM     15  C   UNL     1      29.288 -24.287 -15.138  0.00  0.00    -0.021 C 
ATOM     16  C   UNL     1      28.099 -23.507 -15.738  0.00  0.00    -0.004 C 
ENDBRANCH   1  13
BRANCH  10  17
ATOM     17  O   UNL     1      36.906 -20.762 -19.052  0.00  0.00    -0.436 OA
BRANCH  17  20
ATOM     18  N   UNL     1      36.965 -19.251 -20.812  0.00  0.00    -0.209 NA
ATOM     19  C   UNL     1      34.973 -18.859 -22.126  0.00  0.00    +0.073 C 
ATOM     20  C   UNL     1      36.243 -20.125 -20.088  0.00  0.00    +0.230 C 
ATOM     21  C   UNL     1      34.272 -19.772 -21.347  0.00  0.00    +0.021 C 
ATOM     22  C   UNL     1      36.306 -18.635 -21.820  0.00  0.00    +0.117 C 
ATOM     23  C   UNL     1      34.914 -20.425 -20.301  0.00  0.00    +0.059 C 
BRANCH  19  25
ATOM     24  O   UNL     1      34.896 -15.884 -22.817  0.00  0.00    -0.275 OA
ATOM     25  N   UNL     1      34.341 -18.173 -23.205  0.00  0.00    -0.257 N 
ATOM     26  C   UNL     1      33.397 -17.875 -25.321  0.00  0.00    +0.031 C 
ATOM     27  C   UNL     1      33.508 -18.858 -24.174  0.00  0.00    +0.099 C 
ATOM     28  C   UNL     1      33.466 -16.525 -24.636  0.00  0.00    +0.087 C 
ATOM     29  C   UNL     1      34.354 -16.785 -23.440  0.00  0.00    +0.229 C 
ENDBRANCH  19  25
ENDBRANCH  17  20
ENDBRANCH  10  17
TORSDOF 4
ENDMDL
MODEL 9
REMARK VINA RESULT:     -11.1      3.832      6.144
REMARK  Name = 9976892
REMARK  4 active torsions:
REMARK  status: ('A' for Active; 'I' for Inactive)
REMARK    1  A    between atoms: N_1  and  C_13
REMARK    2  A    between atoms: C_10  and  O_17
REMARK    3  A    between atoms: O_17  and  C_20
REMARK    4  A    between atoms: C_19  and  N_25
REMARK                            x       y       z     vdW  Elec       q    Type
REMARK                         _______ _______ _______ _____ _____    ______ ____
ROOT
ATOM      1  N   UNL     1      32.025 -22.669 -17.861  0.00  0.00    +0.389 N 
ATOM      2  C   UNL     1      31.775 -21.406 -18.570  0.00  0.00    -0.073 C 
ATOM      3  C   UNL     1      33.427 -22.836 -17.447  0.00  0.00    -0.073 C 
ATOM      4  C   UNL     1      32.383 -21.367 -19.977  0.00  0.00    +0.003 C 
ATOM      5  C   UNL     1      34.380 -23.098 -18.618  0.00  0.00    +0.003 C 
ATOM      6  C   UNL     1      33.852 -21.024 -19.985  0.00  0.00    -0.025 C 
ATOM      7  C   UNL     1      34.796 -21.843 -19.342  0.00  0.00    -0.028 C 
ATOM      8  C   UNL     1      34.288 -19.872 -20.660  0.00  0.00    +0.033 C 
ATOM      9  C   UNL     1      36.156 -21.492 -19.389  0.00  0.00    -0.002 C 
ATOM     10  C   UNL     1      35.640 -19.533 -20.695  0.00  0.00    +0.147 C 
ATOM     11  C   UNL     1      36.574 -20.344 -20.060  0.00  0.00    +0.037 C 
ATOM     12  H   UNL     1      31.810 -23.430 -18.506  0.00  0.00    -0.080 HD
ENDROOT
BRANCH   1  13
ATOM     13  C   UNL     1      31.193 -22.699 -16.686  0.00  0.00    -0.058 C 
ATOM     14  C   UNL     1      30.373 -24.004 -16.625  0.00  0.00    -0.021 C 
ATOM     15  C   UNL     1      31.980 -23.227 -15.468  0.00  0.00    -0.021 C 
ATOM     16  C   UNL     1      30.734 -24.071 -15.126  0.00  0.00    -0.004 C 
ENDBRANCH   1  13
BRANCH  10  17
ATOM     17  O   UNL     1      36.044 -18.412 -21.352  0.00  0.00    -0.436 OA
BRANCH  17  20
ATOM     18  N   UNL     1      34.951 -16.718 -22.500  0.00  0.00    -0.209 NA
ATOM     19  C   UNL     1      33.869 -17.201 -24.609  0.00  0.00    +0.073 C 
ATOM     20  C   UNL     1      35.309 -18.014 -22.457  0.00  0.00    +0.230 C 
ATOM     21  C   UNL     1      34.265 -18.530 -24.515  0.00  0.00    +0.021 C 
ATOM     22  C   UNL     1      34.233 -16.342 -23.584  0.00  0.00    +0.117 C 
ATOM     23  C   UNL     1      35.003 -18.955 -23.416  0.00  0.00    +0.059 C 
BRANCH  19  25
ATOM     24  O   UNL     1      31.169 -18.124 -25.699  0.00  0.00    -0.275 OA
ATOM     25  N   UNL     1      33.111 -16.736 -25.723  0.00  0.00    -0.257 N 
ATOM     26  C   UNL     1      32.368 -15.248 -27.365  0.00  0.00    +0.031 C 
ATOM     27  C   UNL     1      33.604 -15.708 -26.620  0.00  0.00    +0.099 C 
ATOM     28  C   UNL     1      31.512 -16.497 -27.431  0.00  0.00    +0.087 C 
ATOM     29  C   UNL     1      31.867 -17.232 -26.159  0.00  0.00    +0.229 C 
ENDBRANCH  19  25
ENDBRANCH  17  20
ENDBRANCH  10  17
TORSDOF 4
ENDMDL
