MODEL 1
REMARK VINA RESULT:     -12.3      0.000      0.000
REMARK  Name = 10172943
REMARK  7 active torsions:
REMARK  status: ('A' for Active; 'I' for Inactive)
REMARK    1  A    between atoms: O_1  and  C_3
REMARK    2  A    between atoms: O_1  and  C_19
REMARK    3  A    between atoms: C_4  and  C_11
REMARK    4  A    between atoms: C_19  and  C_20
REMARK    5  A    between atoms: C_20  and  N_21
REMARK    6  A    between atoms: C_20  and  C_25
REMARK    7  A    between atoms: C_25  and  C_27
REMARK                            x       y       z     vdW  Elec       q    Type
REMARK                         _______ _______ _______ _____ _____    ______ ____
ROOT
ATOM      1  O   UNL     1      35.851 -22.450 -18.490  0.00  0.00    -0.476 OA
ENDROOT
BRANCH   1   3
ATOM      2  N   UNL     1      32.451 -21.633 -19.517  0.00  0.00    -0.239 NA
ATOM      3  C   UNL     1      34.817 -21.815 -19.129  0.00  0.00    +0.158 C 
ATOM      4  C   UNL     1      33.997 -20.137 -20.622  0.00  0.00    +0.022 C 
ATOM      5  C   UNL     1      35.065 -20.762 -19.991  0.00  0.00    +0.040 C 
ATOM      6  C   UNL     1      33.515 -22.215 -18.921  0.00  0.00    +0.136 C 
ATOM      7  C   UNL     1      32.720 -20.606 -20.356  0.00  0.00    +0.099 C 
BRANCH   4  11
ATOM      8  N   UNL     1      34.314 -16.625 -25.226  0.00  0.00    -0.280 N 
ATOM      9  N   UNL     1      34.784 -15.949 -24.158  0.00  0.00    -0.173 NA
ATOM     10  C   UNL     1      34.128 -18.057 -23.622  0.00  0.00    +0.032 A 
ATOM     11  C   UNL     1      34.210 -19.033 -21.529  0.00  0.00    +0.002 C 
ATOM     12  C   UNL     1      34.682 -16.816 -23.136  0.00  0.00    +0.102 A 
ATOM     13  C   UNL     1      33.863 -19.205 -22.887  0.00  0.00    +0.003 C 
ATOM     14  C   UNL     1      33.905 -17.898 -24.961  0.00  0.00    +0.053 A 
ATOM     15  C   UNL     1      34.762 -17.819 -21.003  0.00  0.00    +0.002 C 
ATOM     16  C   UNL     1      35.020 -16.667 -21.778  0.00  0.00    +0.021 C 
ATOM     17  C   UNL     1      33.363 -18.779 -26.009  0.00  0.00    +0.051 C 
ATOM     18  H   UNL     1      34.270 -16.229 -26.126  0.00  0.00    +0.189 HD
ENDBRANCH   4  11
ENDBRANCH   1   3
BRANCH   1  19
ATOM     19  C   UNL     1      36.066 -22.111 -17.127  0.00  0.00    +0.184 C 
BRANCH  19  20
ATOM     20  C   UNL     1      35.491 -23.171 -16.178  0.00  0.00    -0.017 C 
BRANCH  20  21
ATOM     21  N   UNL     1      36.605 -23.868 -15.524  0.00  0.00    +0.384 N 
ATOM     22  H   UNL     1      37.273 -24.178 -16.230  0.00  0.00    -0.089 HD
ATOM     23  H   UNL     1      36.248 -24.676 -15.014  0.00  0.00    -0.089 HD
ATOM     24  H   UNL     1      37.068 -23.233 -14.873  0.00  0.00    -0.089 HD
ENDBRANCH  20  21
BRANCH  20  25
ATOM     25  C   UNL     1      34.543 -22.588 -15.096  0.00  0.00    +0.009 C 
BRANCH  25  27
ATOM     26  N   UNL     1      32.438 -25.138 -13.548  0.00  0.00    -0.312 N 
ATOM     27  C   UNL     1      33.489 -23.518 -14.642  0.00  0.00    -0.008 C 
ATOM     28  C   UNL     1      32.147 -23.573 -15.111  0.00  0.00    +0.011 C 
ATOM     29  C   UNL     1      31.509 -24.598 -14.409  0.00  0.00    +0.048 C 
ATOM     30  C   UNL     1      33.638 -24.493 -13.682  0.00  0.00    +0.058 C 
ATOM     31  C   UNL     1      31.411 -22.847 -16.068  0.00  0.00    +0.001 C 
ATOM     32  C   UNL     1      30.166 -24.934 -14.617  0.00  0.00    +0.015 C 
ATOM     33  C   UNL     1      30.068 -23.172 -16.287  0.00  0.00    +0.000 C 
ATOM     34  C   UNL     1      29.457 -24.200 -15.571  0.00  0.00    +0.001 C 
ATOM     35  H   UNL     1      32.264 -25.882 -12.927  0.00  0.00    +0.152 HD
ENDBRANCH  25  27
ENDBRANCH  20  25
ENDBRANCH  19  20
ENDBRANCH   1  19
TORSDOF 7
ENDMDL
MODEL 2
REMARK VINA RESULT:     -12.2      1.988      3.801
REMARK  Name = 10172943
REMARK  7 active torsions:
REMARK  status: ('A' for Active; 'I' for Inactive)
REMARK    1  A    between atoms: O_1  and  C_3
REMARK    2  A    between atoms: O_1  and  C_19
REMARK    3  A    between atoms: C_4  and  C_11
REMARK    4  A    between atoms: C_19  and  C_20
REMARK    5  A    between atoms: C_20  and  N_21
REMARK    6  A    between atoms: C_20  and  C_25
REMARK    7  A    between atoms: C_25  and  C_27
REMARK                            x       y       z     vdW  Elec       q    Type
REMARK                         _______ _______ _______ _____ _____    ______ ____
ROOT
ATOM      1  O   UNL     1      32.737 -22.360 -18.858  0.00  0.00    -0.476 OA
ENDROOT
BRANCH   1   3
ATOM      2  N   UNL     1      36.198 -21.378 -19.437  0.00  0.00    -0.239 NA
ATOM      3  C   UNL     1      33.812 -21.670 -19.354  0.00  0.00    +0.158 C 
ATOM      4  C   UNL     1      34.738 -19.939 -20.720  0.00  0.00    +0.022 C 
ATOM      5  C   UNL     1      33.628 -20.619 -20.233  0.00  0.00    +0.040 C 
ATOM      6  C   UNL     1      35.094 -22.015 -18.985  0.00  0.00    +0.136 C 
ATOM      7  C   UNL     1      35.990 -20.353 -20.295  0.00  0.00    +0.099 C 
BRANCH   4  11
ATOM      8  N   UNL     1      33.665 -16.539 -25.294  0.00  0.00    -0.280 N 
ATOM      9  N   UNL     1      34.147 -15.760 -24.305  0.00  0.00    -0.173 NA
ATOM     10  C   UNL     1      34.007 -17.943 -23.690  0.00  0.00    +0.032 A 
ATOM     11  C   UNL     1      34.591 -18.836 -21.641  0.00  0.00    +0.002 C 
ATOM     12  C   UNL     1      34.372 -16.606 -23.285  0.00  0.00    +0.102 A 
ATOM     13  C   UNL     1      34.086 -19.104 -22.932  0.00  0.00    +0.003 C 
ATOM     14  C   UNL     1      33.559 -17.862 -24.979  0.00  0.00    +0.053 A 
ATOM     15  C   UNL     1      34.966 -17.525 -21.195  0.00  0.00    +0.002 C 
ATOM     16  C   UNL     1      34.873 -16.363 -21.993  0.00  0.00    +0.021 C 
ATOM     17  C   UNL     1      33.051 -18.855 -25.940  0.00  0.00    +0.051 C 
ATOM     18  H   UNL     1      33.410 -16.181 -26.175  0.00  0.00    +0.189 HD
ENDBRANCH   4  11
ENDBRANCH   1   3
BRANCH   1  19
ATOM     19  C   UNL     1      33.019 -23.449 -17.990  0.00  0.00    +0.184 C 
BRANCH  19  20
ATOM     20  C   UNL     1      32.749 -23.093 -16.522  0.00  0.00    -0.017 C 
BRANCH  20  21
ATOM     21  N   UNL     1      31.302 -23.143 -16.285  0.00  0.00    +0.384 N 
ATOM     22  H   UNL     1      30.914 -22.202 -16.347  0.00  0.00    -0.089 HD
ATOM     23  H   UNL     1      31.123 -23.525 -15.356  0.00  0.00    -0.089 HD
ATOM     24  H   UNL     1      30.864 -23.739 -16.987  0.00  0.00    -0.089 HD
ENDBRANCH  20  21
BRANCH  20  25
ATOM     25  C   UNL     1      33.469 -24.027 -15.513  0.00  0.00    +0.009 C 
BRANCH  25  27
ATOM     26  N   UNL     1      36.880 -22.741 -15.300  0.00  0.00    -0.312 N 
ATOM     27  C   UNL     1      34.919 -23.777 -15.376  0.00  0.00    -0.008 C 
ATOM     28  C   UNL     1      35.923 -24.747 -15.102  0.00  0.00    +0.011 C 
ATOM     29  C   UNL     1      37.145 -24.070 -15.060  0.00  0.00    +0.048 C 
ATOM     30  C   UNL     1      35.537 -22.553 -15.493  0.00  0.00    +0.058 C 
ATOM     31  C   UNL     1      35.912 -26.138 -14.884  0.00  0.00    +0.001 C 
ATOM     32  C   UNL     1      38.359 -24.719 -14.809  0.00  0.00    +0.015 C 
ATOM     33  C   UNL     1      37.118 -26.801 -14.633  0.00  0.00    +0.000 C 
ATOM     34  C   UNL     1      38.323 -26.100 -14.596  0.00  0.00    +0.001 C 
ATOM     35  H   UNL     1      37.558 -22.028 -15.330  0.00  0.00    +0.152 HD
ENDBRANCH  25  27
ENDBRANCH  20  25
ENDBRANCH  19  20
ENDBRANCH   1  19
TORSDOF 7
ENDMDL
MODEL 3
REMARK VINA RESULT:     -12.0      2.075      9.952
REMARK  Name = 10172943
REMARK  7 active torsions:
REMARK  status: ('A' for Active; 'I' for Inactive)
REMARK    1  A    between atoms: O_1  and  C_3
REMARK    2  A    between atoms: O_1  and  C_19
REMARK    3  A    between atoms: C_4  and  C_11
REMARK    4  A    between atoms: C_19  and  C_20
REMARK    5  A    between atoms: C_20  and  N_21
REMARK    6  A    between atoms: C_20  and  C_25
REMARK    7  A    between atoms: C_25  and  C_27
REMARK                            x       y       z     vdW  Elec       q    Type
REMARK                         _______ _______ _______ _____ _____    ______ ____
ROOT
ATOM      1  O   UNL     1      32.372 -22.324 -18.847  0.00  0.00    -0.476 OA
ENDROOT
BRANCH   1   3
ATOM      2  N   UNL     1      31.192 -23.464 -15.593  0.00  0.00    -0.239 NA
ATOM      3  C   UNL     1      32.403 -22.764 -17.549  0.00  0.00    +0.158 C 
ATOM      4  C   UNL     1      33.610 -23.403 -15.586  0.00  0.00    +0.022 C 
ATOM      5  C   UNL     1      33.610 -22.954 -16.901  0.00  0.00    +0.040 C 
ATOM      6  C   UNL     1      31.233 -23.026 -16.871  0.00  0.00    +0.136 C 
ATOM      7  C   UNL     1      32.386 -23.641 -14.981  0.00  0.00    +0.099 C 
BRANCH   4  11
ATOM      8  N   UNL     1      37.703 -24.300 -11.577  0.00  0.00    -0.280 N 
ATOM      9  N   UNL     1      38.311 -24.224 -12.778  0.00  0.00    -0.173 NA
ATOM     10  C   UNL     1      36.059 -23.970 -12.936  0.00  0.00    +0.032 A 
ATOM     11  C   UNL     1      34.847 -23.616 -14.871  0.00  0.00    +0.002 C 
ATOM     12  C   UNL     1      37.312 -24.017 -13.653  0.00  0.00    +0.102 A 
ATOM     13  C   UNL     1      34.792 -23.775 -13.469  0.00  0.00    +0.003 C 
ATOM     14  C   UNL     1      36.348 -24.155 -11.614  0.00  0.00    +0.053 A 
ATOM     15  C   UNL     1      36.067 -23.656 -15.624  0.00  0.00    +0.002 C 
ATOM     16  C   UNL     1      37.343 -23.856 -15.050  0.00  0.00    +0.021 C 
ATOM     17  C   UNL     1      35.523 -24.213 -10.395  0.00  0.00    +0.051 C 
ATOM     18  H   UNL     1      38.199 -24.450 -10.740  0.00  0.00    +0.189 HD
ENDBRANCH   4  11
ENDBRANCH   1   3
BRANCH   1  19
ATOM     19  C   UNL     1      33.620 -22.000 -19.445  0.00  0.00    +0.184 C 
BRANCH  19  20
ATOM     20  C   UNL     1      33.472 -20.926 -20.530  0.00  0.00    -0.017 C 
BRANCH  20  21
ATOM     21  N   UNL     1      32.246 -20.161 -20.268  0.00  0.00    +0.384 N 
ATOM     22  H   UNL     1      31.522 -20.789 -19.920  0.00  0.00    -0.089 HD
ATOM     23  H   UNL     1      31.930 -19.721 -21.132  0.00  0.00    -0.089 HD
ATOM     24  H   UNL     1      32.437 -19.442 -19.570  0.00  0.00    -0.089 HD
ENDBRANCH  20  21
BRANCH  20  25
ATOM     25  C   UNL     1      34.678 -19.953 -20.610  0.00  0.00    +0.009 C 
BRANCH  25  27
ATOM     26  N   UNL     1      34.613 -18.281 -23.855  0.00  0.00    -0.312 N 
ATOM     27  C   UNL     1      34.649 -19.038 -21.769  0.00  0.00    -0.008 C 
ATOM     28  C   UNL     1      34.626 -17.616 -21.726  0.00  0.00    +0.011 C 
ATOM     29  C   UNL     1      34.604 -17.166 -23.048  0.00  0.00    +0.048 C 
ATOM     30  C   UNL     1      34.641 -19.417 -23.092  0.00  0.00    +0.058 C 
ATOM     31  C   UNL     1      34.621 -16.665 -20.687  0.00  0.00    +0.001 C 
ATOM     32  C   UNL     1      34.577 -15.807 -23.383  0.00  0.00    +0.015 C 
ATOM     33  C   UNL     1      34.594 -15.303 -21.007  0.00  0.00    +0.000 C 
ATOM     34  C   UNL     1      34.572 -14.883 -22.335  0.00  0.00    +0.001 C 
ATOM     35  H   UNL     1      34.603 -18.264 -24.840  0.00  0.00    +0.152 HD
ENDBRANCH  25  27
ENDBRANCH  20  25
ENDBRANCH  19  20
ENDBRANCH   1  19
TORSDOF 7
ENDMDL
MODEL 4
REMARK VINA RESULT:     -11.9      3.879      7.538
REMARK  Name = 10172943
REMARK  7 active torsions:
REMARK  status: ('A' for Active; 'I' for Inactive)
REMARK    1  A    between atoms: O_1  and  C_3
REMARK    2  A    between atoms: O_1  and  C_19
REMARK    3  A    between atoms: C_4  and  C_11
REMARK    4  A    between atoms: C_19  and  C_20
REMARK    5  A    between atoms: C_20  and  N_21
REMARK    6  A    between atoms: C_20  and  C_25
REMARK    7  A    between atoms: C_25  and  C_27
REMARK                            x       y       z     vdW  Elec       q    Type
REMARK                         _______ _______ _______ _____ _____    ______ ____
ROOT
ATOM      1  O   UNL     1      32.968 -18.580 -24.597  0.00  0.00    -0.476 OA
ENDROOT
BRANCH   1   3
ATOM      2  N   UNL     1      31.536 -17.295 -27.692  0.00  0.00    -0.239 NA
ATOM      3  C   UNL     1      32.636 -17.697 -25.591  0.00  0.00    +0.158 C 
ATOM      4  C   UNL     1      32.680 -15.502 -26.540  0.00  0.00    +0.022 C 
ATOM      5  C   UNL     1      33.034 -16.374 -25.518  0.00  0.00    +0.040 C 
ATOM      6  C   UNL     1      31.899 -18.113 -26.678  0.00  0.00    +0.136 C 
ATOM      7  C   UNL     1      31.938 -16.007 -27.597  0.00  0.00    +0.099 C 
BRANCH   4  11
ATOM      8  N   UNL     1      33.690  -9.983 -25.076  0.00  0.00    -0.280 N 
ATOM      9  N   UNL     1      34.159 -10.171 -26.326  0.00  0.00    -0.173 NA
ATOM     10  C   UNL     1      33.240 -12.059 -25.459  0.00  0.00    +0.032 A 
ATOM     11  C   UNL     1      33.073 -14.113 -26.504  0.00  0.00    +0.002 C 
ATOM     12  C   UNL     1      33.894 -11.460 -26.599  0.00  0.00    +0.102 A 
ATOM     13  C   UNL     1      32.801 -13.370 -25.334  0.00  0.00    +0.003 C 
ATOM     14  C   UNL     1      33.127 -11.086 -24.506  0.00  0.00    +0.053 A 
ATOM     15  C   UNL     1      33.721 -13.560 -27.658  0.00  0.00    +0.002 C 
ATOM     16  C   UNL     1      34.155 -12.219 -27.754  0.00  0.00    +0.021 C 
ATOM     17  C   UNL     1      32.565 -11.061 -23.145  0.00  0.00    +0.051 C 
ATOM     18  H   UNL     1      33.750  -9.117 -24.612  0.00  0.00    +0.189 HD
ENDBRANCH   4  11
ENDBRANCH   1   3
BRANCH   1  19
ATOM     19  C   UNL     1      34.279 -19.127 -24.637  0.00  0.00    +0.184 C 
BRANCH  19  20
ATOM     20  C   UNL     1      34.917 -19.184 -23.242  0.00  0.00    -0.017 C 
BRANCH  20  21
ATOM     21  N   UNL     1      36.149 -18.387 -23.257  0.00  0.00    +0.384 N 
ATOM     22  H   UNL     1      36.908 -18.928 -22.843  0.00  0.00    -0.089 HD
ATOM     23  H   UNL     1      36.007 -17.532 -22.720  0.00  0.00    -0.089 HD
ATOM     24  H   UNL     1      36.387 -18.148 -24.220  0.00  0.00    -0.089 HD
ENDBRANCH  20  21
BRANCH  20  25
ATOM     25  C   UNL     1      33.985 -18.670 -22.112  0.00  0.00    +0.009 C 
BRANCH  25  27
ATOM     26  N   UNL     1      32.271 -21.101 -19.995  0.00  0.00    -0.312 N 
ATOM     27  C   UNL     1      33.552 -19.710 -21.157  0.00  0.00    -0.008 C 
ATOM     28  C   UNL     1      34.388 -20.458 -20.281  0.00  0.00    +0.011 C 
ATOM     29  C   UNL     1      33.559 -21.323 -19.563  0.00  0.00    +0.048 C 
ATOM     30  C   UNL     1      32.256 -20.127 -20.957  0.00  0.00    +0.058 C 
ATOM     31  C   UNL     1      35.774 -20.483 -20.030  0.00  0.00    +0.001 C 
ATOM     32  C   UNL     1      34.050 -22.216 -18.603  0.00  0.00    +0.015 C 
ATOM     33  C   UNL     1      36.279 -21.370 -19.073  0.00  0.00    +0.000 C 
ATOM     34  C   UNL     1      35.428 -22.223 -18.371  0.00  0.00    +0.001 C 
ATOM     35  H   UNL     1      31.475 -21.573 -19.658  0.00  0.00    +0.152 HD
ENDBRANCH  25  27
ENDBRANCH  20  25
ENDBRANCH  19  20
ENDBRANCH   1  19
TORSDOF 7
ENDMDL
MODEL 5
REMARK VINA RESULT:     -11.8      1.687      9.894
REMARK  Name = 10172943
REMARK  7 active torsions:
REMARK  status: ('A' for Active; 'I' for Inactive)
REMARK    1  A    between atoms: O_1  and  C_3
REMARK    2  A    between atoms: O_1  and  C_19
REMARK    3  A    between atoms: C_4  and  C_11
REMARK    4  A    between atoms: C_19  and  C_20
REMARK    5  A    between atoms: C_20  and  N_21
REMARK    6  A    between atoms: C_20  and  C_25
REMARK    7  A    between atoms: C_25  and  C_27
REMARK                            x       y       z     vdW  Elec       q    Type
REMARK                         _______ _______ _______ _____ _____    ______ ____
ROOT
ATOM      1  O   UNL     1      34.526 -21.283 -20.486  0.00  0.00    -0.476 OA
ENDROOT
BRANCH   1   3
ATOM      2  N   UNL     1      36.441 -22.097 -17.495  0.00  0.00    -0.239 NA
ATOM      3  C   UNL     1      34.810 -21.740 -19.226  0.00  0.00    +0.158 C 
ATOM      4  C   UNL     1      34.132 -22.732 -17.158  0.00  0.00    +0.022 C 
ATOM      5  C   UNL     1      33.814 -22.279 -18.433  0.00  0.00    +0.040 C 
ATOM      6  C   UNL     1      36.093 -21.667 -18.728  0.00  0.00    +0.136 C 
ATOM      7  C   UNL     1      35.449 -22.621 -16.739  0.00  0.00    +0.099 C 
BRANCH   4  11
ATOM      8  N   UNL     1      29.188 -24.506 -14.700  0.00  0.00    -0.280 N 
ATOM      9  N   UNL     1      30.206 -24.888 -13.903  0.00  0.00    -0.173 NA
ATOM     10  C   UNL     1      30.929 -23.777 -15.748  0.00  0.00    +0.032 A 
ATOM     11  C   UNL     1      33.123 -23.300 -16.296  0.00  0.00    +0.002 C 
ATOM     12  C   UNL     1      31.311 -24.448 -14.528  0.00  0.00    +0.102 A 
ATOM     13  C   UNL     1      31.769 -23.180 -16.679  0.00  0.00    +0.003 C 
ATOM     14  C   UNL     1      29.566 -23.833 -15.825  0.00  0.00    +0.053 A 
ATOM     15  C   UNL     1      33.548 -23.959 -15.094  0.00  0.00    +0.002 C 
ATOM     16  C   UNL     1      32.667 -24.556 -14.166  0.00  0.00    +0.021 C 
ATOM     17  C   UNL     1      28.586 -23.344 -16.809  0.00  0.00    +0.051 C 
ATOM     18  H   UNL     1      28.246 -24.697 -14.487  0.00  0.00    +0.189 HD
ENDBRANCH   4  11
ENDBRANCH   1   3
BRANCH   1  19
ATOM     19  C   UNL     1      33.642 -20.175 -20.582  0.00  0.00    +0.184 C 
BRANCH  19  20
ATOM     20  C   UNL     1      34.298 -18.982 -21.290  0.00  0.00    -0.017 C 
BRANCH  20  21
ATOM     21  N   UNL     1      35.611 -18.738 -20.680  0.00  0.00    +0.384 N 
ATOM     22  H   UNL     1      35.633 -17.796 -20.289  0.00  0.00    -0.089 HD
ATOM     23  H   UNL     1      36.337 -18.829 -21.390  0.00  0.00    -0.089 HD
ATOM     24  H   UNL     1      35.772 -19.419 -19.939  0.00  0.00    -0.089 HD
ENDBRANCH  20  21
BRANCH  20  25
ATOM     25  C   UNL     1      34.471 -19.185 -22.819  0.00  0.00    +0.009 C 
BRANCH  25  27
ATOM     26  N   UNL     1      34.290 -15.882 -24.367  0.00  0.00    -0.312 N 
ATOM     27  C   UNL     1      34.221 -17.974 -23.629  0.00  0.00    -0.008 C 
ATOM     28  C   UNL     1      33.380 -17.878 -24.772  0.00  0.00    +0.011 C 
ATOM     29  C   UNL     1      33.441 -16.555 -25.216  0.00  0.00    +0.048 C 
ATOM     30  C   UNL     1      34.766 -16.731 -23.403  0.00  0.00    +0.058 C 
ATOM     31  C   UNL     1      32.570 -18.792 -25.475  0.00  0.00    +0.001 C 
ATOM     32  C   UNL     1      32.730 -16.100 -26.332  0.00  0.00    +0.015 C 
ATOM     33  C   UNL     1      31.854 -18.351 -26.593  0.00  0.00    +0.000 C 
ATOM     34  C   UNL     1      31.934 -17.025 -27.014  0.00  0.00    +0.001 C 
ATOM     35  H   UNL     1      34.520 -14.928 -24.441  0.00  0.00    +0.152 HD
ENDBRANCH  25  27
ENDBRANCH  20  25
ENDBRANCH  19  20
ENDBRANCH   1  19
TORSDOF 7
ENDMDL
MODEL 6
REMARK VINA RESULT:     -11.8      2.205     10.206
REMARK  Name = 10172943
REMARK  7 active torsions:
REMARK  status: ('A' for Active; 'I' for Inactive)
REMARK    1  A    between atoms: O_1  and  C_3
REMARK    2  A    between atoms: O_1  and  C_19
REMARK    3  A    between atoms: C_4  and  C_11
REMARK    4  A    between atoms: C_19  and  C_20
REMARK    5  A    between atoms: C_20  and  N_21
REMARK    6  A    between atoms: C_20  and  C_25
REMARK    7  A    between atoms: C_25  and  C_27
REMARK                            x       y       z     vdW  Elec       q    Type
REMARK                         _______ _______ _______ _____ _____    ______ ____
ROOT
ATOM      1  O   UNL     1      35.383 -21.164 -19.024  0.00  0.00    -0.476 OA
ENDROOT
BRANCH   1   3
ATOM      2  N   UNL     1      32.542 -23.121 -17.849  0.00  0.00    -0.239 NA
ATOM      3  C   UNL     1      34.628 -21.987 -18.228  0.00  0.00    +0.158 C 
ATOM      4  C   UNL     1      34.362 -23.336 -16.272  0.00  0.00    +0.022 C 
ATOM      5  C   UNL     1      35.150 -22.503 -17.056  0.00  0.00    +0.040 C 
ATOM      6  C   UNL     1      33.338 -22.315 -18.586  0.00  0.00    +0.136 C 
ATOM      7  C   UNL     1      33.075 -23.611 -16.707  0.00  0.00    +0.099 C 
BRANCH   4  11
ATOM      8  N   UNL     1      37.544 -25.869 -12.138  0.00  0.00    -0.280 N 
ATOM      9  N   UNL     1      36.367 -25.507 -11.589  0.00  0.00    -0.173 NA
ATOM     10  C   UNL     1      36.497 -24.955 -13.789  0.00  0.00    +0.032 A 
ATOM     11  C   UNL     1      34.867 -23.897 -15.041  0.00  0.00    +0.002 C 
ATOM     12  C   UNL     1      35.686 -24.931 -12.595  0.00  0.00    +0.102 A 
ATOM     13  C   UNL     1      36.162 -24.462 -15.044  0.00  0.00    +0.003 C 
ATOM     14  C   UNL     1      37.676 -25.561 -13.460  0.00  0.00    +0.053 A 
ATOM     15  C   UNL     1      34.028 -23.851 -13.878  0.00  0.00    +0.002 C 
ATOM     16  C   UNL     1      34.399 -24.363 -12.615  0.00  0.00    +0.021 C 
ATOM     17  C   UNL     1      38.896 -25.883 -14.219  0.00  0.00    +0.051 C 
ATOM     18  H   UNL     1      38.252 -26.321 -11.625  0.00  0.00    +0.189 HD
ENDBRANCH   4  11
ENDBRANCH   1   3
BRANCH   1  19
ATOM     19  C   UNL     1      35.344 -21.413 -20.423  0.00  0.00    +0.184 C 
BRANCH  19  20
ATOM     20  C   UNL     1      34.779 -20.218 -21.200  0.00  0.00    -0.017 C 
BRANCH  20  21
ATOM     21  N   UNL     1      33.455 -19.889 -20.657  0.00  0.00    +0.384 N 
ATOM     22  H   UNL     1      33.411 -18.890 -20.451  0.00  0.00    -0.089 HD
ATOM     23  H   UNL     1      33.298 -20.420 -19.801  0.00  0.00    -0.089 HD
ATOM     24  H   UNL     1      32.738 -20.127 -21.342  0.00  0.00    -0.089 HD
ENDBRANCH  20  21
BRANCH  20  25
ATOM     25  C   UNL     1      35.684 -18.958 -21.148  0.00  0.00    +0.009 C 
BRANCH  25  27
ATOM     26  N   UNL     1      35.057 -16.910 -24.105  0.00  0.00    -0.312 N 
ATOM     27  C   UNL     1      35.358 -17.929 -22.157  0.00  0.00    -0.008 C 
ATOM     28  C   UNL     1      34.904 -16.605 -21.900  0.00  0.00    +0.011 C 
ATOM     29  C   UNL     1      34.723 -15.987 -23.140  0.00  0.00    +0.048 C 
ATOM     30  C   UNL     1      35.443 -18.087 -23.521  0.00  0.00    +0.058 C 
ATOM     31  C   UNL     1      34.627 -15.872 -20.730  0.00  0.00    +0.001 C 
ATOM     32  C   UNL     1      34.277 -14.666 -23.267  0.00  0.00    +0.015 C 
ATOM     33  C   UNL     1      34.181 -14.550 -20.842  0.00  0.00    +0.000 C 
ATOM     34  C   UNL     1      34.009 -13.958 -22.092  0.00  0.00    +0.001 C 
ATOM     35  H   UNL     1      35.025 -16.746 -25.075  0.00  0.00    +0.152 HD
ENDBRANCH  25  27
ENDBRANCH  20  25
ENDBRANCH  19  20
ENDBRANCH   1  19
TORSDOF 7
ENDMDL
MODEL 7
REMARK VINA RESULT:     -11.8      1.465      9.502
REMARK  Name = 10172943
REMARK  7 active torsions:
REMARK  status: ('A' for Active; 'I' for Inactive)
REMARK    1  A    between atoms: O_1  and  C_3
REMARK    2  A    between atoms: O_1  and  C_19
REMARK    3  A    between atoms: C_4  and  C_11
REMARK    4  A    between atoms: C_19  and  C_20
REMARK    5  A    between atoms: C_20  and  N_21
REMARK    6  A    between atoms: C_20  and  C_25
REMARK    7  A    between atoms: C_25  and  C_27
REMARK                            x       y       z     vdW  Elec       q    Type
REMARK                         _______ _______ _______ _____ _____    ______ ____
ROOT
ATOM      1  O   UNL     1      36.000 -21.243 -18.852  0.00  0.00    -0.476 OA
ENDROOT
BRANCH   1   3
ATOM      2  N   UNL     1      37.010 -22.529 -15.596  0.00  0.00    -0.239 NA
ATOM      3  C   UNL     1      35.916 -21.851 -17.627  0.00  0.00    +0.158 C 
ATOM      4  C   UNL     1      34.661 -22.988 -15.937  0.00  0.00    +0.022 C 
ATOM      5  C   UNL     1      34.716 -22.379 -17.185  0.00  0.00    +0.040 C 
ATOM      6  C   UNL     1      37.025 -21.944 -16.814  0.00  0.00    +0.136 C 
ATOM      7  C   UNL     1      35.826 -23.038 -15.188  0.00  0.00    +0.099 C 
BRANCH   4  11
ATOM      8  N   UNL     1      29.130 -24.415 -14.939  0.00  0.00    -0.280 N 
ATOM      9  N   UNL     1      29.897 -25.106 -14.073  0.00  0.00    -0.173 NA
ATOM     10  C   UNL     1      31.129 -23.775 -15.440  0.00  0.00    +0.032 A 
ATOM     11  C   UNL     1      33.429 -23.552 -15.437  0.00  0.00    +0.002 C 
ATOM     12  C   UNL     1      31.155 -24.730 -14.358  0.00  0.00    +0.102 A 
ATOM     13  C   UNL     1      32.215 -23.144 -16.033  0.00  0.00    +0.003 C 
ATOM     14  C   UNL     1      29.819 -23.599 -15.786  0.00  0.00    +0.053 A 
ATOM     15  C   UNL     1      33.503 -24.497 -14.360  0.00  0.00    +0.002 C 
ATOM     16  C   UNL     1      32.377 -25.121 -13.779  0.00  0.00    +0.021 C 
ATOM     17  C   UNL     1      29.141 -22.772 -16.799  0.00  0.00    +0.051 C 
ATOM     18  H   UNL     1      28.149 -24.494 -14.959  0.00  0.00    +0.189 HD
ENDBRANCH   4  11
ENDBRANCH   1   3
BRANCH   1  19
ATOM     19  C   UNL     1      35.142 -21.735 -19.872  0.00  0.00    +0.184 C 
BRANCH  19  20
ATOM     20  C   UNL     1      34.685 -20.619 -20.821  0.00  0.00    -0.017 C 
BRANCH  20  21
ATOM     21  N   UNL     1      33.321 -20.220 -20.454  0.00  0.00    +0.384 N 
ATOM     22  H   UNL     1      32.994 -20.800 -19.681  0.00  0.00    -0.089 HD
ATOM     23  H   UNL     1      32.704 -20.342 -21.257  0.00  0.00    -0.089 HD
ATOM     24  H   UNL     1      33.319 -19.241 -20.170  0.00  0.00    -0.089 HD
ENDBRANCH  20  21
BRANCH  20  25
ATOM     25  C   UNL     1      35.608 -19.372 -20.804  0.00  0.00    +0.009 C 
BRANCH  25  27
ATOM     26  N   UNL     1      35.157 -17.539 -23.930  0.00  0.00    -0.312 N 
ATOM     27  C   UNL     1      35.360 -18.412 -21.899  0.00  0.00    -0.008 C 
ATOM     28  C   UNL     1      34.972 -17.050 -21.761  0.00  0.00    +0.011 C 
ATOM     29  C   UNL     1      34.852 -16.526 -23.050  0.00  0.00    +0.048 C 
ATOM     30  C   UNL     1      35.466 -18.684 -23.244  0.00  0.00    +0.058 C 
ATOM     31  C   UNL     1      34.710 -16.211 -20.660  0.00  0.00    +0.001 C 
ATOM     32  C   UNL     1      34.481 -15.198 -23.293  0.00  0.00    +0.015 C 
ATOM     33  C   UNL     1      34.338 -14.881 -20.888  0.00  0.00    +0.000 C 
ATOM     34  C   UNL     1      34.226 -14.385 -22.186  0.00  0.00    +0.001 C 
ATOM     35  H   UNL     1      35.154 -17.453 -24.910  0.00  0.00    +0.152 HD
ENDBRANCH  25  27
ENDBRANCH  20  25
ENDBRANCH  19  20
ENDBRANCH   1  19
TORSDOF 7
ENDMDL
MODEL 8
REMARK VINA RESULT:     -11.7      2.119     10.249
REMARK  Name = 10172943
REMARK  7 active torsions:
REMARK  status: ('A' for Active; 'I' for Inactive)
REMARK    1  A    between atoms: O_1  and  C_3
REMARK    2  A    between atoms: O_1  and  C_19
REMARK    3  A    between atoms: C_4  and  C_11
REMARK    4  A    between atoms: C_19  and  C_20
REMARK    5  A    between atoms: C_20  and  N_21
REMARK    6  A    between atoms: C_20  and  C_25
REMARK    7  A    between atoms: C_25  and  C_27
REMARK                            x       y       z     vdW  Elec       q    Type
REMARK                         _______ _______ _______ _____ _____    ______ ____
ROOT
ATOM      1  O   UNL     1      34.938 -21.295 -19.439  0.00  0.00    -0.476 OA
ENDROOT
BRANCH   1   3
ATOM      2  N   UNL     1      32.133 -22.916 -17.769  0.00  0.00    -0.239 NA
ATOM      3  C   UNL     1      34.235 -22.003 -18.499  0.00  0.00    +0.158 C 
ATOM      4  C   UNL     1      34.133 -23.224 -16.445  0.00  0.00    +0.022 C 
ATOM      5  C   UNL     1      34.872 -22.508 -17.380  0.00  0.00    +0.040 C 
ATOM      6  C   UNL     1      32.884 -22.225 -18.656  0.00  0.00    +0.136 C 
ATOM      7  C   UNL     1      32.779 -23.398 -16.683  0.00  0.00    +0.099 C 
BRANCH   4  11
ATOM      8  N   UNL     1      37.778 -25.526 -12.566  0.00  0.00    -0.280 N 
ATOM      9  N   UNL     1      36.595 -25.326 -11.952  0.00  0.00    -0.173 NA
ATOM     10  C   UNL     1      36.555 -24.677 -14.129  0.00  0.00    +0.032 A 
ATOM     11  C   UNL     1      34.758 -23.770 -15.263  0.00  0.00    +0.002 C 
ATOM     12  C   UNL     1      35.805 -24.796 -12.902  0.00  0.00    +0.102 A 
ATOM     13  C   UNL     1      36.107 -24.178 -15.345  0.00  0.00    +0.003 C 
ATOM     14  C   UNL     1      37.812 -25.153 -13.877  0.00  0.00    +0.053 A 
ATOM     15  C   UNL     1      33.974 -23.869 -14.065  0.00  0.00    +0.002 C 
ATOM     16  C   UNL     1      34.461 -24.383 -12.843  0.00  0.00    +0.021 C 
ATOM     17  C   UNL     1      39.024 -25.298 -14.700  0.00  0.00    +0.051 C 
ATOM     18  H   UNL     1      38.557 -25.911 -12.103  0.00  0.00    +0.189 HD
ENDBRANCH   4  11
ENDBRANCH   1   3
BRANCH   1  19
ATOM     19  C   UNL     1      34.177 -20.561 -20.389  0.00  0.00    +0.184 C 
BRANCH  19  20
ATOM     20  C   UNL     1      34.986 -19.411 -21.002  0.00  0.00    -0.017 C 
BRANCH  20  21
ATOM     21  N   UNL     1      36.366 -19.492 -20.508  0.00  0.00    +0.384 N 
ATOM     22  H   UNL     1      36.706 -20.449 -20.607  0.00  0.00    -0.089 HD
ATOM     23  H   UNL     1      36.391 -19.222 -19.525  0.00  0.00    -0.089 HD
ATOM     24  H   UNL     1      36.958 -18.862 -21.048  0.00  0.00    -0.089 HD
ENDBRANCH  20  21
BRANCH  20  25
ATOM     25  C   UNL     1      34.995 -19.415 -22.554  0.00  0.00    +0.009 C 
BRANCH  25  27
ATOM     26  N   UNL     1      34.592 -15.931 -23.569  0.00  0.00    -0.312 N 
ATOM     27  C   UNL     1      34.669 -18.113 -23.171  0.00  0.00    -0.008 C 
ATOM     28  C   UNL     1      33.848 -17.898 -24.313  0.00  0.00    +0.011 C 
ATOM     29  C   UNL     1      33.816 -16.520 -24.541  0.00  0.00    +0.048 C 
ATOM     30  C   UNL     1      35.112 -16.885 -22.735  0.00  0.00    +0.058 C 
ATOM     31  C   UNL     1      33.126 -18.745 -25.177  0.00  0.00    +0.001 C 
ATOM     32  C   UNL     1      33.096 -15.946 -25.594  0.00  0.00    +0.015 C 
ATOM     33  C   UNL     1      32.402 -18.184 -26.235  0.00  0.00    +0.000 C 
ATOM     34  C   UNL     1      32.388 -16.806 -26.439  0.00  0.00    +0.001 C 
ATOM     35  H   UNL     1      34.750 -14.963 -23.484  0.00  0.00    +0.152 HD
ENDBRANCH  25  27
ENDBRANCH  20  25
ENDBRANCH  19  20
ENDBRANCH   1  19
TORSDOF 7
ENDMDL
MODEL 9
REMARK VINA RESULT:     -11.6      7.438     12.221
REMARK  Name = 10172943
REMARK  7 active torsions:
REMARK  status: ('A' for Active; 'I' for Inactive)
REMARK    1  A    between atoms: O_1  and  C_3
REMARK    2  A    between atoms: O_1  and  C_19
REMARK    3  A    between atoms: C_4  and  C_11
REMARK    4  A    between atoms: C_19  and  C_20
REMARK    5  A    between atoms: C_20  and  N_21
REMARK    6  A    between atoms: C_20  and  C_25
REMARK    7  A    between atoms: C_25  and  C_27
REMARK                            x       y       z     vdW  Elec       q    Type
REMARK                         _______ _______ _______ _____ _____    ______ ____
ROOT
ATOM      1  O   UNL     1      33.069  -9.999 -25.347  0.00  0.00    -0.476 OA
ENDROOT
BRANCH   1   3
ATOM      2  N   UNL     1      32.761 -13.332 -26.788  0.00  0.00    -0.239 NA
ATOM      3  C   UNL     1      33.097 -11.366 -25.444  0.00  0.00    +0.158 C 
ATOM      4  C   UNL     1      33.495 -13.523 -24.492  0.00  0.00    +0.022 C 
ATOM      5  C   UNL     1      33.474 -12.140 -24.362  0.00  0.00    +0.040 C 
ATOM      6  C   UNL     1      32.753 -11.990 -26.623  0.00  0.00    +0.136 C 
ATOM      7  C   UNL     1      33.132 -14.066 -25.714  0.00  0.00    +0.099 C 
BRANCH   4  11
ATOM      8  N   UNL     1      35.268 -17.881 -21.102  0.00  0.00    -0.280 N 
ATOM      9  N   UNL     1      34.997 -16.826 -20.309  0.00  0.00    -0.173 NA
ATOM     10  C   UNL     1      34.631 -16.369 -22.504  0.00  0.00    +0.032 A 
ATOM     11  C   UNL     1      33.883 -14.369 -23.387  0.00  0.00    +0.002 C 
ATOM     12  C   UNL     1      34.595 -15.860 -21.153  0.00  0.00    +0.102 A 
ATOM     13  C   UNL     1      34.292 -15.691 -23.667  0.00  0.00    +0.003 C 
ATOM     14  C   UNL     1      35.065 -17.663 -22.432  0.00  0.00    +0.053 A 
ATOM     15  C   UNL     1      33.833 -13.822 -22.062  0.00  0.00    +0.002 C 
ATOM     16  C   UNL     1      34.184 -14.539 -20.897  0.00  0.00    +0.021 C 
ATOM     17  C   UNL     1      35.312 -18.706 -23.442  0.00  0.00    +0.051 C 
ATOM     18  H   UNL     1      35.587 -18.743 -20.748  0.00  0.00    +0.189 HD
ENDBRANCH   4  11
ENDBRANCH   1   3
BRANCH   1  19
ATOM     19  C   UNL     1      34.078  -9.392 -24.552  0.00  0.00    +0.184 C 
BRANCH  19  20
ATOM     20  C   UNL     1      33.770  -7.916 -24.267  0.00  0.00    -0.017 C 
BRANCH  20  21
ATOM     21  N   UNL     1      33.720  -7.192 -25.543  0.00  0.00    +0.384 N 
ATOM     22  H   UNL     1      33.068  -6.412 -25.465  0.00  0.00    -0.089 HD
ATOM     23  H   UNL     1      33.409  -7.824 -26.280  0.00  0.00    -0.089 HD
ATOM     24  H   UNL     1      34.650  -6.838 -25.769  0.00  0.00    -0.089 HD
ENDBRANCH  20  21
BRANCH  20  25
ATOM     25  C   UNL     1      32.439  -7.697 -23.499  0.00  0.00    +0.009 C 
BRANCH  25  27
ATOM     26  N   UNL     1      32.875  -7.962 -19.883  0.00  0.00    -0.312 N 
ATOM     27  C   UNL     1      32.493  -8.058 -22.067  0.00  0.00    -0.008 C 
ATOM     28  C   UNL     1      32.027  -9.268 -21.481  0.00  0.00    +0.011 C 
ATOM     29  C   UNL     1      32.278  -9.182 -20.110  0.00  0.00    +0.048 C 
ATOM     30  C   UNL     1      33.010  -7.276 -21.060  0.00  0.00    +0.058 C 
ATOM     31  C   UNL     1      31.412 -10.431 -21.985  0.00  0.00    +0.001 C 
ATOM     32  C   UNL     1      31.944 -10.205 -19.215  0.00  0.00    +0.015 C 
ATOM     33  C   UNL     1      31.073 -11.462 -21.103  0.00  0.00    +0.000 C 
ATOM     34  C   UNL     1      31.335 -11.349 -19.739  0.00  0.00    +0.001 C 
ATOM     35  H   UNL     1      33.164  -7.632 -19.002  0.00  0.00    +0.152 HD
ENDBRANCH  25  27
ENDBRANCH  20  25
ENDBRANCH  19  20
ENDBRANCH   1  19
TORSDOF 7
ENDMDL
