MODEL 1
REMARK VINA RESULT:     -12.8      0.000      0.000
REMARK  Name = 24880024
REMARK  5 active torsions:
REMARK  status: ('A' for Active; 'I' for Inactive)
REMARK    1  A    between atoms: N_5  and  C_12
REMARK    2  A    between atoms: C_6  and  C_22
REMARK    3  A    between atoms: C_13  and  C_21
REMARK    4  A    between atoms: C_22  and  C_23
REMARK    5  A    between atoms: C_23  and  N_25
REMARK                            x       y       z     vdW  Elec       q    Type
REMARK                         _______ _______ _______ _____ _____    ______ ____
ROOT
ATOM      1  S   UNL     1      33.281 -23.376 -16.965  0.00  0.00    -0.056 S 
ATOM      2  O   UNL     1      32.011 -20.187 -20.130  0.00  0.00    -0.252 OA
ATOM      3  N   UNL     1      31.265 -22.063 -17.913  0.00  0.00    -0.223 NA
ATOM      4  N   UNL     1      33.414 -21.622 -18.909  0.00  0.00    -0.248 N 
ATOM      5  N   UNL     1      34.303 -20.269 -20.591  0.00  0.00    -0.268 N 
ATOM      6  C   UNL     1      31.738 -23.665 -16.274  0.00  0.00    +0.031 C 
ATOM      7  C   UNL     1      30.795 -22.882 -16.905  0.00  0.00    +0.103 C 
ATOM      8  C   UNL     1      32.562 -22.240 -18.033  0.00  0.00    +0.166 C 
ATOM      9  C   UNL     1      33.131 -20.637 -19.910  0.00  0.00    +0.310 C 
ATOM     10  H   UNL     1      34.358 -21.893 -18.841  0.00  0.00    +0.158 HD
ATOM     11  H   UNL     1      35.130 -20.718 -20.301  0.00  0.00    +0.156 HD
ENDROOT
BRANCH   5  12
ATOM     12  C   UNL     1      34.442 -19.331 -21.641  0.00  0.00    +0.052 C 
ATOM     13  C   UNL     1      34.200 -18.750 -23.973  0.00  0.00    +0.073 C 
ATOM     14  C   UNL     1      34.064 -19.675 -22.939  0.00  0.00    +0.019 C 
ATOM     15  C   UNL     1      34.955 -18.061 -21.378  0.00  0.00    +0.015 C 
ATOM     16  C   UNL     1      34.714 -17.480 -23.710  0.00  0.00    +0.004 C 
ATOM     17  C   UNL     1      35.091 -17.135 -22.412  0.00  0.00    +0.001 C 
BRANCH  13  21
ATOM     18  F   UNL     1      34.251 -20.341 -25.758  0.00  0.00    -0.166 F 
ATOM     19  F   UNL     1      32.443 -19.163 -25.543  0.00  0.00    -0.166 F 
ATOM     20  F   UNL     1      34.261 -18.234 -26.294  0.00  0.00    -0.166 F 
ATOM     21  C   UNL     1      33.797 -19.117 -25.362  0.00  0.00    +0.419 C 
ENDBRANCH  13  21
ENDBRANCH   5  12
BRANCH   6  22
ATOM     22  C   UNL     1      31.576 -24.657 -15.148  0.00  0.00    +0.056 C 
BRANCH  22  23
ATOM     23  C   UNL     1      32.478 -24.359 -13.951  0.00  0.00    +0.093 C 
BRANCH  23  25
ATOM     24  S   UNL     1      36.759 -25.837 -14.958  0.00  0.00    -0.101 S 
ATOM     25  N   UNL     1      33.818 -24.798 -14.199  0.00  0.00    -0.320 N 
ATOM     26  N   UNL     1      34.569 -24.199 -12.021  0.00  0.00    -0.233 NA
ATOM     27  N   UNL     1      36.855 -24.529 -11.302  0.00  0.00    -0.247 NA
ATOM     28  C   UNL     1      34.842 -24.712 -13.236  0.00  0.00    +0.118 C 
ATOM     29  C   UNL     1      36.131 -25.149 -13.516  0.00  0.00    +0.145 C 
ATOM     30  C   UNL     1      37.114 -25.045 -12.533  0.00  0.00    +0.073 C 
ATOM     31  C   UNL     1      38.375 -25.537 -12.985  0.00  0.00    +0.022 C 
ATOM     32  C   UNL     1      38.321 -25.995 -14.282  0.00  0.00    +0.033 C 
ATOM     33  C   UNL     1      35.581 -24.139 -11.136  0.00  0.00    +0.251 C 
ATOM     34  H   UNL     1      34.034 -25.174 -15.082  0.00  0.00    +0.148 HD
ENDBRANCH  23  25
ENDBRANCH  22  23
ENDBRANCH   6  22
TORSDOF 5
ENDMDL
MODEL 2
REMARK VINA RESULT:     -12.5      5.923     12.067
REMARK  Name = 24880024
REMARK  5 active torsions:
REMARK  status: ('A' for Active; 'I' for Inactive)
REMARK    1  A    between atoms: N_5  and  C_12
REMARK    2  A    between atoms: C_6  and  C_22
REMARK    3  A    between atoms: C_13  and  C_21
REMARK    4  A    between atoms: C_22  and  C_23
REMARK    5  A    between atoms: C_23  and  N_25
REMARK                            x       y       z     vdW  Elec       q    Type
REMARK                         _______ _______ _______ _____ _____    ______ ____
ROOT
ATOM      1  S   UNL     1      36.157 -20.444 -20.134  0.00  0.00    -0.056 S 
ATOM      2  O   UNL     1      34.936 -23.179 -16.551  0.00  0.00    -0.252 OA
ATOM      3  N   UNL     1      34.164 -21.656 -19.018  0.00  0.00    -0.223 NA
ATOM      4  N   UNL     1      36.315 -21.899 -17.959  0.00  0.00    -0.248 N 
ATOM      5  N   UNL     1      37.221 -22.977 -16.097  0.00  0.00    -0.268 N 
ATOM      6  C   UNL     1      34.613 -20.294 -20.866  0.00  0.00    +0.031 C 
ATOM      7  C   UNL     1      33.683 -21.002 -20.134  0.00  0.00    +0.103 C 
ATOM      8  C   UNL     1      35.456 -21.433 -18.919  0.00  0.00    +0.166 C 
ATOM      9  C   UNL     1      36.046 -22.738 -16.829  0.00  0.00    +0.310 C 
ATOM     10  H   UNL     1      37.253 -21.618 -18.061  0.00  0.00    +0.158 HD
ATOM     11  H   UNL     1      38.040 -22.554 -16.444  0.00  0.00    +0.156 HD
ENDROOT
BRANCH   5  12
ATOM     12  C   UNL     1      37.373 -23.752 -14.923  0.00  0.00    +0.052 C 
ATOM     13  C   UNL     1      36.674 -24.310 -12.679  0.00  0.00    +0.073 C 
ATOM     14  C   UNL     1      36.524 -23.546 -13.836  0.00  0.00    +0.019 C 
ATOM     15  C   UNL     1      38.372 -24.723 -14.854  0.00  0.00    +0.015 C 
ATOM     16  C   UNL     1      37.672 -25.281 -12.610  0.00  0.00    +0.004 C 
ATOM     17  C   UNL     1      38.522 -25.488 -13.697  0.00  0.00    +0.001 C 
BRANCH  13  21
ATOM     18  F   UNL     1      34.615 -23.431 -11.836  0.00  0.00    -0.166 F 
ATOM     19  F   UNL     1      35.360 -25.247 -10.914  0.00  0.00    -0.166 F 
ATOM     20  F   UNL     1      36.350 -23.350 -10.528  0.00  0.00    -0.166 F 
ATOM     21  C   UNL     1      35.767 -24.090 -11.516  0.00  0.00    +0.419 C 
ENDBRANCH  13  21
ENDBRANCH   5  12
BRANCH   6  22
ATOM     22  C   UNL     1      34.437 -19.477 -22.123  0.00  0.00    +0.056 C 
BRANCH  22  23
ATOM     23  C   UNL     1      35.578 -18.490 -22.362  0.00  0.00    +0.093 C 
BRANCH  23  25
ATOM     24  S   UNL     1      34.043 -14.112 -22.409  0.00  0.00    -0.101 S 
ATOM     25  N   UNL     1      35.087 -17.148 -22.442  0.00  0.00    -0.320 N 
ATOM     26  N   UNL     1      34.470 -17.358 -24.732  0.00  0.00    -0.233 NA
ATOM     27  N   UNL     1      33.465 -15.541 -25.974  0.00  0.00    -0.247 NA
ATOM     28  C   UNL     1      34.543 -16.601 -23.619  0.00  0.00    +0.118 C 
ATOM     29  C   UNL     1      34.077 -15.292 -23.656  0.00  0.00    +0.145 C 
ATOM     30  C   UNL     1      33.545 -14.791 -24.844  0.00  0.00    +0.073 C 
ATOM     31  C   UNL     1      33.116 -13.437 -24.706  0.00  0.00    +0.022 C 
ATOM     32  C   UNL     1      33.329 -12.949 -23.437  0.00  0.00    +0.033 C 
ATOM     33  C   UNL     1      33.941 -16.788 -25.830  0.00  0.00    +0.251 C 
ATOM     34  H   UNL     1      35.134 -16.581 -21.639  0.00  0.00    +0.148 HD
ENDBRANCH  23  25
ENDBRANCH  22  23
ENDBRANCH   6  22
TORSDOF 5
ENDMDL
MODEL 3
REMARK VINA RESULT:     -12.2      6.136     12.466
REMARK  Name = 24880024
REMARK  5 active torsions:
REMARK  status: ('A' for Active; 'I' for Inactive)
REMARK    1  A    between atoms: N_5  and  C_12
REMARK    2  A    between atoms: C_6  and  C_22
REMARK    3  A    between atoms: C_13  and  C_21
REMARK    4  A    between atoms: C_22  and  C_23
REMARK    5  A    between atoms: C_23  and  N_25
REMARK                            x       y       z     vdW  Elec       q    Type
REMARK                         _______ _______ _______ _____ _____    ______ ____
ROOT
ATOM      1  S   UNL     1      36.497 -19.400 -20.863  0.00  0.00    -0.056 S 
ATOM      2  O   UNL     1      34.494 -22.424 -17.923  0.00  0.00    -0.252 OA
ATOM      3  N   UNL     1      34.342 -20.755 -20.410  0.00  0.00    -0.223 NA
ATOM      4  N   UNL     1      36.135 -21.002 -18.819  0.00  0.00    -0.248 N 
ATOM      5  N   UNL     1      36.558 -22.180 -16.849  0.00  0.00    -0.268 N 
ATOM      6  C   UNL     1      35.205 -19.248 -21.979  0.00  0.00    +0.031 C 
ATOM      7  C   UNL     1      34.149 -20.037 -21.574  0.00  0.00    +0.103 C 
ATOM      8  C   UNL     1      35.546 -20.496 -19.947  0.00  0.00    +0.166 C 
ATOM      9  C   UNL     1      35.614 -21.928 -17.858  0.00  0.00    +0.310 C 
ATOM     10  H   UNL     1      37.050 -20.683 -18.643  0.00  0.00    +0.158 HD
ATOM     11  H   UNL     1      37.417 -21.706 -16.932  0.00  0.00    +0.156 HD
ENDROOT
BRANCH   5  12
ATOM     12  C   UNL     1      36.426 -23.032 -15.727  0.00  0.00    +0.052 C 
ATOM     13  C   UNL     1      37.350 -24.704 -14.248  0.00  0.00    +0.073 C 
ATOM     14  C   UNL     1      37.480 -23.864 -15.354  0.00  0.00    +0.019 C 
ATOM     15  C   UNL     1      35.240 -23.038 -14.992  0.00  0.00    +0.015 C 
ATOM     16  C   UNL     1      36.164 -24.710 -13.514  0.00  0.00    +0.004 C 
ATOM     17  C   UNL     1      35.109 -23.877 -13.886  0.00  0.00    +0.001 C 
BRANCH  13  21
ATOM     18  F   UNL     1      38.244 -26.293 -12.700  0.00  0.00    -0.166 F 
ATOM     19  F   UNL     1      38.783 -26.542 -14.786  0.00  0.00    -0.166 F 
ATOM     20  F   UNL     1      39.637 -24.909 -13.633  0.00  0.00    -0.166 F 
ATOM     21  C   UNL     1      38.478 -25.595 -13.850  0.00  0.00    +0.419 C 
ENDBRANCH  13  21
ENDBRANCH   5  12
BRANCH   6  22
ATOM     22  C   UNL     1      35.333 -18.349 -23.185  0.00  0.00    +0.056 C 
BRANCH  22  23
ATOM     23  C   UNL     1      34.754 -16.953 -22.956  0.00  0.00    +0.093 C 
BRANCH  23  25
ATOM     24  S   UNL     1      32.752 -15.541 -26.896  0.00  0.00    -0.101 S 
ATOM     25  N   UNL     1      34.136 -16.454 -24.147  0.00  0.00    -0.320 N 
ATOM     26  N   UNL     1      34.074 -14.213 -23.346  0.00  0.00    -0.233 NA
ATOM     27  N   UNL     1      33.158 -12.395 -24.654  0.00  0.00    -0.247 NA
ATOM     28  C   UNL     1      33.805 -15.098 -24.326  0.00  0.00    +0.118 C 
ATOM     29  C   UNL     1      33.205 -14.653 -25.499  0.00  0.00    +0.145 C 
ATOM     30  C   UNL     1      32.893 -13.300 -25.633  0.00  0.00    +0.073 C 
ATOM     31  C   UNL     1      32.285 -13.017 -26.893  0.00  0.00    +0.022 C 
ATOM     32  C   UNL     1      32.150 -14.143 -27.672  0.00  0.00    +0.033 C 
ATOM     33  C   UNL     1      33.738 -12.929 -23.567  0.00  0.00    +0.251 C 
ATOM     34  H   UNL     1      33.932 -17.087 -24.872  0.00  0.00    +0.148 HD
ENDBRANCH  23  25
ENDBRANCH  22  23
ENDBRANCH   6  22
TORSDOF 5
ENDMDL
MODEL 4
REMARK VINA RESULT:     -12.1      6.072     12.501
REMARK  Name = 24880024
REMARK  5 active torsions:
REMARK  status: ('A' for Active; 'I' for Inactive)
REMARK    1  A    between atoms: N_5  and  C_12
REMARK    2  A    between atoms: C_6  and  C_22
REMARK    3  A    between atoms: C_13  and  C_21
REMARK    4  A    between atoms: C_22  and  C_23
REMARK    5  A    between atoms: C_23  and  N_25
REMARK                            x       y       z     vdW  Elec       q    Type
REMARK                         _______ _______ _______ _____ _____    ______ ____
ROOT
ATOM      1  S   UNL     1      36.549 -19.427 -20.883  0.00  0.00    -0.056 S 
ATOM      2  O   UNL     1      34.472 -22.417 -17.959  0.00  0.00    -0.252 OA
ATOM      3  N   UNL     1      34.373 -20.757 -20.455  0.00  0.00    -0.223 NA
ATOM      4  N   UNL     1      36.140 -21.016 -18.838  0.00  0.00    -0.248 N 
ATOM      5  N   UNL     1      36.522 -22.189 -16.856  0.00  0.00    -0.268 N 
ATOM      6  C   UNL     1      35.274 -19.267 -22.018  0.00  0.00    +0.031 C 
ATOM      7  C   UNL     1      34.204 -20.043 -21.625  0.00  0.00    +0.103 C 
ATOM      8  C   UNL     1      35.572 -20.509 -19.977  0.00  0.00    +0.166 C 
ATOM      9  C   UNL     1      35.596 -21.932 -17.880  0.00  0.00    +0.310 C 
ATOM     10  H   UNL     1      37.056 -20.706 -18.650  0.00  0.00    +0.158 HD
ATOM     11  H   UNL     1      37.387 -21.726 -16.930  0.00  0.00    +0.156 HD
ENDROOT
BRANCH   5  12
ATOM     12  C   UNL     1      36.365 -23.035 -15.733  0.00  0.00    +0.052 C 
ATOM     13  C   UNL     1      37.254 -24.701 -14.227  0.00  0.00    +0.073 C 
ATOM     14  C   UNL     1      37.409 -23.868 -15.335  0.00  0.00    +0.019 C 
ATOM     15  C   UNL     1      35.164 -23.034 -15.023  0.00  0.00    +0.015 C 
ATOM     16  C   UNL     1      36.054 -24.700 -13.517  0.00  0.00    +0.004 C 
ATOM     17  C   UNL     1      35.009 -23.866 -13.914  0.00  0.00    +0.001 C 
BRANCH  13  21
ATOM     18  F   UNL     1      38.079 -26.349 -12.702  0.00  0.00    -0.166 F 
ATOM     19  F   UNL     1      38.750 -26.490 -14.759  0.00  0.00    -0.166 F 
ATOM     20  F   UNL     1      39.502 -24.901 -13.479  0.00  0.00    -0.166 F 
ATOM     21  C   UNL     1      38.371 -25.593 -13.801  0.00  0.00    +0.419 C 
ENDBRANCH  13  21
ENDBRANCH   5  12
BRANCH   6  22
ATOM     22  C   UNL     1      35.429 -18.375 -23.226  0.00  0.00    +0.056 C 
BRANCH  22  23
ATOM     23  C   UNL     1      34.093 -17.949 -23.833  0.00  0.00    +0.093 C 
BRANCH  23  25
ATOM     24  S   UNL     1      33.714 -13.332 -23.570  0.00  0.00    -0.101 S 
ATOM     25  N   UNL     1      33.954 -16.524 -23.816  0.00  0.00    -0.320 N 
ATOM     26  N   UNL     1      33.198 -16.428 -26.071  0.00  0.00    -0.233 NA
ATOM     27  N   UNL     1      32.628 -14.344 -27.159  0.00  0.00    -0.247 NA
ATOM     28  C   UNL     1      33.511 -15.785 -24.930  0.00  0.00    +0.118 C 
ATOM     29  C   UNL     1      33.390 -14.401 -24.873  0.00  0.00    +0.145 C 
ATOM     30  C   UNL     1      32.948 -13.710 -26.000  0.00  0.00    +0.073 C 
ATOM     31  C   UNL     1      32.882 -12.303 -25.770  0.00  0.00    +0.022 C 
ATOM     32  C   UNL     1      33.270 -11.965 -24.494  0.00  0.00    +0.033 C 
ATOM     33  C   UNL     1      32.779 -15.677 -27.106  0.00  0.00    +0.251 C 
ATOM     34  H   UNL     1      34.180 -16.039 -22.990  0.00  0.00    +0.148 HD
ENDBRANCH  23  25
ENDBRANCH  22  23
ENDBRANCH   6  22
TORSDOF 5
ENDMDL
MODEL 5
REMARK VINA RESULT:     -11.7      1.777      2.247
REMARK  Name = 24880024
REMARK  5 active torsions:
REMARK  status: ('A' for Active; 'I' for Inactive)
REMARK    1  A    between atoms: N_5  and  C_12
REMARK    2  A    between atoms: C_6  and  C_22
REMARK    3  A    between atoms: C_13  and  C_21
REMARK    4  A    between atoms: C_22  and  C_23
REMARK    5  A    between atoms: C_23  and  N_25
REMARK                            x       y       z     vdW  Elec       q    Type
REMARK                         _______ _______ _______ _____ _____    ______ ____
ROOT
ATOM      1  S   UNL     1      33.738 -23.267 -17.008  0.00  0.00    -0.056 S 
ATOM      2  O   UNL     1      32.129 -20.371 -20.298  0.00  0.00    -0.252 OA
ATOM      3  N   UNL     1      31.598 -22.166 -17.955  0.00  0.00    -0.223 NA
ATOM      4  N   UNL     1      33.675 -21.624 -19.049  0.00  0.00    -0.248 N 
ATOM      5  N   UNL     1      34.405 -20.308 -20.834  0.00  0.00    -0.268 N 
ATOM      6  C   UNL     1      32.244 -23.631 -16.247  0.00  0.00    +0.031 C 
ATOM      7  C   UNL     1      31.224 -22.958 -16.887  0.00  0.00    +0.103 C 
ATOM      8  C   UNL     1      32.901 -22.252 -18.111  0.00  0.00    +0.166 C 
ATOM      9  C   UNL     1      33.286 -20.723 -20.093  0.00  0.00    +0.310 C 
ATOM     10  H   UNL     1      34.639 -21.819 -19.000  0.00  0.00    +0.158 HD
ATOM     11  H   UNL     1      35.272 -20.676 -20.550  0.00  0.00    +0.156 HD
ENDROOT
BRANCH   5  12
ATOM     12  C   UNL     1      34.438 -19.425 -21.939  0.00  0.00    +0.052 C 
ATOM     13  C   UNL     1      34.504 -17.176 -22.819  0.00  0.00    +0.073 C 
ATOM     14  C   UNL     1      34.470 -18.046 -21.730  0.00  0.00    +0.019 C 
ATOM     15  C   UNL     1      34.440 -19.933 -23.238  0.00  0.00    +0.015 C 
ATOM     16  C   UNL     1      34.505 -17.684 -24.118  0.00  0.00    +0.004 C 
ATOM     17  C   UNL     1      34.473 -19.063 -24.328  0.00  0.00    +0.001 C 
BRANCH  13  21
ATOM     18  F   UNL     1      34.879 -15.348 -21.323  0.00  0.00    -0.166 F 
ATOM     19  F   UNL     1      35.430 -15.048 -23.399  0.00  0.00    -0.166 F 
ATOM     20  F   UNL     1      33.332 -15.107 -22.832  0.00  0.00    -0.166 F 
ATOM     21  C   UNL     1      34.538 -15.701 -22.597  0.00  0.00    +0.419 C 
ENDBRANCH  13  21
ENDBRANCH   5  12
BRANCH   6  22
ATOM     22  C   UNL     1      32.193 -24.565 -15.063  0.00  0.00    +0.056 C 
BRANCH  22  23
ATOM     23  C   UNL     1      33.198 -24.204 -13.970  0.00  0.00    +0.093 C 
BRANCH  23  25
ATOM     24  S   UNL     1      37.214 -26.321 -14.926  0.00  0.00    -0.101 S 
ATOM     25  N   UNL     1      34.468 -24.817 -14.219  0.00  0.00    -0.320 N 
ATOM     26  N   UNL     1      35.598 -23.457 -12.625  0.00  0.00    -0.233 NA
ATOM     27  N   UNL     1      37.970 -23.664 -12.196  0.00  0.00    -0.247 NA
ATOM     28  C   UNL     1      35.646 -24.438 -13.547  0.00  0.00    +0.118 C 
ATOM     29  C   UNL     1      36.859 -25.059 -13.818  0.00  0.00    +0.145 C 
ATOM     30  C   UNL     1      38.001 -24.652 -13.129  0.00  0.00    +0.073 C 
ATOM     31  C   UNL     1      39.156 -25.391 -13.528  0.00  0.00    +0.022 C 
ATOM     32  C   UNL     1      38.868 -26.326 -14.495  0.00  0.00    +0.033 C 
ATOM     33  C   UNL     1      36.751 -23.133 -12.011  0.00  0.00    +0.251 C 
ATOM     34  H   UNL     1      34.520 -25.534 -14.890  0.00  0.00    +0.148 HD
ENDBRANCH  23  25
ENDBRANCH  22  23
ENDBRANCH   6  22
TORSDOF 5
ENDMDL
MODEL 6
REMARK VINA RESULT:     -11.7      3.167      4.510
REMARK  Name = 24880024
REMARK  5 active torsions:
REMARK  status: ('A' for Active; 'I' for Inactive)
REMARK    1  A    between atoms: N_5  and  C_12
REMARK    2  A    between atoms: C_6  and  C_22
REMARK    3  A    between atoms: C_13  and  C_21
REMARK    4  A    between atoms: C_22  and  C_23
REMARK    5  A    between atoms: C_23  and  N_25
REMARK                            x       y       z     vdW  Elec       q    Type
REMARK                         _______ _______ _______ _____ _____    ______ ____
ROOT
ATOM      1  S   UNL     1      36.454 -19.852 -20.589  0.00  0.00    -0.056 S 
ATOM      2  O   UNL     1      32.691 -19.153 -23.263  0.00  0.00    -0.252 OA
ATOM      3  N   UNL     1      33.970 -20.496 -20.906  0.00  0.00    -0.223 NA
ATOM      4  N   UNL     1      34.904 -18.950 -22.501  0.00  0.00    -0.248 N 
ATOM      5  N   UNL     1      34.202 -17.762 -24.384  0.00  0.00    -0.268 N 
ATOM      6  C   UNL     1      35.759 -20.947 -19.467  0.00  0.00    +0.031 C 
ATOM      7  C   UNL     1      34.439 -21.171 -19.797  0.00  0.00    +0.103 C 
ATOM      8  C   UNL     1      34.947 -19.770 -21.405  0.00  0.00    +0.166 C 
ATOM      9  C   UNL     1      33.811 -18.665 -23.382  0.00  0.00    +0.310 C 
ATOM     10  H   UNL     1      35.747 -18.487 -22.714  0.00  0.00    +0.158 HD
ATOM     11  H   UNL     1      35.137 -17.456 -24.349  0.00  0.00    +0.156 HD
ENDROOT
BRANCH   5  12
ATOM     12  C   UNL     1      33.416 -17.236 -25.437  0.00  0.00    +0.052 C 
ATOM     13  C   UNL     1      32.832 -15.403 -26.898  0.00  0.00    +0.073 C 
ATOM     14  C   UNL     1      33.606 -15.921 -25.860  0.00  0.00    +0.019 C 
ATOM     15  C   UNL     1      32.452 -18.034 -26.052  0.00  0.00    +0.015 C 
ATOM     16  C   UNL     1      31.868 -16.201 -27.513  0.00  0.00    +0.004 C 
ATOM     17  C   UNL     1      31.678 -17.517 -27.091  0.00  0.00    +0.001 C 
BRANCH  13  21
ATOM     18  F   UNL     1      31.985 -13.496 -28.067  0.00  0.00    -0.166 F 
ATOM     19  F   UNL     1      33.217 -13.113 -26.324  0.00  0.00    -0.166 F 
ATOM     20  F   UNL     1      34.128 -13.856 -28.154  0.00  0.00    -0.166 F 
ATOM     21  C   UNL     1      33.034 -13.996 -27.350  0.00  0.00    +0.419 C 
ENDBRANCH  13  21
ENDBRANCH   5  12
BRANCH   6  22
ATOM     22  C   UNL     1      36.583 -21.511 -18.335  0.00  0.00    +0.056 C 
BRANCH  22  23
ATOM     23  C   UNL     1      35.731 -22.100 -17.210  0.00  0.00    +0.093 C 
BRANCH  23  25
ATOM     24  S   UNL     1      38.402 -24.952 -14.709  0.00  0.00    -0.101 S 
ATOM     25  N   UNL     1      36.504 -22.987 -16.394  0.00  0.00    -0.320 N 
ATOM     26  N   UNL     1      34.756 -23.276 -14.804  0.00  0.00    -0.233 NA
ATOM     27  N   UNL     1      35.001 -24.686 -12.853  0.00  0.00    -0.247 NA
ATOM     28  C   UNL     1      36.010 -23.561 -15.208  0.00  0.00    +0.118 C 
ATOM     29  C   UNL     1      36.793 -24.418 -14.443  0.00  0.00    +0.145 C 
ATOM     30  C   UNL     1      36.263 -24.964 -13.274  0.00  0.00    +0.073 C 
ATOM     31  C   UNL     1      37.197 -25.818 -12.614  0.00  0.00    +0.022 C 
ATOM     32  C   UNL     1      38.395 -25.899 -13.286  0.00  0.00    +0.033 C 
ATOM     33  C   UNL     1      34.332 -23.850 -13.663  0.00  0.00    +0.251 C 
ATOM     34  H   UNL     1      37.422 -23.205 -16.675  0.00  0.00    +0.148 HD
ENDBRANCH  23  25
ENDBRANCH  22  23
ENDBRANCH   6  22
TORSDOF 5
ENDMDL
MODEL 7
REMARK VINA RESULT:     -11.6      3.857      6.156
REMARK  Name = 24880024
REMARK  5 active torsions:
REMARK  status: ('A' for Active; 'I' for Inactive)
REMARK    1  A    between atoms: N_5  and  C_12
REMARK    2  A    between atoms: C_6  and  C_22
REMARK    3  A    between atoms: C_13  and  C_21
REMARK    4  A    between atoms: C_22  and  C_23
REMARK    5  A    between atoms: C_23  and  N_25
REMARK                            x       y       z     vdW  Elec       q    Type
REMARK                         _______ _______ _______ _____ _____    ______ ____
ROOT
ATOM      1  S   UNL     1      33.619 -20.160 -21.048  0.00  0.00    -0.056 S 
ATOM      2  O   UNL     1      35.279 -16.663 -23.659  0.00  0.00    -0.252 OA
ATOM      3  N   UNL     1      35.726 -18.748 -21.549  0.00  0.00    -0.223 NA
ATOM      4  N   UNL     1      33.738 -18.217 -22.804  0.00  0.00    -0.248 N 
ATOM      5  N   UNL     1      33.082 -16.708 -24.460  0.00  0.00    -0.268 N 
ATOM      6  C   UNL     1      35.050 -20.516 -20.174  0.00  0.00    +0.031 C 
ATOM      7  C   UNL     1      36.060 -19.665 -20.573  0.00  0.00    +0.103 C 
ATOM      8  C   UNL     1      34.463 -18.916 -21.876  0.00  0.00    +0.166 C 
ATOM      9  C   UNL     1      34.147 -17.137 -23.652  0.00  0.00    +0.310 C 
ATOM     10  H   UNL     1      32.799 -18.497 -22.903  0.00  0.00    +0.158 HD
ATOM     11  H   UNL     1      32.230 -17.187 -24.341  0.00  0.00    +0.156 HD
ENDROOT
BRANCH   5  12
ATOM     12  C   UNL     1      33.083 -15.673 -25.425  0.00  0.00    +0.052 C 
ATOM     13  C   UNL     1      33.176 -13.322 -25.971  0.00  0.00    +0.073 C 
ATOM     14  C   UNL     1      33.175 -14.342 -25.020  0.00  0.00    +0.019 C 
ATOM     15  C   UNL     1      32.993 -15.985 -26.781  0.00  0.00    +0.015 C 
ATOM     16  C   UNL     1      33.086 -13.634 -27.327  0.00  0.00    +0.004 C 
ATOM     17  C   UNL     1      32.994 -14.965 -27.733  0.00  0.00    +0.001 C 
BRANCH  13  21
ATOM     18  F   UNL     1      32.425 -11.063 -26.206  0.00  0.00    -0.166 F 
ATOM     19  F   UNL     1      32.993 -11.708 -24.215  0.00  0.00    -0.166 F 
ATOM     20  F   UNL     1      34.522 -11.377 -25.727  0.00  0.00    -0.166 F 
ATOM     21  C   UNL     1      33.274 -11.898 -25.539  0.00  0.00    +0.419 C 
ENDBRANCH  13  21
ENDBRANCH   5  12
BRANCH   6  22
ATOM     22  C   UNL     1      35.067 -21.622 -19.147  0.00  0.00    +0.056 C 
BRANCH  22  23
ATOM     23  C   UNL     1      34.095 -22.756 -19.471  0.00  0.00    +0.093 C 
BRANCH  23  25
ATOM     24  S   UNL     1      30.525 -22.875 -16.510  0.00  0.00    -0.101 S 
ATOM     25  N   UNL     1      33.037 -22.814 -18.509  0.00  0.00    -0.320 N 
ATOM     26  N   UNL     1      34.469 -23.575 -16.766  0.00  0.00    -0.233 NA
ATOM     27  N   UNL     1      33.661 -24.034 -14.533  0.00  0.00    -0.247 NA
ATOM     28  C   UNL     1      33.235 -23.221 -17.176  0.00  0.00    +0.118 C 
ATOM     29  C   UNL     1      32.180 -23.264 -16.272  0.00  0.00    +0.145 C 
ATOM     30  C   UNL     1      32.422 -23.674 -14.962  0.00  0.00    +0.073 C 
ATOM     31  C   UNL     1      31.234 -23.660 -14.171  0.00  0.00    +0.022 C 
ATOM     32  C   UNL     1      30.135 -23.247 -14.889  0.00  0.00    +0.033 C 
ATOM     33  C   UNL     1      34.606 -23.956 -15.483  0.00  0.00    +0.251 C 
ATOM     34  H   UNL     1      32.130 -22.560 -18.792  0.00  0.00    +0.148 HD
ENDBRANCH  23  25
ENDBRANCH  22  23
ENDBRANCH   6  22
TORSDOF 5
ENDMDL
MODEL 8
REMARK VINA RESULT:     -11.6      4.048      6.404
REMARK  Name = 24880024
REMARK  5 active torsions:
REMARK  status: ('A' for Active; 'I' for Inactive)
REMARK    1  A    between atoms: N_5  and  C_12
REMARK    2  A    between atoms: C_6  and  C_22
REMARK    3  A    between atoms: C_13  and  C_21
REMARK    4  A    between atoms: C_22  and  C_23
REMARK    5  A    between atoms: C_23  and  N_25
REMARK                            x       y       z     vdW  Elec       q    Type
REMARK                         _______ _______ _______ _____ _____    ______ ____
ROOT
ATOM      1  S   UNL     1      33.874 -19.993 -21.343  0.00  0.00    -0.056 S 
ATOM      2  O   UNL     1      35.407 -16.206 -23.604  0.00  0.00    -0.252 OA
ATOM      3  N   UNL     1      35.918 -18.445 -21.674  0.00  0.00    -0.223 NA
ATOM      4  N   UNL     1      33.929 -17.899 -22.920  0.00  0.00    -0.248 N 
ATOM      5  N   UNL     1      33.229 -16.283 -24.453  0.00  0.00    -0.268 N 
ATOM      6  C   UNL     1      35.306 -20.357 -20.473  0.00  0.00    +0.031 C 
ATOM      7  C   UNL     1      36.279 -19.428 -20.775  0.00  0.00    +0.103 C 
ATOM      8  C   UNL     1      34.671 -18.643 -22.041  0.00  0.00    +0.166 C 
ATOM      9  C   UNL     1      34.300 -16.731 -23.662  0.00  0.00    +0.310 C 
ATOM     10  H   UNL     1      33.007 -18.213 -23.064  0.00  0.00    +0.158 HD
ATOM     11  H   UNL     1      32.399 -16.810 -24.394  0.00  0.00    +0.156 HD
ENDROOT
BRANCH   5  12
ATOM     12  C   UNL     1      33.196 -15.169 -25.323  0.00  0.00    +0.052 C 
ATOM     13  C   UNL     1      33.187 -12.777 -25.661  0.00  0.00    +0.073 C 
ATOM     14  C   UNL     1      33.219 -13.875 -24.803  0.00  0.00    +0.019 C 
ATOM     15  C   UNL     1      33.143 -15.364 -26.703  0.00  0.00    +0.015 C 
ATOM     16  C   UNL     1      33.134 -12.972 -27.041  0.00  0.00    +0.004 C 
ATOM     17  C   UNL     1      33.112 -14.265 -27.563  0.00  0.00    +0.001 C 
BRANCH  13  21
ATOM     18  F   UNL     1      34.468 -10.922 -24.861  0.00  0.00    -0.166 F 
ATOM     19  F   UNL     1      32.635 -10.464 -25.926  0.00  0.00    -0.166 F 
ATOM     20  F   UNL     1      32.545 -11.293 -23.917  0.00  0.00    -0.166 F 
ATOM     21  C   UNL     1      33.210 -11.393 -25.105  0.00  0.00    +0.419 C 
ENDBRANCH  13  21
ENDBRANCH   5  12
BRANCH   6  22
ATOM     22  C   UNL     1      35.358 -21.547 -19.546  0.00  0.00    +0.056 C 
BRANCH  22  23
ATOM     23  C   UNL     1      33.975 -22.086 -19.182  0.00  0.00    +0.093 C 
BRANCH  23  25
ATOM     24  S   UNL     1      34.218 -24.008 -14.966  0.00  0.00    -0.101 S 
ATOM     25  N   UNL     1      33.982 -22.675 -17.877  0.00  0.00    -0.320 N 
ATOM     26  N   UNL     1      31.616 -22.551 -17.652  0.00  0.00    -0.233 NA
ATOM     27  N   UNL     1      30.460 -23.331 -15.675  0.00  0.00    -0.247 NA
ATOM     28  C   UNL     1      32.809 -22.899 -17.132  0.00  0.00    +0.118 C 
ATOM     29  C   UNL     1      32.859 -23.473 -15.867  0.00  0.00    +0.145 C 
ATOM     30  C   UNL     1      31.672 -23.676 -15.165  0.00  0.00    +0.073 C 
ATOM     31  C   UNL     1      31.903 -24.273 -13.889  0.00  0.00    +0.022 C 
ATOM     32  C   UNL     1      33.240 -24.505 -13.656  0.00  0.00    +0.033 C 
ATOM     33  C   UNL     1      30.525 -22.786 -16.900  0.00  0.00    +0.251 C 
ATOM     34  H   UNL     1      34.846 -22.933 -17.483  0.00  0.00    +0.148 HD
ENDBRANCH  23  25
ENDBRANCH  22  23
ENDBRANCH   6  22
TORSDOF 5
ENDMDL
MODEL 9
REMARK VINA RESULT:     -11.3      7.160     12.822
REMARK  Name = 24880024
REMARK  5 active torsions:
REMARK  status: ('A' for Active; 'I' for Inactive)
REMARK    1  A    between atoms: N_5  and  C_12
REMARK    2  A    between atoms: C_6  and  C_22
REMARK    3  A    between atoms: C_13  and  C_21
REMARK    4  A    between atoms: C_22  and  C_23
REMARK    5  A    between atoms: C_23  and  N_25
REMARK                            x       y       z     vdW  Elec       q    Type
REMARK                         _______ _______ _______ _____ _____    ______ ____
ROOT
ATOM      1  S   UNL     1      33.459 -15.145 -24.934  0.00  0.00    -0.056 S 
ATOM      2  O   UNL     1      34.983 -16.767 -20.830  0.00  0.00    -0.252 OA
ATOM      3  N   UNL     1      34.254 -14.441 -22.577  0.00  0.00    -0.223 NA
ATOM      4  N   UNL     1      34.208 -16.803 -23.047  0.00  0.00    -0.248 N 
ATOM      5  N   UNL     1      34.694 -18.803 -21.945  0.00  0.00    -0.268 N 
ATOM      6  C   UNL     1      33.499 -13.470 -24.567  0.00  0.00    +0.031 C 
ATOM      7  C   UNL     1      33.948 -13.290 -23.275  0.00  0.00    +0.103 C 
ATOM      8  C   UNL     1      34.035 -15.479 -23.352  0.00  0.00    +0.166 C 
ATOM      9  C   UNL     1      34.665 -17.403 -21.829  0.00  0.00    +0.310 C 
ATOM     10  H   UNL     1      33.987 -17.435 -23.770  0.00  0.00    +0.158 HD
ATOM     11  H   UNL     1      34.408 -19.171 -22.812  0.00  0.00    +0.156 HD
ENDROOT
BRANCH   5  12
ATOM     12  C   UNL     1      35.082 -19.749 -20.967  0.00  0.00    +0.052 C 
ATOM     13  C   UNL     1      34.506 -21.487 -19.391  0.00  0.00    +0.073 C 
ATOM     14  C   UNL     1      34.123 -20.554 -20.354  0.00  0.00    +0.019 C 
ATOM     15  C   UNL     1      36.426 -19.878 -20.617  0.00  0.00    +0.015 C 
ATOM     16  C   UNL     1      35.850 -21.615 -19.041  0.00  0.00    +0.004 C 
ATOM     17  C   UNL     1      36.810 -20.811 -19.654  0.00  0.00    +0.001 C 
BRANCH  13  21
ATOM     18  F   UNL     1      32.248 -21.765 -18.652  0.00  0.00    -0.166 F 
ATOM     19  F   UNL     1      33.270 -23.535 -19.378  0.00  0.00    -0.166 F 
ATOM     20  F   UNL     1      33.815 -22.680 -17.454  0.00  0.00    -0.166 F 
ATOM     21  C   UNL     1      33.480 -22.348 -18.735  0.00  0.00    +0.419 C 
ENDBRANCH  13  21
ENDBRANCH   5  12
BRANCH   6  22
ATOM     22  C   UNL     1      33.081 -12.449 -25.597  0.00  0.00    +0.056 C 
BRANCH  22  23
ATOM     23  C   UNL     1      33.090 -11.018 -25.061  0.00  0.00    +0.093 C 
BRANCH  23  25
ATOM     24  S   UNL     1      30.829 -10.963 -21.010  0.00  0.00    -0.101 S 
ATOM     25  N   UNL     1      32.420 -10.939 -23.798  0.00  0.00    -0.320 N 
ATOM     26  N   UNL     1      33.348  -8.811 -23.275  0.00  0.00    -0.233 NA
ATOM     27  N   UNL     1      32.847  -7.651 -21.211  0.00  0.00    -0.247 NA
ATOM     28  C   UNL     1      32.556  -9.844 -22.925  0.00  0.00    +0.118 C 
ATOM     29  C   UNL     1      31.888  -9.807 -21.707  0.00  0.00    +0.145 C 
ATOM     30  C   UNL     1      32.053  -8.701 -20.873  0.00  0.00    +0.073 C 
ATOM     31  C   UNL     1      31.298  -8.826 -19.668  0.00  0.00    +0.022 C 
ATOM     32  C   UNL     1      30.591 -10.005 -19.615  0.00  0.00    +0.033 C 
ATOM     33  C   UNL     1      33.444  -7.787 -22.406  0.00  0.00    +0.251 C 
ATOM     34  H   UNL     1      31.839 -11.686 -23.527  0.00  0.00    +0.148 HD
ENDBRANCH  23  25
ENDBRANCH  22  23
ENDBRANCH   6  22
TORSDOF 5
ENDMDL
