MODEL 1
REMARK VINA RESULT:     -13.4      0.000      0.000
REMARK  Name = 24779676
REMARK  4 active torsions:
REMARK  status: ('A' for Active; 'I' for Inactive)
REMARK    1  A    between atoms: N_2  and  C_22
REMARK    2  A    between atoms: N_3  and  C_14
REMARK    3  A    between atoms: C_10  and  C_21
REMARK    4  A    between atoms: C_22  and  C_24
REMARK                            x       y       z     vdW  Elec       q    Type
REMARK                         _______ _______ _______ _____ _____    ______ ____
ROOT
ATOM      1  N   UNL     1      32.066 -24.336 -14.198  0.00  0.00    -0.123 N 
ATOM      2  N   UNL     1      33.860 -22.894 -17.473  0.00  0.00    -0.254 N 
ATOM      3  N   UNL     1      34.120 -24.570 -13.057  0.00  0.00    -0.274 N 
ATOM      4  N   UNL     1      33.996 -23.730 -15.269  0.00  0.00    -0.295 NA
ATOM      5  N   UNL     1      31.900 -23.508 -16.393  0.00  0.00    -0.314 NA
ATOM      6  N   UNL     1      31.360 -24.808 -13.156  0.00  0.00    -0.170 NA
ATOM      7  C   UNL     1      33.445 -24.201 -14.188  0.00  0.00    +0.279 C 
ATOM      8  C   UNL     1      31.307 -23.996 -15.281  0.00  0.00    +0.219 C 
ATOM      9  C   UNL     1      33.209 -23.387 -16.367  0.00  0.00    +0.203 C 
ATOM     10  C   UNL     1      30.008 -24.268 -14.919  0.00  0.00    +0.203 C 
ATOM     11  C   UNL     1      30.101 -24.764 -13.603  0.00  0.00    +0.116 C 
ATOM     12  H   UNL     1      34.840 -22.804 -17.449  0.00  0.00    +0.161 HD
ATOM     13  H   UNL     1      33.575 -24.911 -12.311  0.00  0.00    +0.156 HD
ENDROOT
BRANCH   3  14
ATOM     14  C   UNL     1      35.499 -24.515 -12.846  0.00  0.00    +0.051 C 
ATOM     15  C   UNL     1      36.320 -25.530 -13.336  0.00  0.00    +0.015 C 
ATOM     16  C   UNL     1      36.054 -23.444 -12.145  0.00  0.00    +0.015 C 
ATOM     17  C   UNL     1      37.698 -25.474 -13.125  0.00  0.00    +0.001 C 
ATOM     18  C   UNL     1      37.433 -23.388 -11.936  0.00  0.00    +0.001 C 
ATOM     19  C   UNL     1      38.254 -24.403 -12.425  0.00  0.00    +0.000 C 
ENDBRANCH   3  14
BRANCH  10  21
ATOM     20  N   UNL     1      27.897 -23.926 -16.365  0.00  0.00    -0.195 NA
ATOM     21  C   UNL     1      28.846 -24.080 -15.714  0.00  0.00    +0.087 C 
ENDBRANCH  10  21
BRANCH   2  22
ATOM     22  C   UNL     1      33.159 -22.508 -18.657  0.00  0.00    +0.125 C 
BRANCH  22  24
ATOM     23 CL   UNL     1      36.397 -18.557 -21.832  0.00  0.00    -0.082 Cl
ATOM     24  C   UNL     1      33.969 -21.520 -19.450  0.00  0.00    -0.002 C 
ATOM     25  C   UNL     1      35.362 -21.543 -19.380  0.00  0.00    -0.002 C 
ATOM     26  C   UNL     1      33.326 -20.581 -20.258  0.00  0.00    -0.002 C 
ATOM     27  C   UNL     1      36.112 -20.627 -20.117  0.00  0.00    +0.011 C 
ATOM     28  C   UNL     1      34.077 -19.665 -20.994  0.00  0.00    +0.011 C 
ATOM     29  C   UNL     1      35.470 -19.688 -20.923  0.00  0.00    +0.058 C 
ENDBRANCH  22  24
ENDBRANCH   2  22
TORSDOF 4
ENDMDL
MODEL 2
REMARK VINA RESULT:     -12.1      1.562      5.564
REMARK  Name = 24779676
REMARK  4 active torsions:
REMARK  status: ('A' for Active; 'I' for Inactive)
REMARK    1  A    between atoms: N_2  and  C_22
REMARK    2  A    between atoms: N_3  and  C_14
REMARK    3  A    between atoms: C_10  and  C_21
REMARK    4  A    between atoms: C_22  and  C_24
REMARK                            x       y       z     vdW  Elec       q    Type
REMARK                         _______ _______ _______ _____ _____    ______ ____
ROOT
ATOM      1  N   UNL     1      33.310 -23.816 -14.685  0.00  0.00    -0.123 N 
ATOM      2  N   UNL     1      33.698 -22.515 -18.451  0.00  0.00    -0.254 N 
ATOM      3  N   UNL     1      30.953 -23.767 -14.807  0.00  0.00    -0.274 N 
ATOM      4  N   UNL     1      32.323 -23.138 -16.636  0.00  0.00    -0.295 NA
ATOM      5  N   UNL     1      34.706 -23.199 -16.476  0.00  0.00    -0.314 NA
ATOM      6  N   UNL     1      33.300 -24.256 -13.414  0.00  0.00    -0.170 NA
ATOM      7  C   UNL     1      32.161 -23.561 -15.415  0.00  0.00    +0.279 C 
ATOM      8  C   UNL     1      34.560 -23.638 -15.206  0.00  0.00    +0.219 C 
ATOM      9  C   UNL     1      33.605 -22.962 -17.154  0.00  0.00    +0.203 C 
ATOM     10  C   UNL     1      35.430 -23.987 -14.199  0.00  0.00    +0.203 C 
ATOM     11  C   UNL     1      34.600 -24.359 -13.122  0.00  0.00    +0.116 C 
ATOM     12  H   UNL     1      32.871 -22.338 -18.956  0.00  0.00    +0.161 HD
ATOM     13  H   UNL     1      30.978 -24.090 -13.877  0.00  0.00    +0.156 HD
ENDROOT
BRANCH   3  14
ATOM     14  C   UNL     1      29.688 -23.569 -15.364  0.00  0.00    +0.051 C 
ATOM     15  C   UNL     1      28.997 -22.382 -15.121  0.00  0.00    +0.015 C 
ATOM     16  C   UNL     1      29.115 -24.559 -16.163  0.00  0.00    +0.015 C 
ATOM     17  C   UNL     1      27.734 -22.185 -15.678  0.00  0.00    +0.001 C 
ATOM     18  C   UNL     1      27.852 -24.361 -16.720  0.00  0.00    +0.001 C 
ATOM     19  C   UNL     1      27.161 -23.174 -16.477  0.00  0.00    +0.000 C 
ENDBRANCH   3  14
BRANCH  10  21
ATOM     20  N   UNL     1      38.009 -23.955 -14.305  0.00  0.00    -0.195 NA
ATOM     21  C   UNL     1      36.850 -23.969 -14.257  0.00  0.00    +0.087 C 
ENDBRANCH  10  21
BRANCH   2  22
ATOM     22  C   UNL     1      34.957 -22.298 -19.090  0.00  0.00    +0.125 C 
BRANCH  22  24
ATOM     23 CL   UNL     1      34.808 -17.267 -22.382  0.00  0.00    -0.082 Cl
ATOM     24  C   UNL     1      34.920 -21.040 -19.912  0.00  0.00    -0.002 C 
ATOM     25  C   UNL     1      36.106 -20.370 -20.218  0.00  0.00    -0.002 C 
ATOM     26  C   UNL     1      33.700 -20.543 -20.372  0.00  0.00    -0.002 C 
ATOM     27  C   UNL     1      36.070 -19.203 -20.981  0.00  0.00    +0.011 C 
ATOM     28  C   UNL     1      33.666 -19.376 -21.135  0.00  0.00    +0.011 C 
ATOM     29  C   UNL     1      34.851 -18.707 -21.440  0.00  0.00    +0.058 C 
ENDBRANCH  22  24
ENDBRANCH   2  22
TORSDOF 4
ENDMDL
MODEL 3
REMARK VINA RESULT:     -11.6      1.704      5.458
REMARK  Name = 24779676
REMARK  4 active torsions:
REMARK  status: ('A' for Active; 'I' for Inactive)
REMARK    1  A    between atoms: N_2  and  C_22
REMARK    2  A    between atoms: N_3  and  C_14
REMARK    3  A    between atoms: C_10  and  C_21
REMARK    4  A    between atoms: C_22  and  C_24
REMARK                            x       y       z     vdW  Elec       q    Type
REMARK                         _______ _______ _______ _____ _____    ______ ____
ROOT
ATOM      1  N   UNL     1      34.899 -24.539 -14.439  0.00  0.00    -0.123 N 
ATOM      2  N   UNL     1      34.751 -22.293 -17.749  0.00  0.00    -0.254 N 
ATOM      3  N   UNL     1      32.548 -24.545 -14.220  0.00  0.00    -0.274 N 
ATOM      4  N   UNL     1      33.646 -23.414 -15.990  0.00  0.00    -0.295 NA
ATOM      5  N   UNL     1      36.027 -23.429 -16.179  0.00  0.00    -0.314 NA
ATOM      6  N   UNL     1      35.067 -25.293 -13.339  0.00  0.00    -0.170 NA
ATOM      7  C   UNL     1      33.657 -24.145 -14.913  0.00  0.00    +0.279 C 
ATOM      8  C   UNL     1      36.062 -24.187 -15.061  0.00  0.00    +0.219 C 
ATOM      9  C   UNL     1      34.841 -23.063 -16.614  0.00  0.00    +0.203 C 
ATOM     10  C   UNL     1      37.066 -24.754 -14.309  0.00  0.00    +0.203 C 
ATOM     11  C   UNL     1      36.395 -25.421 -13.264  0.00  0.00    +0.116 C 
ATOM     12  H   UNL     1      33.862 -22.021 -18.072  0.00  0.00    +0.161 HD
ATOM     13  H   UNL     1      32.703 -25.096 -13.420  0.00  0.00    +0.156 HD
ENDROOT
BRANCH   3  14
ATOM     14  C   UNL     1      31.217 -24.255 -14.528  0.00  0.00    +0.051 C 
ATOM     15  C   UNL     1      30.812 -22.931 -14.692  0.00  0.00    +0.015 C 
ATOM     16  C   UNL     1      30.293 -25.290 -14.669  0.00  0.00    +0.015 C 
ATOM     17  C   UNL     1      29.482 -22.642 -14.999  0.00  0.00    +0.001 C 
ATOM     18  C   UNL     1      28.963 -25.001 -14.977  0.00  0.00    +0.001 C 
ATOM     19  C   UNL     1      28.558 -23.677 -15.142  0.00  0.00    +0.000 C 
ENDBRANCH   3  14
BRANCH  10  21
ATOM     20  N   UNL     1      39.604 -24.602 -14.755  0.00  0.00    -0.195 NA
ATOM     21  C   UNL     1      38.462 -24.670 -14.554  0.00  0.00    +0.087 C 
ENDBRANCH  10  21
BRANCH   2  22
ATOM     22  C   UNL     1      35.908 -21.871 -18.475  0.00  0.00    +0.125 C 
BRANCH  22  24
ATOM     23 CL   UNL     1      34.366 -18.082 -22.883  0.00  0.00    -0.082 Cl
ATOM     24  C   UNL     1      35.522 -20.925 -19.577  0.00  0.00    -0.002 C 
ATOM     25  C   UNL     1      34.197 -20.860 -20.010  0.00  0.00    -0.002 C 
ATOM     26  C   UNL     1      36.489 -20.109 -20.166  0.00  0.00    -0.002 C 
ATOM     27  C   UNL     1      33.841 -19.981 -21.033  0.00  0.00    +0.011 C 
ATOM     28  C   UNL     1      36.132 -19.231 -21.189  0.00  0.00    +0.011 C 
ATOM     29  C   UNL     1      34.807 -19.167 -21.621  0.00  0.00    +0.058 C 
ENDBRANCH  22  24
ENDBRANCH   2  22
TORSDOF 4
ENDMDL
