MODEL 1
REMARK VINA RESULT:     -11.4      0.000      0.000
REMARK  Name = 11979006
REMARK  7 active torsions:
REMARK  status: ('A' for Active; 'I' for Inactive)
REMARK    1  A    between atoms: C_1  and  N_2
REMARK    2  A    between atoms: C_1  and  C_22
REMARK    3  A    between atoms: C_3  and  N_9
REMARK    4  A    between atoms: C_4  and  O_18
REMARK    5  A    between atoms: C_10  and  C_14
REMARK    6  A    between atoms: N_21  and  C_25
REMARK    7  A    between atoms: C_28  and  N_32
REMARK                            x       y       z     vdW  Elec       q    Type
REMARK                         _______ _______ _______ _____ _____    ______ ____
ROOT
ATOM      1  C   UNL     1      32.829 -15.179 -27.351  0.00  0.00    +0.010 C 
ENDROOT
BRANCH   1   2
ATOM      2  N   UNL     1      33.450 -13.968 -26.837  0.00  0.00    +0.396 N 
ATOM      3  C   UNL     1      33.560 -12.242 -25.302  0.00  0.00    +0.076 C 
ATOM      4  C   UNL     1      33.384 -11.611 -26.685  0.00  0.00    +0.106 C 
ATOM      5  C   UNL     1      33.024 -13.657 -25.472  0.00  0.00    -0.054 C 
ATOM      6  C   UNL     1      33.112 -12.781 -27.632  0.00  0.00    -0.045 C 
ATOM      7  H   UNL     1      34.449 -14.167 -26.875  0.00  0.00    -0.079 HD
BRANCH   3   9
ATOM      8  O   UNL     1      34.416  -9.818 -24.143  0.00  0.00    -0.270 OA
ATOM      9  N   UNL     1      32.871 -11.515 -24.272  0.00  0.00    -0.302 N 
ATOM     10  C   UNL     1      33.361 -10.316 -23.747  0.00  0.00    +0.252 C 
ATOM     11  H   UNL     1      32.024 -11.873 -23.924  0.00  0.00    +0.150 HD
BRANCH  10  14
ATOM     12 CL   UNL     1      31.260  -6.660 -20.253  0.00  0.00    -0.075 Cl
ATOM     13  S   UNL     1      32.873  -8.069 -22.309  0.00  0.00    -0.071 S 
ATOM     14  C   UNL     1      32.526  -9.673 -22.721  0.00  0.00    +0.084 C 
ATOM     15  C   UNL     1      31.489 -10.219 -22.048  0.00  0.00    +0.012 C 
ATOM     16  C   UNL     1      30.934  -9.277 -21.133  0.00  0.00    +0.019 C 
ATOM     17  C   UNL     1      31.592  -8.067 -21.174  0.00  0.00    +0.087 C 
ENDBRANCH  10  14
ENDBRANCH   3   9
BRANCH   4  18
ATOM     18  O   UNL     1      34.579 -10.933 -27.048  0.00  0.00    -0.385 OA
ATOM     19  H   UNL     1      34.523 -10.006 -26.770  0.00  0.00    +0.210 HD
ENDBRANCH   4  18
ENDBRANCH   1   2
BRANCH   1  22
ATOM     20  O   UNL     1      31.650 -16.777 -25.981  0.00  0.00    -0.277 OA
ATOM     21  N   UNL     1      33.923 -16.349 -25.577  0.00  0.00    -0.284 N 
ATOM     22  C   UNL     1      32.702 -16.196 -26.230  0.00  0.00    +0.205 C 
ATOM     23  H   UNL     1      34.668 -15.801 -25.915  0.00  0.00    +0.155 HD
BRANCH  21  25
ATOM     24  F   UNL     1      33.992 -19.108 -25.878  0.00  0.00    -0.203 F 
ATOM     25  C   UNL     1      34.218 -17.199 -24.484  0.00  0.00    +0.078 C 
ATOM     26  C   UNL     1      34.243 -18.570 -24.675  0.00  0.00    +0.155 C 
ATOM     27  C   UNL     1      34.475 -16.637 -23.244  0.00  0.00    +0.018 C 
ATOM     28  C   UNL     1      34.795 -18.856 -22.340  0.00  0.00    +0.061 C 
ATOM     29  C   UNL     1      34.533 -19.404 -23.596  0.00  0.00    +0.046 C 
ATOM     30  C   UNL     1      34.765 -17.472 -22.165  0.00  0.00    +0.017 C 
BRANCH  28  32
ATOM     31  O   UNL     1      37.408 -19.204 -21.152  0.00  0.00    -0.269 OA
ATOM     32  N   UNL     1      35.096 -19.724 -21.219  0.00  0.00    -0.233 N 
ATOM     33  C   UNL     1      36.416 -19.776 -20.701  0.00  0.00    +0.257 C 
ATOM     34  C   UNL     1      34.101 -20.527 -20.658  0.00  0.00    +0.072 C 
ATOM     35  C   UNL     1      36.630 -20.661 -19.514  0.00  0.00    +0.059 C 
ATOM     36  C   UNL     1      34.326 -21.335 -19.616  0.00  0.00    +0.017 C 
ATOM     37  C   UNL     1      35.629 -21.396 -19.024  0.00  0.00    +0.006 C 
ENDBRANCH  28  32
ENDBRANCH  21  25
ENDBRANCH   1  22
TORSDOF 7
ENDMDL
MODEL 2
REMARK VINA RESULT:     -11.4      0.836      1.185
REMARK  Name = 11979006
REMARK  7 active torsions:
REMARK  status: ('A' for Active; 'I' for Inactive)
REMARK    1  A    between atoms: C_1  and  N_2
REMARK    2  A    between atoms: C_1  and  C_22
REMARK    3  A    between atoms: C_3  and  N_9
REMARK    4  A    between atoms: C_4  and  O_18
REMARK    5  A    between atoms: C_10  and  C_14
REMARK    6  A    between atoms: N_21  and  C_25
REMARK    7  A    between atoms: C_28  and  N_32
REMARK                            x       y       z     vdW  Elec       q    Type
REMARK                         _______ _______ _______ _____ _____    ______ ____
ROOT
ATOM      1  C   UNL     1      32.765 -15.264 -27.339  0.00  0.00    +0.010 C 
ENDROOT
BRANCH   1   2
ATOM      2  N   UNL     1      33.421 -14.066 -26.836  0.00  0.00    +0.396 N 
ATOM      3  C   UNL     1      33.553 -12.302 -25.349  0.00  0.00    +0.076 C 
ATOM      4  C   UNL     1      33.457 -11.705 -26.755  0.00  0.00    +0.106 C 
ATOM      5  C   UNL     1      32.959 -13.695 -25.498  0.00  0.00    -0.054 C 
ATOM      6  C   UNL     1      33.167 -12.891 -27.677  0.00  0.00    -0.045 C 
ATOM      7  H   UNL     1      34.410 -14.311 -26.830  0.00  0.00    -0.079 HD
BRANCH   3   9
ATOM      8  O   UNL     1      34.509  -9.925 -24.171  0.00  0.00    -0.270 OA
ATOM      9  N   UNL     1      32.860 -11.513 -24.368  0.00  0.00    -0.302 N 
ATOM     10  C   UNL     1      33.401 -10.343 -23.829  0.00  0.00    +0.252 C 
ATOM     11  H   UNL     1      31.971 -11.807 -24.063  0.00  0.00    +0.150 HD
BRANCH  10  14
ATOM     12 CL   UNL     1      31.234  -6.433 -20.666  0.00  0.00    -0.075 Cl
ATOM     13  S   UNL     1      32.868  -7.986 -22.598  0.00  0.00    -0.071 S 
ATOM     14  C   UNL     1      32.558  -9.629 -22.859  0.00  0.00    +0.084 C 
ATOM     15  C   UNL     1      31.539 -10.135 -22.130  0.00  0.00    +0.012 C 
ATOM     16  C   UNL     1      30.967  -9.127 -21.301  0.00  0.00    +0.019 C 
ATOM     17  C   UNL     1      31.594  -7.911 -21.457  0.00  0.00    +0.087 C 
ENDBRANCH  10  14
ENDBRANCH   3   9
BRANCH   4  18
ATOM     18  O   UNL     1      34.695 -11.093 -27.091  0.00  0.00    -0.385 OA
ATOM     19  H   UNL     1      35.053 -10.639 -26.313  0.00  0.00    +0.210 HD
ENDBRANCH   4  18
ENDBRANCH   1   2
BRANCH   1  22
ATOM     20  O   UNL     1      31.610 -16.893 -25.985  0.00  0.00    -0.277 OA
ATOM     21  N   UNL     1      33.865 -16.405 -25.550  0.00  0.00    -0.284 N 
ATOM     22  C   UNL     1      32.649 -16.284 -26.220  0.00  0.00    +0.205 C 
ATOM     23  H   UNL     1      34.600 -15.837 -25.879  0.00  0.00    +0.155 HD
BRANCH  21  25
ATOM     24  F   UNL     1      34.545 -15.351 -23.073  0.00  0.00    -0.203 F 
ATOM     25  C   UNL     1      34.168 -17.247 -24.453  0.00  0.00    +0.078 C 
ATOM     26  C   UNL     1      34.503 -16.682 -23.234  0.00  0.00    +0.155 C 
ATOM     27  C   UNL     1      34.122 -18.620 -24.625  0.00  0.00    +0.018 C 
ATOM     28  C   UNL     1      34.760 -18.900 -22.312  0.00  0.00    +0.061 C 
ATOM     29  C   UNL     1      34.801 -17.515 -22.155  0.00  0.00    +0.046 C 
ATOM     30  C   UNL     1      34.421 -19.453 -23.547  0.00  0.00    +0.017 C 
BRANCH  28  32
ATOM     31  O   UNL     1      37.367 -19.184 -21.092  0.00  0.00    -0.269 OA
ATOM     32  N   UNL     1      35.071 -19.765 -21.190  0.00  0.00    -0.233 N 
ATOM     33  C   UNL     1      36.386 -19.785 -20.656  0.00  0.00    +0.257 C 
ATOM     34  C   UNL     1      34.091 -20.597 -20.645  0.00  0.00    +0.072 C 
ATOM     35  C   UNL     1      36.608 -20.670 -19.471  0.00  0.00    +0.059 C 
ATOM     36  C   UNL     1      34.324 -21.404 -19.605  0.00  0.00    +0.017 C 
ATOM     37  C   UNL     1      35.622 -21.433 -18.997  0.00  0.00    +0.006 C 
ENDBRANCH  28  32
ENDBRANCH  21  25
ENDBRANCH   1  22
TORSDOF 7
ENDMDL
MODEL 3
REMARK VINA RESULT:     -11.4      2.566      3.439
REMARK  Name = 11979006
REMARK  7 active torsions:
REMARK  status: ('A' for Active; 'I' for Inactive)
REMARK    1  A    between atoms: C_1  and  N_2
REMARK    2  A    between atoms: C_1  and  C_22
REMARK    3  A    between atoms: C_3  and  N_9
REMARK    4  A    between atoms: C_4  and  O_18
REMARK    5  A    between atoms: C_10  and  C_14
REMARK    6  A    between atoms: N_21  and  C_25
REMARK    7  A    between atoms: C_28  and  N_32
REMARK                            x       y       z     vdW  Elec       q    Type
REMARK                         _______ _______ _______ _____ _____    ______ ____
ROOT
ATOM      1  C   UNL     1      33.334 -12.384 -24.839  0.00  0.00    +0.010 C 
ENDROOT
BRANCH   1   2
ATOM      2  N   UNL     1      33.812 -11.170 -24.194  0.00  0.00    +0.396 N 
ATOM      3  C   UNL     1      33.441  -9.076 -23.288  0.00  0.00    +0.076 C 
ATOM      4  C   UNL     1      34.437  -8.904 -24.437  0.00  0.00    +0.106 C 
ATOM      5  C   UNL     1      32.727 -10.381 -23.611  0.00  0.00    -0.054 C 
ATOM      6  C   UNL     1      34.494 -10.267 -25.130  0.00  0.00    -0.045 C 
ATOM      7  H   UNL     1      34.451 -11.507 -23.475  0.00  0.00    -0.079 HD
BRANCH   3   9
ATOM      8  O   UNL     1      33.298  -7.276 -21.122  0.00  0.00    -0.270 OA
ATOM      9  N   UNL     1      32.533  -7.968 -23.176  0.00  0.00    -0.302 N 
ATOM     10  C   UNL     1      32.523  -7.117 -22.067  0.00  0.00    +0.252 C 
ATOM     11  H   UNL     1      31.895  -7.801 -23.906  0.00  0.00    +0.150 HD
BRANCH  10  14
ATOM     12 CL   UNL     1      30.055  -2.380 -23.273  0.00  0.00    -0.075 Cl
ATOM     13  S   UNL     1      31.924  -4.681 -23.094  0.00  0.00    -0.071 S 
ATOM     14  C   UNL     1      31.558  -6.009 -22.113  0.00  0.00    +0.084 C 
ATOM     15  C   UNL     1      30.384  -5.917 -21.451  0.00  0.00    +0.012 C 
ATOM     16  C   UNL     1      29.732  -4.686 -21.756  0.00  0.00    +0.019 C 
ATOM     17  C   UNL     1      30.460  -3.920 -22.638  0.00  0.00    +0.087 C 
ENDBRANCH  10  14
ENDBRANCH   3   9
BRANCH   4  18
ATOM     18  O   UNL     1      35.709  -8.552 -23.909  0.00  0.00    -0.385 OA
ATOM     19  H   UNL     1      35.632  -8.404 -22.953  0.00  0.00    +0.210 HD
ENDBRANCH   4  18
ENDBRANCH   1   2
BRANCH   1  22
ATOM     20  O   UNL     1      32.317 -13.444 -22.925  0.00  0.00    -0.277 OA
ATOM     21  N   UNL     1      34.127 -14.479 -24.005  0.00  0.00    -0.284 N 
ATOM     22  C   UNL     1      33.178 -13.479 -23.798  0.00  0.00    +0.205 C 
ATOM     23  H   UNL     1      34.741 -14.345 -24.762  0.00  0.00    +0.155 HD
BRANCH  21  25
ATOM     24  F   UNL     1      34.740 -14.387 -21.298  0.00  0.00    -0.203 F 
ATOM     25  C   UNL     1      34.310 -15.665 -23.254  0.00  0.00    +0.078 C 
ATOM     26  C   UNL     1      34.615 -15.576 -21.906  0.00  0.00    +0.155 C 
ATOM     27  C   UNL     1      34.180 -16.890 -23.886  0.00  0.00    +0.018 C 
ATOM     28  C   UNL     1      34.669 -17.989 -21.791  0.00  0.00    +0.061 C 
ATOM     29  C   UNL     1      34.796 -16.747 -21.169  0.00  0.00    +0.046 C 
ATOM     30  C   UNL     1      34.362 -18.061 -23.150  0.00  0.00    +0.017 C 
BRANCH  28  32
ATOM     31  O   UNL     1      37.226 -19.112 -21.041  0.00  0.00    -0.269 OA
ATOM     32  N   UNL     1      34.858 -19.205 -21.024  0.00  0.00    -0.233 N 
ATOM     33  C   UNL     1      36.169 -19.631 -20.686  0.00  0.00    +0.257 C 
ATOM     34  C   UNL     1      33.759 -19.974 -20.635  0.00  0.00    +0.072 C 
ATOM     35  C   UNL     1      36.271 -20.870 -19.854  0.00  0.00    +0.059 C 
ATOM     36  C   UNL     1      33.880 -21.097 -19.918  0.00  0.00    +0.017 C 
ATOM     37  C   UNL     1      35.176 -21.552 -19.511  0.00  0.00    +0.006 C 
ENDBRANCH  28  32
ENDBRANCH  21  25
ENDBRANCH   1  22
TORSDOF 7
ENDMDL
MODEL 4
REMARK VINA RESULT:     -11.3      0.882      1.216
REMARK  Name = 11979006
REMARK  7 active torsions:
REMARK  status: ('A' for Active; 'I' for Inactive)
REMARK    1  A    between atoms: C_1  and  N_2
REMARK    2  A    between atoms: C_1  and  C_22
REMARK    3  A    between atoms: C_3  and  N_9
REMARK    4  A    between atoms: C_4  and  O_18
REMARK    5  A    between atoms: C_10  and  C_14
REMARK    6  A    between atoms: N_21  and  C_25
REMARK    7  A    between atoms: C_28  and  N_32
REMARK                            x       y       z     vdW  Elec       q    Type
REMARK                         _______ _______ _______ _____ _____    ______ ____
ROOT
ATOM      1  C   UNL     1      32.815 -15.139 -27.435  0.00  0.00    +0.010 C 
ENDROOT
BRANCH   1   2
ATOM      2  N   UNL     1      33.438 -13.945 -26.883  0.00  0.00    +0.396 N 
ATOM      3  C   UNL     1      33.552 -12.270 -25.295  0.00  0.00    +0.076 C 
ATOM      4  C   UNL     1      33.373 -11.594 -26.656  0.00  0.00    +0.106 C 
ATOM      5  C   UNL     1      33.015 -13.678 -25.508  0.00  0.00    -0.054 C 
ATOM      6  C   UNL     1      33.099 -12.734 -27.639  0.00  0.00    -0.045 C 
ATOM      7  H   UNL     1      34.436 -14.144 -26.930  0.00  0.00    -0.079 HD
BRANCH   3   9
ATOM      8  O   UNL     1      34.398  -9.870 -24.079  0.00  0.00    -0.270 OA
ATOM      9  N   UNL     1      32.865 -11.575 -24.241  0.00  0.00    -0.302 N 
ATOM     10  C   UNL     1      33.350 -10.386 -23.688  0.00  0.00    +0.252 C 
ATOM     11  H   UNL     1      32.024 -11.949 -23.895  0.00  0.00    +0.150 HD
BRANCH  10  14
ATOM     12 CL   UNL     1      31.194  -6.814 -20.142  0.00  0.00    -0.075 Cl
ATOM     13  S   UNL     1      32.806  -8.158 -22.242  0.00  0.00    -0.071 S 
ATOM     14  C   UNL     1      32.519  -9.778 -22.639  0.00  0.00    +0.084 C 
ATOM     15  C   UNL     1      31.528 -10.366 -21.933  0.00  0.00    +0.012 C 
ATOM     16  C   UNL     1      30.959  -9.446 -21.005  0.00  0.00    +0.019 C 
ATOM     17  C   UNL     1      31.560  -8.209 -21.069  0.00  0.00    +0.087 C 
ENDBRANCH  10  14
ENDBRANCH   3   9
BRANCH   4  18
ATOM     18  O   UNL     1      34.569 -10.906 -27.000  0.00  0.00    -0.385 OA
ATOM     19  H   UNL     1      35.325 -11.341 -26.576  0.00  0.00    +0.210 HD
ENDBRANCH   4  18
ENDBRANCH   1   2
BRANCH   1  22
ATOM     20  O   UNL     1      31.589 -16.766 -26.142  0.00  0.00    -0.277 OA
ATOM     21  N   UNL     1      33.839 -16.329 -25.632  0.00  0.00    -0.284 N 
ATOM     22  C   UNL     1      32.646 -16.174 -26.336  0.00  0.00    +0.205 C 
ATOM     23  H   UNL     1      34.594 -15.770 -25.929  0.00  0.00    +0.155 HD
BRANCH  21  25
ATOM     24  F   UNL     1      33.872 -19.086 -25.957  0.00  0.00    -0.203 F 
ATOM     25  C   UNL     1      34.092 -17.193 -24.540  0.00  0.00    +0.078 C 
ATOM     26  C   UNL     1      34.100 -18.562 -24.744  0.00  0.00    +0.155 C 
ATOM     27  C   UNL     1      34.327 -16.647 -23.289  0.00  0.00    +0.018 C 
ATOM     28  C   UNL     1      34.588 -18.878 -22.399  0.00  0.00    +0.061 C 
ATOM     29  C   UNL     1      34.350 -19.411 -23.666  0.00  0.00    +0.046 C 
ATOM     30  C   UNL     1      34.576 -17.496 -22.211  0.00  0.00    +0.017 C 
BRANCH  28  32
ATOM     31  O   UNL     1      32.566 -20.231 -20.835  0.00  0.00    -0.269 OA
ATOM     32  N   UNL     1      34.847 -19.761 -21.278  0.00  0.00    -0.233 N 
ATOM     33  C   UNL     1      33.765 -20.398 -20.615  0.00  0.00    +0.257 C 
ATOM     34  C   UNL     1      36.152 -19.973 -20.831  0.00  0.00    +0.072 C 
ATOM     35  C   UNL     1      34.124 -21.329 -19.501  0.00  0.00    +0.059 C 
ATOM     36  C   UNL     1      36.444 -20.786 -19.810  0.00  0.00    +0.017 C 
ATOM     37  C   UNL     1      35.396 -21.489 -19.131  0.00  0.00    +0.006 C 
ENDBRANCH  28  32
ENDBRANCH  21  25
ENDBRANCH   1  22
TORSDOF 7
ENDMDL
MODEL 5
REMARK VINA RESULT:     -11.2      2.802      3.506
REMARK  Name = 11979006
REMARK  7 active torsions:
REMARK  status: ('A' for Active; 'I' for Inactive)
REMARK    1  A    between atoms: C_1  and  N_2
REMARK    2  A    between atoms: C_1  and  C_22
REMARK    3  A    between atoms: C_3  and  N_9
REMARK    4  A    between atoms: C_4  and  O_18
REMARK    5  A    between atoms: C_10  and  C_14
REMARK    6  A    between atoms: N_21  and  C_25
REMARK    7  A    between atoms: C_28  and  N_32
REMARK                            x       y       z     vdW  Elec       q    Type
REMARK                         _______ _______ _______ _____ _____    ______ ____
ROOT
ATOM      1  C   UNL     1      33.556 -12.516 -24.831  0.00  0.00    +0.010 C 
ENDROOT
BRANCH   1   2
ATOM      2  N   UNL     1      33.802 -11.206 -24.248  0.00  0.00    +0.396 N 
ATOM      3  C   UNL     1      33.185  -9.012 -23.862  0.00  0.00    +0.076 C 
ATOM      4  C   UNL     1      34.531  -8.984 -24.589  0.00  0.00    +0.106 C 
ATOM      5  C   UNL     1      32.601 -10.371 -24.219  0.00  0.00    -0.054 C 
ATOM      6  C   UNL     1      34.797 -10.433 -25.001  0.00  0.00    -0.045 C 
ATOM      7  H   UNL     1      34.131 -11.413 -23.306  0.00  0.00    -0.079 HD
BRANCH   3   9
ATOM      8  O   UNL     1      32.707  -6.671 -22.364  0.00  0.00    -0.270 OA
ATOM      9  N   UNL     1      32.327  -7.927 -24.251  0.00  0.00    -0.302 N 
ATOM     10  C   UNL     1      32.141  -6.796 -23.451  0.00  0.00    +0.252 C 
ATOM     11  H   UNL     1      31.852  -7.982 -25.111  0.00  0.00    +0.150 HD
BRANCH  10  14
ATOM     12 CL   UNL     1      28.615  -4.083 -26.645  0.00  0.00    -0.075 Cl
ATOM     13  S   UNL     1      30.430  -6.098 -25.436  0.00  0.00    -0.071 S 
ATOM     14  C   UNL     1      31.257  -5.757 -24.000  0.00  0.00    +0.084 C 
ATOM     15  C   UNL     1      31.017  -4.530 -23.487  0.00  0.00    +0.012 C 
ATOM     16  C   UNL     1      30.101  -3.813 -24.311  0.00  0.00    +0.019 C 
ATOM     17  C   UNL     1      29.702  -4.550 -25.403  0.00  0.00    +0.087 C 
ENDBRANCH  10  14
ENDBRANCH   3   9
BRANCH   4  18
ATOM     18  O   UNL     1      35.537  -8.519 -23.698  0.00  0.00    -0.385 OA
ATOM     19  H   UNL     1      36.408  -8.796 -24.022  0.00  0.00    +0.210 HD
ENDBRANCH   4  18
ENDBRANCH   1   2
BRANCH   1  22
ATOM     20  O   UNL     1      32.759 -13.377 -22.723  0.00  0.00    -0.277 OA
ATOM     21  N   UNL     1      34.222 -14.668 -24.029  0.00  0.00    -0.284 N 
ATOM     22  C   UNL     1      33.449 -13.549 -23.723  0.00  0.00    +0.205 C 
ATOM     23  H   UNL     1      34.711 -14.636 -24.884  0.00  0.00    +0.155 HD
BRANCH  21  25
ATOM     24  F   UNL     1      34.015 -17.186 -25.180  0.00  0.00    -0.203 F 
ATOM     25  C   UNL     1      34.387 -15.842 -23.257  0.00  0.00    +0.078 C 
ATOM     26  C   UNL     1      34.276 -17.079 -23.869  0.00  0.00    +0.155 C 
ATOM     27  C   UNL     1      34.656 -15.726 -21.903  0.00  0.00    +0.018 C 
ATOM     28  C   UNL     1      34.710 -18.137 -21.740  0.00  0.00    +0.061 C 
ATOM     29  C   UNL     1      34.439 -18.235 -23.105  0.00  0.00    +0.046 C 
ATOM     30  C   UNL     1      34.819 -16.882 -21.139  0.00  0.00    +0.017 C 
BRANCH  28  32
ATOM     31  O   UNL     1      37.248 -19.260 -20.926  0.00  0.00    -0.269 OA
ATOM     32  N   UNL     1      34.879 -19.338 -20.946  0.00  0.00    -0.233 N 
ATOM     33  C   UNL     1      36.182 -19.765 -20.578  0.00  0.00    +0.257 C 
ATOM     34  C   UNL     1      33.770 -20.092 -20.559  0.00  0.00    +0.072 C 
ATOM     35  C   UNL     1      36.263 -20.987 -19.719  0.00  0.00    +0.059 C 
ATOM     36  C   UNL     1      33.872 -21.201 -19.818  0.00  0.00    +0.017 C 
ATOM     37  C   UNL     1      35.158 -21.655 -19.381  0.00  0.00    +0.006 C 
ENDBRANCH  28  32
ENDBRANCH  21  25
ENDBRANCH   1  22
TORSDOF 7
ENDMDL
MODEL 6
REMARK VINA RESULT:     -11.2      4.396      6.895
REMARK  Name = 11979006
REMARK  7 active torsions:
REMARK  status: ('A' for Active; 'I' for Inactive)
REMARK    1  A    between atoms: C_1  and  N_2
REMARK    2  A    between atoms: C_1  and  C_22
REMARK    3  A    between atoms: C_3  and  N_9
REMARK    4  A    between atoms: C_4  and  O_18
REMARK    5  A    between atoms: C_10  and  C_14
REMARK    6  A    between atoms: N_21  and  C_25
REMARK    7  A    between atoms: C_28  and  N_32
REMARK                            x       y       z     vdW  Elec       q    Type
REMARK                         _______ _______ _______ _____ _____    ______ ____
ROOT
ATOM      1  C   UNL     1      34.685 -20.001 -21.369  0.00  0.00    +0.010 C 
ENDROOT
BRANCH   1   2
ATOM      2  N   UNL     1      35.070 -18.675 -21.828  0.00  0.00    +0.396 N 
ATOM      3  C   UNL     1      34.827 -16.376 -21.813  0.00  0.00    +0.076 C 
ATOM      4  C   UNL     1      34.596 -16.849 -23.250  0.00  0.00    +0.106 C 
ATOM      5  C   UNL     1      34.547 -17.612 -20.969  0.00  0.00    -0.054 C 
ATOM      6  C   UNL     1      34.564 -18.377 -23.173  0.00  0.00    -0.045 C 
ATOM      7  H   UNL     1      36.089 -18.694 -21.812  0.00  0.00    -0.079 HD
BRANCH   3   9
ATOM      8  O   UNL     1      34.220 -14.171 -23.463  0.00  0.00    -0.270 OA
ATOM      9  N   UNL     1      33.985 -15.267 -21.457  0.00  0.00    -0.302 N 
ATOM     10  C   UNL     1      33.732 -14.208 -22.333  0.00  0.00    +0.252 C 
ATOM     11  H   UNL     1      33.573 -15.252 -20.563  0.00  0.00    +0.150 HD
BRANCH  10  14
ATOM     12 CL   UNL     1      30.713  -9.656 -21.945  0.00  0.00    -0.075 Cl
ATOM     13  S   UNL     1      32.526 -11.832 -22.835  0.00  0.00    -0.071 S 
ATOM     14  C   UNL     1      32.825 -13.163 -21.835  0.00  0.00    +0.084 C 
ATOM     15  C   UNL     1      32.184 -13.132 -20.645  0.00  0.00    +0.012 C 
ATOM     16  C   UNL     1      31.396 -11.950 -20.532  0.00  0.00    +0.019 C 
ATOM     17  C   UNL     1      31.490 -11.156 -21.653  0.00  0.00    +0.087 C 
ENDBRANCH  10  14
ENDBRANCH   3   9
BRANCH   4  18
ATOM     18  O   UNL     1      35.671 -16.407 -24.069  0.00  0.00    -0.385 OA
ATOM     19  H   UNL     1      35.574 -16.780 -24.959  0.00  0.00    +0.210 HD
ENDBRANCH   4  18
ENDBRANCH   1   2
BRANCH   1  22
ATOM     20  O   UNL     1      36.564 -19.829 -19.864  0.00  0.00    -0.277 OA
ATOM     21  N   UNL     1      34.827 -21.337 -19.391  0.00  0.00    -0.284 N 
ATOM     22  C   UNL     1      35.490 -20.360 -20.131  0.00  0.00    +0.205 C 
ATOM     23  H   UNL     1      33.966 -21.647 -19.755  0.00  0.00    +0.155 HD
BRANCH  21  25
ATOM     24  F   UNL     1      33.094 -22.901 -17.887  0.00  0.00    -0.203 F 
ATOM     25  C   UNL     1      35.244 -21.934 -18.178  0.00  0.00    +0.078 C 
ATOM     26  C   UNL     1      34.350 -22.707 -17.457  0.00  0.00    +0.155 C 
ATOM     27  C   UNL     1      36.542 -21.731 -17.739  0.00  0.00    +0.018 C 
ATOM     28  C   UNL     1      36.068 -23.100 -15.804  0.00  0.00    +0.061 C 
ATOM     29  C   UNL     1      34.765 -23.295 -16.262  0.00  0.00    +0.046 C 
ATOM     30  C   UNL     1      36.957 -22.318 -16.543  0.00  0.00    +0.017 C 
BRANCH  28  32
ATOM     31  O   UNL     1      36.700 -25.900 -15.448  0.00  0.00    -0.269 OA
ATOM     32  N   UNL     1      36.499 -23.710 -14.562  0.00  0.00    -0.233 N 
ATOM     33  C   UNL     1      36.818 -25.093 -14.526  0.00  0.00    +0.257 C 
ATOM     34  C   UNL     1      36.581 -22.953 -13.392  0.00  0.00    +0.072 C 
ATOM     35  C   UNL     1      37.299 -25.631 -13.216  0.00  0.00    +0.059 C 
ATOM     36  C   UNL     1      36.982 -23.465 -12.224  0.00  0.00    +0.017 C 
ATOM     37  C   UNL     1      37.359 -24.845 -12.139  0.00  0.00    +0.006 C 
ENDBRANCH  28  32
ENDBRANCH  21  25
ENDBRANCH   1  22
TORSDOF 7
ENDMDL
MODEL 7
REMARK VINA RESULT:     -11.1      6.132     12.041
REMARK  Name = 11979006
REMARK  7 active torsions:
REMARK  status: ('A' for Active; 'I' for Inactive)
REMARK    1  A    between atoms: C_1  and  N_2
REMARK    2  A    between atoms: C_1  and  C_22
REMARK    3  A    between atoms: C_3  and  N_9
REMARK    4  A    between atoms: C_4  and  O_18
REMARK    5  A    between atoms: C_10  and  C_14
REMARK    6  A    between atoms: N_21  and  C_25
REMARK    7  A    between atoms: C_28  and  N_32
REMARK                            x       y       z     vdW  Elec       q    Type
REMARK                         _______ _______ _______ _____ _____    ______ ____
ROOT
ATOM      1  C   UNL     1      35.444 -20.755 -20.814  0.00  0.00    +0.010 C 
ENDROOT
BRANCH   1   2
ATOM      2  N   UNL     1      34.979 -21.122 -19.485  0.00  0.00    +0.396 N 
ATOM      3  C   UNL     1      35.343 -22.025 -17.389  0.00  0.00    +0.076 C 
ATOM      4  C   UNL     1      34.228 -22.840 -18.047  0.00  0.00    +0.106 C 
ATOM      5  C   UNL     1      36.080 -21.394 -18.561  0.00  0.00    -0.054 C 
ATOM      6  C   UNL     1      34.164 -22.343 -19.492  0.00  0.00    -0.045 C 
ATOM      7  H   UNL     1      34.433 -20.316 -19.182  0.00  0.00    -0.079 HD
BRANCH   3   9
ATOM      8  O   UNL     1      34.765 -22.932 -14.782  0.00  0.00    -0.270 OA
ATOM      9  N   UNL     1      36.205 -22.832 -16.570  0.00  0.00    -0.302 N 
ATOM     10  C   UNL     1      35.846 -23.243 -15.284  0.00  0.00    +0.252 C 
ATOM     11  H   UNL     1      37.081 -23.105 -16.927  0.00  0.00    +0.150 HD
BRANCH  10  14
ATOM     12 CL   UNL     1      40.266 -26.257 -14.112  0.00  0.00    -0.075 Cl
ATOM     13  S   UNL     1      38.220 -24.547 -15.418  0.00  0.00    -0.071 S 
ATOM     14  C   UNL     1      36.821 -24.092 -14.583  0.00  0.00    +0.084 C 
ATOM     15  C   UNL     1      36.737 -24.568 -13.321  0.00  0.00    +0.012 C 
ATOM     16  C   UNL     1      37.881 -25.356 -13.004  0.00  0.00    +0.019 C 
ATOM     17  C   UNL     1      38.768 -25.426 -14.055  0.00  0.00    +0.087 C 
ENDBRANCH  10  14
ENDBRANCH   3   9
BRANCH   4  18
ATOM     18  O   UNL     1      33.002 -22.591 -17.372  0.00  0.00    -0.385 OA
ATOM     19  H   UNL     1      32.271 -22.616 -18.009  0.00  0.00    +0.210 HD
ENDBRANCH   4  18
ENDBRANCH   1   2
BRANCH   1  22
ATOM     20  O   UNL     1      33.458 -19.387 -20.902  0.00  0.00    -0.277 OA
ATOM     21  N   UNL     1      35.195 -19.018 -22.438  0.00  0.00    -0.284 N 
ATOM     22  C   UNL     1      34.562 -19.650 -21.370  0.00  0.00    +0.205 C 
ATOM     23  H   UNL     1      36.088 -19.359 -22.677  0.00  0.00    +0.155 HD
BRANCH  21  25
ATOM     24  F   UNL     1      33.898 -19.470 -24.851  0.00  0.00    -0.203 F 
ATOM     25  C   UNL     1      34.707 -17.945 -23.220  0.00  0.00    +0.078 C 
ATOM     26  C   UNL     1      34.065 -18.212 -24.418  0.00  0.00    +0.155 C 
ATOM     27  C   UNL     1      34.882 -16.647 -22.769  0.00  0.00    +0.018 C 
ATOM     28  C   UNL     1      33.754 -15.839 -24.747  0.00  0.00    +0.061 C 
ATOM     29  C   UNL     1      33.585 -17.152 -25.187  0.00  0.00    +0.046 C 
ATOM     30  C   UNL     1      34.403 -15.587 -23.537  0.00  0.00    +0.017 C 
BRANCH  28  32
ATOM     31  O   UNL     1      32.984 -16.008 -27.529  0.00  0.00    -0.269 OA
ATOM     32  N   UNL     1      33.255 -14.737 -25.546  0.00  0.00    -0.233 N 
ATOM     33  C   UNL     1      32.873 -14.959 -26.895  0.00  0.00    +0.257 C 
ATOM     34  C   UNL     1      33.169 -13.452 -25.007  0.00  0.00    +0.072 C 
ATOM     35  C   UNL     1      32.325 -13.779 -27.634  0.00  0.00    +0.059 C 
ATOM     36  C   UNL     1      32.707 -12.406 -25.699  0.00  0.00    +0.017 C 
ATOM     37  C   UNL     1      32.265 -12.580 -27.051  0.00  0.00    +0.006 C 
ENDBRANCH  28  32
ENDBRANCH  21  25
ENDBRANCH   1  22
TORSDOF 7
ENDMDL
MODEL 8
REMARK VINA RESULT:     -11.0      6.368     12.231
REMARK  Name = 11979006
REMARK  7 active torsions:
REMARK  status: ('A' for Active; 'I' for Inactive)
REMARK    1  A    between atoms: C_1  and  N_2
REMARK    2  A    between atoms: C_1  and  C_22
REMARK    3  A    between atoms: C_3  and  N_9
REMARK    4  A    between atoms: C_4  and  O_18
REMARK    5  A    between atoms: C_10  and  C_14
REMARK    6  A    between atoms: N_21  and  C_25
REMARK    7  A    between atoms: C_28  and  N_32
REMARK                            x       y       z     vdW  Elec       q    Type
REMARK                         _______ _______ _______ _____ _____    ______ ____
ROOT
ATOM      1  C   UNL     1      35.689 -20.454 -20.477  0.00  0.00    +0.010 C 
ENDROOT
BRANCH   1   2
ATOM      2  N   UNL     1      35.200 -20.991 -19.216  0.00  0.00    +0.396 N 
ATOM      3  C   UNL     1      35.543 -22.107 -17.221  0.00  0.00    +0.076 C 
ATOM      4  C   UNL     1      34.494 -22.895 -18.008  0.00  0.00    +0.106 C 
ATOM      5  C   UNL     1      36.284 -21.312 -18.287  0.00  0.00    -0.054 C 
ATOM      6  C   UNL     1      34.452 -22.242 -19.391  0.00  0.00    -0.045 C 
ATOM      7  H   UNL     1      34.604 -20.252 -18.847  0.00  0.00    -0.079 HD
BRANCH   3   9
ATOM      8  O   UNL     1      35.015 -23.153 -14.657  0.00  0.00    -0.270 OA
ATOM      9  N   UNL     1      36.420 -22.959 -16.465  0.00  0.00    -0.302 N 
ATOM     10  C   UNL     1      36.085 -23.439 -15.196  0.00  0.00    +0.252 C 
ATOM     11  H   UNL     1      37.287 -23.213 -16.854  0.00  0.00    +0.150 HD
BRANCH  10  14
ATOM     12 CL   UNL     1      40.477 -26.587 -14.310  0.00  0.00    -0.075 Cl
ATOM     13  S   UNL     1      38.414 -24.799 -15.477  0.00  0.00    -0.071 S 
ATOM     14  C   UNL     1      37.072 -24.326 -14.562  0.00  0.00    +0.084 C 
ATOM     15  C   UNL     1      37.039 -24.824 -13.306  0.00  0.00    +0.012 C 
ATOM     16  C   UNL     1      38.177 -25.647 -13.064  0.00  0.00    +0.019 C 
ATOM     17  C   UNL     1      39.007 -25.719 -14.160  0.00  0.00    +0.087 C 
ENDBRANCH  10  14
ENDBRANCH   3   9
BRANCH   4  18
ATOM     18  O   UNL     1      33.236 -22.784 -17.357  0.00  0.00    -0.385 OA
ATOM     19  H   UNL     1      32.525 -22.946 -17.997  0.00  0.00    +0.210 HD
ENDBRANCH   4  18
ENDBRANCH   1   2
BRANCH   1  22
ATOM     20  O   UNL     1      33.563 -19.530 -21.151  0.00  0.00    -0.277 OA
ATOM     21  N   UNL     1      35.465 -18.154 -21.091  0.00  0.00    -0.284 N 
ATOM     22  C   UNL     1      34.760 -19.347 -20.947  0.00  0.00    +0.205 C 
ATOM     23  H   UNL     1      36.426 -18.189 -20.878  0.00  0.00    +0.155 HD
BRANCH  21  25
ATOM     24  F   UNL     1      35.073 -17.579 -23.778  0.00  0.00    -0.203 F 
ATOM     25  C   UNL     1      34.963 -16.898 -21.506  0.00  0.00    +0.078 C 
ATOM     26  C   UNL     1      34.781 -16.650 -22.856  0.00  0.00    +0.155 C 
ATOM     27  C   UNL     1      34.663 -15.942 -20.549  0.00  0.00    +0.018 C 
ATOM     28  C   UNL     1      33.980 -14.436 -22.312  0.00  0.00    +0.061 C 
ATOM     29  C   UNL     1      34.286 -15.411 -23.262  0.00  0.00    +0.046 C 
ATOM     30  C   UNL     1      34.169 -14.702 -20.955  0.00  0.00    +0.017 C 
BRANCH  28  32
ATOM     31  O   UNL     1      31.788 -13.020 -21.065  0.00  0.00    -0.269 OA
ATOM     32  N   UNL     1      33.466 -13.148 -22.734  0.00  0.00    -0.233 N 
ATOM     33  C   UNL     1      32.408 -12.537 -22.012  0.00  0.00    +0.257 C 
ATOM     34  C   UNL     1      33.990 -12.512 -23.862  0.00  0.00    +0.072 C 
ATOM     35  C   UNL     1      31.971 -11.188 -22.487  0.00  0.00    +0.059 C 
ATOM     36  C   UNL     1      33.559 -11.320 -24.285  0.00  0.00    +0.017 C 
ATOM     37  C   UNL     1      32.522 -10.636 -23.569  0.00  0.00    +0.006 C 
ENDBRANCH  28  32
ENDBRANCH  21  25
ENDBRANCH   1  22
TORSDOF 7
ENDMDL
MODEL 9
REMARK VINA RESULT:     -11.0      1.921      2.215
REMARK  Name = 11979006
REMARK  7 active torsions:
REMARK  status: ('A' for Active; 'I' for Inactive)
REMARK    1  A    between atoms: C_1  and  N_2
REMARK    2  A    between atoms: C_1  and  C_22
REMARK    3  A    between atoms: C_3  and  N_9
REMARK    4  A    between atoms: C_4  and  O_18
REMARK    5  A    between atoms: C_10  and  C_14
REMARK    6  A    between atoms: N_21  and  C_25
REMARK    7  A    between atoms: C_28  and  N_32
REMARK                            x       y       z     vdW  Elec       q    Type
REMARK                         _______ _______ _______ _____ _____    ______ ____
ROOT
ATOM      1  C   UNL     1      33.125 -13.825 -26.996  0.00  0.00    +0.010 C 
ENDROOT
BRANCH   1   2
ATOM      2  N   UNL     1      33.668 -12.802 -26.115  0.00  0.00    +0.396 N 
ATOM      3  C   UNL     1      33.407 -10.935 -24.777  0.00  0.00    +0.076 C 
ATOM      4  C   UNL     1      34.403 -10.569 -25.880  0.00  0.00    +0.106 C 
ATOM      5  C   UNL     1      32.627 -12.106 -25.358  0.00  0.00    -0.054 C 
ATOM      6  C   UNL     1      34.387 -11.753 -26.848  0.00  0.00    -0.045 C 
ATOM      7  H   UNL     1      34.293 -13.316 -25.496  0.00  0.00    -0.079 HD
BRANCH   3   9
ATOM      8  O   UNL     1      34.211  -8.622 -23.380  0.00  0.00    -0.270 OA
ATOM      9  N   UNL     1      32.557  -9.835 -24.415  0.00  0.00    -0.302 N 
ATOM     10  C   UNL     1      33.031  -8.719 -23.720  0.00  0.00    +0.252 C 
ATOM     11  H   UNL     1      31.606  -9.868 -24.664  0.00  0.00    +0.150 HD
BRANCH  10  14
ATOM     12 CL   UNL     1      30.226  -4.020 -23.895  0.00  0.00    -0.075 Cl
ATOM     13  S   UNL     1      32.157  -6.230 -24.345  0.00  0.00    -0.071 S 
ATOM     14  C   UNL     1      32.046  -7.662 -23.450  0.00  0.00    +0.084 C 
ATOM     15  C   UNL     1      31.038  -7.690 -22.551  0.00  0.00    +0.012 C 
ATOM     16  C   UNL     1      30.300  -6.471 -22.586  0.00  0.00    +0.019 C 
ATOM     17  C   UNL     1      30.802  -5.590 -23.518  0.00  0.00    +0.087 C 
ENDBRANCH  10  14
ENDBRANCH   3   9
BRANCH   4  18
ATOM     18  O   UNL     1      35.694 -10.399 -25.310  0.00  0.00    -0.385 OA
ATOM     19  H   UNL     1      36.222  -9.812 -25.874  0.00  0.00    +0.210 HD
ENDBRANCH   4  18
ENDBRANCH   1   2
BRANCH   1  22
ATOM     20  O   UNL     1      33.161 -16.238 -26.989  0.00  0.00    -0.277 OA
ATOM     21  N   UNL     1      33.737 -15.058 -25.042  0.00  0.00    -0.284 N 
ATOM     22  C   UNL     1      33.333 -15.193 -26.368  0.00  0.00    +0.205 C 
ATOM     23  H   UNL     1      33.829 -14.136 -24.707  0.00  0.00    +0.155 HD
BRANCH  21  25
ATOM     24  F   UNL     1      34.601 -14.482 -22.467  0.00  0.00    -0.203 F 
ATOM     25  C   UNL     1      34.032 -16.090 -24.119  0.00  0.00    +0.078 C 
ATOM     26  C   UNL     1      34.460 -15.761 -22.844  0.00  0.00    +0.155 C 
ATOM     27  C   UNL     1      33.885 -17.410 -24.514  0.00  0.00    +0.018 C 
ATOM     28  C   UNL     1      34.608 -18.115 -22.319  0.00  0.00    +0.061 C 
ATOM     29  C   UNL     1      34.750 -16.781 -21.937  0.00  0.00    +0.046 C 
ATOM     30  C   UNL     1      34.176 -18.429 -23.608  0.00  0.00    +0.017 C 
BRANCH  28  32
ATOM     31  O   UNL     1      37.261 -18.878 -21.456  0.00  0.00    -0.269 OA
ATOM     32  N   UNL     1      34.910 -19.174 -21.376  0.00  0.00    -0.233 N 
ATOM     33  C   UNL     1      36.256 -19.425 -21.003  0.00  0.00    +0.257 C 
ATOM     34  C   UNL     1      33.888 -19.966 -20.849  0.00  0.00    +0.072 C 
ATOM     35  C   UNL     1      36.475 -20.504 -19.990  0.00  0.00    +0.059 C 
ATOM     36  C   UNL     1      34.114 -20.947 -19.969  0.00  0.00    +0.017 C 
ATOM     37  C   UNL     1      35.448 -21.216 -19.522  0.00  0.00    +0.006 C 
ENDBRANCH  28  32
ENDBRANCH  21  25
ENDBRANCH   1  22
TORSDOF 7
ENDMDL
