MODEL 1
REMARK VINA RESULT:     -12.3      0.000      0.000
REMARK  Name = 124173720
REMARK  4 active torsions:
REMARK  status: ('A' for Active; 'I' for Inactive)
REMARK    1  A    between atoms: C_13  and  N_24
REMARK    2  A    between atoms: C_18  and  C_23
REMARK    3  A    between atoms: N_24  and  C_26
REMARK    4  A    between atoms: C_26  and  C_30
REMARK                            x       y       z     vdW  Elec       q    Type
REMARK                         _______ _______ _______ _____ _____    ______ ____
ROOT
ATOM      1  O   UNL     1      32.160 -22.458 -18.638  0.00  0.00    -0.473 OA
ATOM      2  N   UNL     1      33.509 -23.634 -16.190  0.00  0.00    -0.272 N 
ATOM      3  N   UNL     1      35.699 -23.374 -16.197  0.00  0.00    -0.374 NA
ATOM      4  C   UNL     1      35.337 -24.148 -15.131  0.00  0.00    +0.190 C 
ATOM      5  C   UNL     1      34.582 -23.065 -16.847  0.00  0.00    +0.188 C 
ATOM      6  C   UNL     1      32.101 -23.562 -16.518  0.00  0.00    +0.141 C 
ATOM      7  C   UNL     1      33.981 -24.328 -15.105  0.00  0.00    +0.169 C 
ATOM      8  C   UNL     1      34.555 -22.239 -18.071  0.00  0.00    +0.078 C 
ATOM      9  C   UNL     1      31.734 -22.313 -17.287  0.00  0.00    +0.227 C 
ATOM     10  C   UNL     1      33.427 -21.996 -18.873  0.00  0.00    +0.144 C 
ATOM     11  C   UNL     1      35.778 -21.676 -18.496  0.00  0.00    +0.008 C 
ATOM     12  C   UNL     1      33.540 -21.266 -20.069  0.00  0.00    +0.051 C 
ATOM     13  C   UNL     1      34.761 -20.728 -20.463  0.00  0.00    +0.048 C 
ATOM     14  C   UNL     1      35.882 -20.929 -19.671  0.00  0.00    +0.015 C 
ATOM     15  O   UNL     1      38.224 -25.257 -13.323  0.00  0.00    -0.432 OA
ATOM     16  O   UNL     1      38.253 -23.717 -15.016  0.00  0.00    -0.226 OA
ATOM     17  N   UNL     1      36.243 -24.660 -14.233  0.00  0.00    -0.194 N 
ATOM     18  C   UNL     1      35.919 -25.485 -13.091  0.00  0.00    +0.195 C 
ATOM     19  C   UNL     1      37.243 -26.175 -12.830  0.00  0.00    +0.236 C 
ATOM     20  C   UNL     1      37.626 -24.464 -14.277  0.00  0.00    +0.411 C 
ENDROOT
BRANCH  18  23
ATOM     21  F   UNL     1      36.443 -24.670 -10.960  0.00  0.00    -0.196 F 
ATOM     22  F   UNL     1      35.323 -23.366 -12.295  0.00  0.00    -0.196 F 
ATOM     23  C   UNL     1      35.471 -24.646 -11.895  0.00  0.00    +0.340 C 
ENDBRANCH  18  23
BRANCH  13  24
ATOM     24  N   UNL     1      34.857 -19.985 -21.657  0.00  0.00    -0.327 N 
ATOM     25  H   UNL     1      35.378 -20.361 -22.402  0.00  0.00    +0.147 HD
BRANCH  24  26
ATOM     26  C   UNL     1      34.232 -18.711 -21.833  0.00  0.00    +0.146 C 
ATOM     27  C   UNL     1      35.019 -17.650 -21.078  0.00  0.00    +0.031 C 
BRANCH  26  30
ATOM     28  O   UNL     1      33.178 -18.575 -24.014  0.00  0.00    -0.274 OA
ATOM     29  N   UNL     1      35.346 -17.851 -23.797  0.00  0.00    -0.327 N 
ATOM     30  C   UNL     1      34.171 -18.385 -23.315  0.00  0.00    +0.237 C 
ATOM     31  H   UNL     1      35.422 -17.603 -24.747  0.00  0.00    +0.145 HD
ATOM     32  H   UNL     1      36.112 -17.719 -23.192  0.00  0.00    +0.145 HD
ENDBRANCH  26  30
ENDBRANCH  24  26
ENDBRANCH  13  24
TORSDOF 4
ENDMDL
MODEL 2
REMARK VINA RESULT:     -10.5      6.855     12.602
REMARK  Name = 124173720
REMARK  4 active torsions:
REMARK  status: ('A' for Active; 'I' for Inactive)
REMARK    1  A    between atoms: C_13  and  N_24
REMARK    2  A    between atoms: C_18  and  C_23
REMARK    3  A    between atoms: N_24  and  C_26
REMARK    4  A    between atoms: C_26  and  C_30
REMARK                            x       y       z     vdW  Elec       q    Type
REMARK                         _______ _______ _______ _____ _____    ______ ____
ROOT
ATOM      1  O   UNL     1      33.395 -19.029 -24.624  0.00  0.00    -0.473 OA
ATOM      2  N   UNL     1      33.254 -16.215 -25.745  0.00  0.00    -0.272 N 
ATOM      3  N   UNL     1      33.776 -14.664 -24.266  0.00  0.00    -0.374 NA
ATOM      4  C   UNL     1      33.347 -14.067 -25.418  0.00  0.00    +0.190 C 
ATOM      5  C   UNL     1      33.714 -15.977 -24.465  0.00  0.00    +0.188 C 
ATOM      6  C   UNL     1      33.036 -17.481 -26.411  0.00  0.00    +0.141 C 
ATOM      7  C   UNL     1      33.013 -15.009 -26.353  0.00  0.00    +0.169 C 
ATOM      8  C   UNL     1      34.090 -16.973 -23.442  0.00  0.00    +0.078 C 
ATOM      9  C   UNL     1      33.912 -18.591 -25.878  0.00  0.00    +0.227 C 
ATOM     10  C   UNL     1      33.915 -18.363 -23.547  0.00  0.00    +0.144 C 
ATOM     11  C   UNL     1      34.638 -16.484 -22.236  0.00  0.00    +0.008 C 
ATOM     12  C   UNL     1      34.229 -19.210 -22.469  0.00  0.00    +0.051 C 
ATOM     13  C   UNL     1      34.763 -18.697 -21.292  0.00  0.00    +0.048 C 
ATOM     14  C   UNL     1      34.973 -17.331 -21.177  0.00  0.00    +0.015 C 
ATOM     15  O   UNL     1      33.260 -10.505 -25.049  0.00  0.00    -0.432 OA
ATOM     16  O   UNL     1      34.163 -11.956 -23.526  0.00  0.00    -0.226 OA
ATOM     17  N   UNL     1      33.273 -12.704 -25.573  0.00  0.00    -0.194 N 
ATOM     18  C   UNL     1      32.826 -12.017 -26.765  0.00  0.00    +0.195 C 
ATOM     19  C   UNL     1      32.432 -10.665 -26.206  0.00  0.00    +0.236 C 
ATOM     20  C   UNL     1      33.620 -11.758 -24.605  0.00  0.00    +0.411 C 
ENDROOT
BRANCH  18  23
ATOM     21  F   UNL     1      35.058 -11.456 -27.190  0.00  0.00    -0.196 F 
ATOM     22  F   UNL     1      34.207 -13.128 -28.294  0.00  0.00    -0.196 F 
ATOM     23  C   UNL     1      33.941 -11.900 -27.802  0.00  0.00    +0.340 C 
ENDBRANCH  18  23
BRANCH  13  24
ATOM     24  N   UNL     1      35.087 -19.558 -20.225  0.00  0.00    -0.327 N 
ATOM     25  H   UNL     1      35.439 -19.166 -19.395  0.00  0.00    +0.147 HD
BRANCH  24  26
ATOM     26  C   UNL     1      34.925 -20.978 -20.295  0.00  0.00    +0.146 C 
ATOM     27  C   UNL     1      36.115 -21.658 -19.632  0.00  0.00    +0.031 C 
BRANCH  26  30
ATOM     28  O   UNL     1      32.545 -20.842 -19.849  0.00  0.00    -0.274 OA
ATOM     29  N   UNL     1      33.792 -22.376 -18.681  0.00  0.00    -0.327 N 
ATOM     30  C   UNL     1      33.628 -21.367 -19.606  0.00  0.00    +0.237 C 
ATOM     31  H   UNL     1      33.017 -22.708 -18.173  0.00  0.00    +0.145 HD
ATOM     32  H   UNL     1      34.684 -22.764 -18.528  0.00  0.00    +0.145 HD
ENDBRANCH  26  30
ENDBRANCH  24  26
ENDBRANCH  13  24
TORSDOF 4
ENDMDL
MODEL 3
REMARK VINA RESULT:     -10.4      7.607     11.972
REMARK  Name = 124173720
REMARK  4 active torsions:
REMARK  status: ('A' for Active; 'I' for Inactive)
REMARK    1  A    between atoms: C_13  and  N_24
REMARK    2  A    between atoms: C_18  and  C_23
REMARK    3  A    between atoms: N_24  and  C_26
REMARK    4  A    between atoms: C_26  and  C_30
REMARK                            x       y       z     vdW  Elec       q    Type
REMARK                         _______ _______ _______ _____ _____    ______ ____
ROOT
ATOM      1  O   UNL     1      33.015 -12.925 -27.302  0.00  0.00    -0.473 OA
ATOM      2  N   UNL     1      33.619 -15.256 -25.459  0.00  0.00    -0.272 N 
ATOM      3  N   UNL     1      33.968 -14.642 -23.369  0.00  0.00    -0.374 NA
ATOM      4  C   UNL     1      34.215 -15.980 -23.497  0.00  0.00    +0.190 C 
ATOM      5  C   UNL     1      33.609 -14.199 -24.569  0.00  0.00    +0.188 C 
ATOM      6  C   UNL     1      33.289 -15.260 -26.868  0.00  0.00    +0.141 C 
ATOM      7  C   UNL     1      34.009 -16.387 -24.787  0.00  0.00    +0.169 C 
ATOM      8  C   UNL     1      33.265 -12.790 -24.847  0.00  0.00    +0.078 C 
ATOM      9  C   UNL     1      32.319 -14.167 -27.254  0.00  0.00    +0.227 C 
ATOM     10  C   UNL     1      33.013 -12.242 -26.116  0.00  0.00    +0.144 C 
ATOM     11  C   UNL     1      33.223 -11.908 -23.746  0.00  0.00    +0.008 C 
ATOM     12  C   UNL     1      32.783 -10.863 -26.269  0.00  0.00    +0.051 C 
ATOM     13  C   UNL     1      32.753 -10.018 -25.165  0.00  0.00    +0.048 C 
ATOM     14  C   UNL     1      32.968 -10.543 -23.899  0.00  0.00    +0.015 C 
ATOM     15  O   UNL     1      35.381 -17.360 -20.404  0.00  0.00    -0.432 OA
ATOM     16  O   UNL     1      34.563 -15.239 -20.663  0.00  0.00    -0.226 OA
ATOM     17  N   UNL     1      34.619 -16.771 -22.449  0.00  0.00    -0.194 N 
ATOM     18  C   UNL     1      34.897 -18.188 -22.524  0.00  0.00    +0.195 C 
ATOM     19  C   UNL     1      35.786 -18.389 -21.314  0.00  0.00    +0.236 C 
ATOM     20  C   UNL     1      34.824 -16.336 -21.137  0.00  0.00    +0.411 C 
ENDROOT
BRANCH  18  23
ATOM     21  F   UNL     1      33.267 -19.410 -23.677  0.00  0.00    -0.196 F 
ATOM     22  F   UNL     1      33.877 -20.135 -21.718  0.00  0.00    -0.196 F 
ATOM     23  C   UNL     1      33.619 -19.021 -22.435  0.00  0.00    +0.340 C 
ENDBRANCH  18  23
BRANCH  13  24
ATOM     24  N   UNL     1      32.506  -8.641 -25.331  0.00  0.00    -0.327 N 
ATOM     25  H   UNL     1      31.647  -8.361 -25.721  0.00  0.00    +0.147 HD
BRANCH  24  26
ATOM     26  C   UNL     1      33.450  -7.631 -24.959  0.00  0.00    +0.146 C 
ATOM     27  C   UNL     1      34.236  -7.194 -26.187  0.00  0.00    +0.031 C 
BRANCH  26  30
ATOM     28  O   UNL     1      32.755  -5.312 -24.794  0.00  0.00    -0.274 OA
ATOM     29  N   UNL     1      31.967  -6.806 -23.238  0.00  0.00    -0.327 N 
ATOM     30  C   UNL     1      32.707  -6.456 -24.347  0.00  0.00    +0.237 C 
ATOM     31  H   UNL     1      31.445  -6.123 -22.759  0.00  0.00    +0.145 HD
ATOM     32  H   UNL     1      31.962  -7.740 -22.924  0.00  0.00    +0.145 HD
ENDBRANCH  26  30
ENDBRANCH  24  26
ENDBRANCH  13  24
TORSDOF 4
ENDMDL
MODEL 4
REMARK VINA RESULT:     -10.1      3.780      8.776
REMARK  Name = 124173720
REMARK  4 active torsions:
REMARK  status: ('A' for Active; 'I' for Inactive)
REMARK    1  A    between atoms: C_13  and  N_24
REMARK    2  A    between atoms: C_18  and  C_23
REMARK    3  A    between atoms: N_24  and  C_26
REMARK    4  A    between atoms: C_26  and  C_30
REMARK                            x       y       z     vdW  Elec       q    Type
REMARK                         _______ _______ _______ _____ _____    ______ ____
ROOT
ATOM      1  O   UNL     1      35.763 -23.540 -16.134  0.00  0.00    -0.473 OA
ATOM      2  N   UNL     1      35.738 -21.633 -18.491  0.00  0.00    -0.272 N 
ATOM      3  N   UNL     1      33.725 -21.330 -19.340  0.00  0.00    -0.374 NA
ATOM      4  C   UNL     1      34.648 -20.692 -20.120  0.00  0.00    +0.190 C 
ATOM      5  C   UNL     1      34.393 -21.909 -18.348  0.00  0.00    +0.188 C 
ATOM      6  C   UNL     1      36.843 -22.039 -17.649  0.00  0.00    +0.141 C 
ATOM      7  C   UNL     1      35.908 -20.868 -19.617  0.00  0.00    +0.169 C 
ATOM      8  C   UNL     1      33.744 -22.709 -17.289  0.00  0.00    +0.078 C 
ATOM      9  C   UNL     1      36.436 -22.288 -16.214  0.00  0.00    +0.227 C 
ATOM     10  C   UNL     1      34.407 -23.454 -16.301  0.00  0.00    +0.144 C 
ATOM     11  C   UNL     1      32.333 -22.760 -17.294  0.00  0.00    +0.008 C 
ATOM     12  C   UNL     1      33.684 -24.252 -15.396  0.00  0.00    +0.051 C 
ATOM     13  C   UNL     1      32.294 -24.286 -15.430  0.00  0.00    +0.048 C 
ATOM     14  C   UNL     1      31.616 -23.534 -16.378  0.00  0.00    +0.015 C 
ATOM     15  O   UNL     1      33.087 -19.198 -22.977  0.00  0.00    -0.432 OA
ATOM     16  O   UNL     1      31.967 -20.141 -21.218  0.00  0.00    -0.226 OA
ATOM     17  N   UNL     1      34.315 -19.985 -21.250  0.00  0.00    -0.194 N 
ATOM     18  C   UNL     1      35.246 -19.293 -22.114  0.00  0.00    +0.195 C 
ATOM     19  C   UNL     1      34.454 -19.199 -23.403  0.00  0.00    +0.236 C 
ATOM     20  C   UNL     1      33.021 -19.817 -21.749  0.00  0.00    +0.411 C 
ENDROOT
BRANCH  18  23
ATOM     21  F   UNL     1      35.574 -17.024 -22.581  0.00  0.00    -0.196 F 
ATOM     22  F   UNL     1      34.670 -17.543 -20.670  0.00  0.00    -0.196 F 
ATOM     23  C   UNL     1      35.607 -17.913 -21.567  0.00  0.00    +0.340 C 
ENDBRANCH  18  23
BRANCH  13  24
ATOM     24  N   UNL     1      31.581 -25.078 -14.508  0.00  0.00    -0.327 N 
ATOM     25  H   UNL     1      31.881 -26.002 -14.353  0.00  0.00    +0.147 HD
BRANCH  24  26
ATOM     26  C   UNL     1      30.441 -24.599 -13.788  0.00  0.00    +0.146 C 
ATOM     27  C   UNL     1      30.632 -23.126 -13.457  0.00  0.00    +0.031 C 
BRANCH  26  30
ATOM     28  O   UNL     1      28.630 -23.902 -15.244  0.00  0.00    -0.274 OA
ATOM     29  N   UNL     1      28.766 -26.115 -14.647  0.00  0.00    -0.327 N 
ATOM     30  C   UNL     1      29.196 -24.806 -14.633  0.00  0.00    +0.237 C 
ATOM     31  H   UNL     1      27.966 -26.366 -15.162  0.00  0.00    +0.145 HD
ATOM     32  H   UNL     1      29.259 -26.801 -14.140  0.00  0.00    +0.145 HD
ENDBRANCH  26  30
ENDBRANCH  24  26
ENDBRANCH  13  24
TORSDOF 4
ENDMDL
MODEL 5
REMARK VINA RESULT:      -9.9      8.696     14.742
REMARK  Name = 124173720
REMARK  4 active torsions:
REMARK  status: ('A' for Active; 'I' for Inactive)
REMARK    1  A    between atoms: C_13  and  N_24
REMARK    2  A    between atoms: C_18  and  C_23
REMARK    3  A    between atoms: N_24  and  C_26
REMARK    4  A    between atoms: C_26  and  C_30
REMARK                            x       y       z     vdW  Elec       q    Type
REMARK                         _______ _______ _______ _____ _____    ______ ____
ROOT
ATOM      1  O   UNL     1      32.938 -15.302 -26.445  0.00  0.00    -0.473 OA
ATOM      2  N   UNL     1      32.719 -12.278 -26.469  0.00  0.00    -0.272 N 
ATOM      3  N   UNL     1      33.176 -11.359 -24.517  0.00  0.00    -0.374 NA
ATOM      4  C   UNL     1      32.740 -10.395 -25.382  0.00  0.00    +0.190 C 
ATOM      5  C   UNL     1      33.157 -12.510 -25.180  0.00  0.00    +0.188 C 
ATOM      6  C   UNL     1      32.548 -13.220 -27.554  0.00  0.00    +0.141 C 
ATOM      7  C   UNL     1      32.446 -10.940 -26.602  0.00  0.00    +0.169 C 
ATOM      8  C   UNL     1      33.554 -13.801 -24.582  0.00  0.00    +0.078 C 
ATOM      9  C   UNL     1      33.454 -14.425 -27.442  0.00  0.00    +0.227 C 
ATOM     10  C   UNL     1      33.425 -15.061 -25.188  0.00  0.00    +0.144 C 
ATOM     11  C   UNL     1      34.073 -13.769 -23.269  0.00  0.00    +0.008 C 
ATOM     12  C   UNL     1      33.754 -16.234 -24.485  0.00  0.00    +0.051 C 
ATOM     13  C   UNL     1      34.259 -16.170 -23.191  0.00  0.00    +0.048 C 
ATOM     14  C   UNL     1      34.424 -14.935 -22.583  0.00  0.00    +0.015 C 
ATOM     15  O   UNL     1      32.535  -7.214 -23.746  0.00  0.00    -0.432 OA
ATOM     16  O   UNL     1      33.467  -9.096 -22.835  0.00  0.00    -0.226 OA
ATOM     17  N   UNL     1      32.624  -9.071 -25.033  0.00  0.00    -0.194 N 
ATOM     18  C   UNL     1      32.168  -8.010 -25.902  0.00  0.00    +0.195 C 
ATOM     19  C   UNL     1      31.725  -6.964 -24.899  0.00  0.00    +0.236 C 
ATOM     20  C   UNL     1      32.930  -8.534 -23.780  0.00  0.00    +0.411 C 
ENDROOT
BRANCH  18  23
ATOM     21  F   UNL     1      33.442  -6.171 -26.590  0.00  0.00    -0.196 F 
ATOM     22  F   UNL     1      34.443  -8.098 -26.448  0.00  0.00    -0.196 F 
ATOM     23  C   UNL     1      33.290  -7.494 -26.802  0.00  0.00    +0.340 C 
ENDBRANCH  18  23
BRANCH  13  24
ATOM     24  N   UNL     1      34.598 -17.353 -22.503  0.00  0.00    -0.327 N 
ATOM     25  H   UNL     1      35.293 -17.308 -21.808  0.00  0.00    +0.147 HD
BRANCH  24  26
ATOM     26  C   UNL     1      33.979 -18.614 -22.771  0.00  0.00    +0.146 C 
ATOM     27  C   UNL     1      34.817 -19.388 -23.777  0.00  0.00    +0.031 C 
BRANCH  26  30
ATOM     28  O   UNL     1      32.818 -19.977 -21.133  0.00  0.00    -0.274 OA
ATOM     29  N   UNL     1      34.991 -19.367 -20.709  0.00  0.00    -0.327 N 
ATOM     30  C   UNL     1      33.843 -19.388 -21.471  0.00  0.00    +0.237 C 
ATOM     31  H   UNL     1      35.017 -19.836 -19.844  0.00  0.00    +0.145 HD
ATOM     32  H   UNL     1      35.786 -18.881 -21.030  0.00  0.00    +0.145 HD
ENDBRANCH  26  30
ENDBRANCH  24  26
ENDBRANCH  13  24
TORSDOF 4
ENDMDL
MODEL 6
REMARK VINA RESULT:      -9.6     10.074     13.957
REMARK  Name = 124173720
REMARK  4 active torsions:
REMARK  status: ('A' for Active; 'I' for Inactive)
REMARK    1  A    between atoms: C_13  and  N_24
REMARK    2  A    between atoms: C_18  and  C_23
REMARK    3  A    between atoms: N_24  and  C_26
REMARK    4  A    between atoms: C_26  and  C_30
REMARK                            x       y       z     vdW  Elec       q    Type
REMARK                         _______ _______ _______ _____ _____    ______ ____
ROOT
ATOM      1  O   UNL     1      32.985 -12.251 -26.930  0.00  0.00    -0.473 OA
ATOM      2  N   UNL     1      32.631 -10.309 -24.629  0.00  0.00    -0.272 N 
ATOM      3  N   UNL     1      32.479 -11.306 -22.668  0.00  0.00    -0.374 NA
ATOM      4  C   UNL     1      32.254  -9.967 -22.515  0.00  0.00    +0.190 C 
ATOM      5  C   UNL     1      32.704 -11.515 -23.960  0.00  0.00    +0.188 C 
ATOM      6  C   UNL     1      32.817 -10.039 -26.039  0.00  0.00    +0.141 C 
ATOM      7  C   UNL     1      32.340  -9.324 -23.720  0.00  0.00    +0.169 C 
ATOM      8  C   UNL     1      32.982 -12.848 -24.533  0.00  0.00    +0.078 C 
ATOM      9  C   UNL     1      33.714 -11.045 -26.723  0.00  0.00    +0.227 C 
ATOM     10  C   UNL     1      33.090 -13.148 -25.901  0.00  0.00    +0.144 C 
ATOM     11  C   UNL     1      33.112 -13.923 -23.627  0.00  0.00    +0.008 C 
ATOM     12  C   UNL     1      33.268 -14.473 -26.334  0.00  0.00    +0.051 C 
ATOM     13  C   UNL     1      33.388 -15.512 -25.417  0.00  0.00    +0.048 C 
ATOM     14  C   UNL     1      33.316 -15.236 -24.060  0.00  0.00    +0.015 C 
ATOM     15  O   UNL     1      31.443  -9.191 -19.113  0.00  0.00    -0.432 OA
ATOM     16  O   UNL     1      32.177 -11.230 -19.850  0.00  0.00    -0.226 OA
ATOM     17  N   UNL     1      31.980  -9.386 -21.300  0.00  0.00    -0.194 N 
ATOM     18  C   UNL     1      31.732  -7.979 -21.079  0.00  0.00    +0.195 C 
ATOM     19  C   UNL     1      30.975  -8.006 -19.766  0.00  0.00    +0.236 C 
ATOM     20  C   UNL     1      31.897 -10.061 -20.080  0.00  0.00    +0.411 C 
ENDROOT
BRANCH  18  23
ATOM     21  F   UNL     1      32.936  -6.084 -21.741  0.00  0.00    -0.196 F 
ATOM     22  F   UNL     1      33.183  -6.775 -19.692  0.00  0.00    -0.196 F 
ATOM     23  C   UNL     1      33.033  -7.185 -20.968  0.00  0.00    +0.340 C 
ENDBRANCH  18  23
BRANCH  13  24
ATOM     24  N   UNL     1      33.582 -16.835 -25.864  0.00  0.00    -0.327 N 
ATOM     25  H   UNL     1      34.133 -16.984 -26.665  0.00  0.00    +0.147 HD
BRANCH  24  26
ATOM     26  C   UNL     1      33.011 -17.970 -25.206  0.00  0.00    +0.146 C 
ATOM     27  C   UNL     1      32.063 -18.685 -26.156  0.00  0.00    +0.031 C 
BRANCH  26  30
ATOM     28  O   UNL     1      34.833 -18.686 -23.772  0.00  0.00    -0.274 OA
ATOM     29  N   UNL     1      34.264 -20.006 -25.563  0.00  0.00    -0.327 N 
ATOM     30  C   UNL     1      34.127 -18.897 -24.755  0.00  0.00    +0.237 C 
ATOM     31  H   UNL     1      34.957 -20.676 -25.366  0.00  0.00    +0.145 HD
ATOM     32  H   UNL     1      33.668 -20.127 -26.338  0.00  0.00    +0.145 HD
ENDBRANCH  26  30
ENDBRANCH  24  26
ENDBRANCH  13  24
TORSDOF 4
ENDMDL
MODEL 7
REMARK VINA RESULT:      -9.5     11.534     15.593
REMARK  Name = 124173720
REMARK  4 active torsions:
REMARK  status: ('A' for Active; 'I' for Inactive)
REMARK    1  A    between atoms: C_13  and  N_24
REMARK    2  A    between atoms: C_18  and  C_23
REMARK    3  A    between atoms: N_24  and  C_26
REMARK    4  A    between atoms: C_26  and  C_30
REMARK                            x       y       z     vdW  Elec       q    Type
REMARK                         _______ _______ _______ _____ _____    ______ ____
ROOT
ATOM      1  O   UNL     1      32.439 -12.907 -21.823  0.00  0.00    -0.473 OA
ATOM      2  N   UNL     1      31.927  -9.918 -21.811  0.00  0.00    -0.272 N 
ATOM      3  N   UNL     1      32.391  -8.950 -23.738  0.00  0.00    -0.374 NA
ATOM      4  C   UNL     1      32.068  -7.995 -22.816  0.00  0.00    +0.190 C 
ATOM      5  C   UNL     1      32.310 -10.124 -23.122  0.00  0.00    +0.188 C 
ATOM      6  C   UNL     1      31.698 -10.894 -20.767  0.00  0.00    +0.141 C 
ATOM      7  C   UNL     1      31.779  -8.569 -21.608  0.00  0.00    +0.169 C 
ATOM      8  C   UNL     1      32.595 -11.413 -23.785  0.00  0.00    +0.078 C 
ATOM      9  C   UNL     1      31.290 -12.249 -21.299  0.00  0.00    +0.227 C 
ATOM     10  C   UNL     1      32.659 -12.666 -23.152  0.00  0.00    +0.144 C 
ATOM     11  C   UNL     1      32.866 -11.378 -25.170  0.00  0.00    +0.008 C 
ATOM     12  C   UNL     1      33.029 -13.816 -23.872  0.00  0.00    +0.051 C 
ATOM     13  C   UNL     1      33.294 -13.748 -25.236  0.00  0.00    +0.048 C 
ATOM     14  C   UNL     1      33.207 -12.527 -25.888  0.00  0.00    +0.015 C 
ATOM     15  O   UNL     1      32.395  -4.713 -24.214  0.00  0.00    -0.432 OA
ATOM     16  O   UNL     1      32.543  -6.663 -25.404  0.00  0.00    -0.226 OA
ATOM     17  N   UNL     1      32.052  -6.651 -23.102  0.00  0.00    -0.194 N 
ATOM     18  C   UNL     1      31.721  -5.597 -22.169  0.00  0.00    +0.195 C 
ATOM     19  C   UNL     1      32.384  -4.398 -22.818  0.00  0.00    +0.236 C 
ATOM     20  C   UNL     1      32.351  -6.084 -24.344  0.00  0.00    +0.411 C 
ENDROOT
BRANCH  18  23
ATOM     21  F   UNL     1      29.917  -5.146 -20.749  0.00  0.00    -0.196 F 
ATOM     22  F   UNL     1      29.843  -4.336 -22.768  0.00  0.00    -0.196 F 
ATOM     23  C   UNL     1      30.211  -5.410 -22.038  0.00  0.00    +0.340 C 
ENDBRANCH  18  23
BRANCH  13  24
ATOM     24  N   UNL     1      33.650 -14.911 -25.948  0.00  0.00    -0.327 N 
ATOM     25  H   UNL     1      34.406 -14.864 -26.576  0.00  0.00    +0.147 HD
BRANCH  24  26
ATOM     26  C   UNL     1      32.960 -16.156 -25.799  0.00  0.00    +0.146 C 
ATOM     27  C   UNL     1      32.072 -16.393 -27.012  0.00  0.00    +0.031 C 
BRANCH  26  30
ATOM     28  O   UNL     1      34.009 -18.267 -26.371  0.00  0.00    -0.274 OA
ATOM     29  N   UNL     1      34.865 -17.058 -24.617  0.00  0.00    -0.327 N 
ATOM     30  C   UNL     1      33.977 -17.274 -25.648  0.00  0.00    +0.237 C 
ATOM     31  H   UNL     1      35.569 -17.719 -24.426  0.00  0.00    +0.145 HD
ATOM     32  H   UNL     1      34.796 -16.241 -24.069  0.00  0.00    +0.145 HD
ENDBRANCH  26  30
ENDBRANCH  24  26
ENDBRANCH  13  24
TORSDOF 4
ENDMDL
