MODEL 1
REMARK VINA RESULT:     -13.6      0.000      0.000
REMARK  Name = 25171648
REMARK  8 active torsions:
REMARK  status: ('A' for Active; 'I' for Inactive)
REMARK    1  A    between atoms: C_1  and  C_12
REMARK    2  A    between atoms: C_2  and  C_23
REMARK    3  A    between atoms: C_9  and  O_13
REMARK    4  A    between atoms: O_13  and  C_14
REMARK    5  A    between atoms: C_14  and  C_16
REMARK    6  A    between atoms: C_23  and  N_25
REMARK    7  A    between atoms: C_27  and  C_31
REMARK    8  A    between atoms: C_34  and  C_38
REMARK                            x       y       z     vdW  Elec       q    Type
REMARK                         _______ _______ _______ _____ _____    ______ ____
ROOT
ATOM      1  C   UNL     1      34.918 -20.164 -20.431  0.00  0.00    +0.062 C 
ATOM      2  C   UNL     1      34.121 -22.052 -19.151  0.00  0.00    +0.000 C 
ATOM      3  C   UNL     1      33.905 -21.072 -20.120  0.00  0.00    +0.007 C 
ATOM      4  C   UNL     1      36.145 -20.236 -19.773  0.00  0.00    +0.010 C 
ATOM      5  C   UNL     1      35.349 -22.124 -18.493  0.00  0.00    -0.003 C 
ATOM      6  C   UNL     1      36.361 -21.217 -18.804  0.00  0.00    +0.000 C 
ENDROOT
BRANCH   1  12
ATOM      7  N   UNL     1      35.119 -17.911 -21.136  0.00  0.00    -0.212 NA
ATOM      8  N   UNL     1      34.085 -19.553 -22.565  0.00  0.00    -0.190 NA
ATOM      9  C   UNL     1      34.279 -17.269 -23.299  0.00  0.00    +0.161 C 
ATOM     10  C   UNL     1      34.894 -16.989 -22.095  0.00  0.00    +0.201 C 
ATOM     11  C   UNL     1      33.892 -18.581 -23.480  0.00  0.00    +0.144 C 
ATOM     12  C   UNL     1      34.695 -19.153 -21.432  0.00  0.00    +0.031 C 
BRANCH   9  13
ATOM     13  O   UNL     1      34.068 -16.305 -24.253  0.00  0.00    -0.476 OA
BRANCH  13  14
ATOM     14  C   UNL     1      34.582 -16.556 -25.547  0.00  0.00    +0.205 C 
BRANCH  14  16
ATOM     15  N   UNL     1      30.838 -15.170 -27.193  0.00  0.00    +0.386 N 
ATOM     16  C   UNL     1      33.526 -16.164 -26.575  0.00  0.00    +0.040 C 
ATOM     17  C   UNL     1      33.143 -14.687 -26.435  0.00  0.00    -0.019 C 
ATOM     18  C   UNL     1      32.274 -17.038 -26.441  0.00  0.00    -0.019 C 
ATOM     19  C   UNL     1      32.013 -14.311 -27.396  0.00  0.00    -0.077 C 
ATOM     20  C   UNL     1      31.173 -16.585 -27.402  0.00  0.00    -0.077 C 
ATOM     21  C   UNL     1      29.749 -14.765 -28.083  0.00  0.00    -0.101 C 
ATOM     22  H   UNL     1      30.530 -15.058 -26.227  0.00  0.00    -0.080 HD
ENDBRANCH  14  16
ENDBRANCH  13  14
ENDBRANCH   9  13
ENDBRANCH   1  12
BRANCH   2  23
ATOM     23  C   UNL     1      33.039 -23.024 -18.817  0.00  0.00    +0.146 C 
BRANCH  23  25
ATOM     24  O   UNL     1      30.579 -22.378 -17.496  0.00  0.00    -0.268 OA
ATOM     25  N   UNL     1      32.786 -23.099 -17.388  0.00  0.00    -0.173 N 
ATOM     26  N   UNL     1      33.851 -23.511 -16.639  0.00  0.00    -0.175 NA
ATOM     27  C   UNL     1      33.702 -23.595 -15.357  0.00  0.00    +0.099 C 
ATOM     28  C   UNL     1      31.552 -22.764 -16.849  0.00  0.00    +0.268 C 
ATOM     29  C   UNL     1      32.447 -23.298 -14.641  0.00  0.00    +0.025 C 
ATOM     30  C   UNL     1      31.418 -22.895 -15.383  0.00  0.00    +0.061 C 
BRANCH  27  31
ATOM     31  C   UNL     1      34.856 -24.038 -14.530  0.00  0.00    +0.020 C 
ATOM     32  C   UNL     1      34.776 -23.993 -13.138  0.00  0.00    +0.012 C 
ATOM     33  C   UNL     1      36.019 -24.500 -15.147  0.00  0.00    +0.002 C 
ATOM     34  C   UNL     1      35.859 -24.409 -12.363  0.00  0.00    +0.068 C 
ATOM     35  C   UNL     1      37.102 -24.917 -14.372  0.00  0.00    +0.001 C 
ATOM     36  C   UNL     1      37.022 -24.872 -12.981  0.00  0.00    +0.010 C 
BRANCH  34  38
ATOM     37  N   UNL     1      35.712 -24.324  -9.779  0.00  0.00    -0.191 NA
ATOM     38  C   UNL     1      35.778 -24.362 -10.937  0.00  0.00    +0.100 C 
ENDBRANCH  34  38
ENDBRANCH  27  31
ENDBRANCH  23  25
ENDBRANCH   2  23
TORSDOF 8
ENDMDL
MODEL 2
REMARK VINA RESULT:     -13.5      1.464      1.993
REMARK  Name = 25171648
REMARK  8 active torsions:
REMARK  status: ('A' for Active; 'I' for Inactive)
REMARK    1  A    between atoms: C_1  and  C_12
REMARK    2  A    between atoms: C_2  and  C_23
REMARK    3  A    between atoms: C_9  and  O_13
REMARK    4  A    between atoms: O_13  and  C_14
REMARK    5  A    between atoms: C_14  and  C_16
REMARK    6  A    between atoms: C_23  and  N_25
REMARK    7  A    between atoms: C_27  and  C_31
REMARK    8  A    between atoms: C_34  and  C_38
REMARK                            x       y       z     vdW  Elec       q    Type
REMARK                         _______ _______ _______ _____ _____    ______ ____
ROOT
ATOM      1  C   UNL     1      35.150 -20.735 -19.843  0.00  0.00    +0.062 C 
ATOM      2  C   UNL     1      34.119 -22.440 -18.478  0.00  0.00    +0.000 C 
ATOM      3  C   UNL     1      34.062 -21.560 -19.559  0.00  0.00    +0.007 C 
ATOM      4  C   UNL     1      36.294 -20.789 -19.046  0.00  0.00    +0.010 C 
ATOM      5  C   UNL     1      35.262 -22.494 -17.681  0.00  0.00    -0.003 C 
ATOM      6  C   UNL     1      36.350 -21.670 -17.966  0.00  0.00    +0.000 C 
ENDROOT
BRANCH   1  12
ATOM      7  N   UNL     1      33.941 -19.803 -21.656  0.00  0.00    -0.212 NA
ATOM      8  N   UNL     1      36.196 -19.091 -21.194  0.00  0.00    -0.190 NA
ATOM      9  C   UNL     1      34.984 -18.132 -23.039  0.00  0.00    +0.161 C 
ATOM     10  C   UNL     1      33.921 -18.941 -22.694  0.00  0.00    +0.201 C 
ATOM     11  C   UNL     1      36.107 -18.250 -22.245  0.00  0.00    +0.144 C 
ATOM     12  C   UNL     1      35.092 -19.826 -20.959  0.00  0.00    +0.031 C 
BRANCH   9  13
ATOM     13  O   UNL     1      34.929 -17.265 -24.103  0.00  0.00    -0.476 OA
BRANCH  13  14
ATOM     14  C   UNL     1      33.891 -17.466 -25.043  0.00  0.00    +0.205 C 
BRANCH  14  16
ATOM     15  N   UNL     1      31.995 -13.945 -26.675  0.00  0.00    +0.386 N 
ATOM     16  C   UNL     1      33.700 -16.180 -25.840  0.00  0.00    +0.040 C 
ATOM     17  C   UNL     1      33.374 -15.002 -24.914  0.00  0.00    -0.019 C 
ATOM     18  C   UNL     1      32.592 -16.337 -26.886  0.00  0.00    -0.019 C 
ATOM     19  C   UNL     1      33.084 -13.729 -25.712  0.00  0.00    -0.077 C 
ATOM     20  C   UNL     1      32.328 -15.020 -27.620  0.00  0.00    -0.077 C 
ATOM     21  C   UNL     1      31.695 -12.707 -27.394  0.00  0.00    -0.101 C 
ATOM     22  H   UNL     1      31.166 -14.230 -26.154  0.00  0.00    -0.080 HD
ENDBRANCH  14  16
ENDBRANCH  13  14
ENDBRANCH   9  13
ENDBRANCH   1  12
BRANCH   2  23
ATOM     23  C   UNL     1      32.955 -23.323 -18.173  0.00  0.00    +0.146 C 
BRANCH  23  25
ATOM     24  O   UNL     1      30.497 -22.581 -16.899  0.00  0.00    -0.268 OA
ATOM     25  N   UNL     1      32.671 -23.390 -16.749  0.00  0.00    -0.173 N 
ATOM     26  N   UNL     1      33.704 -23.845 -15.980  0.00  0.00    -0.175 NA
ATOM     27  C   UNL     1      33.526 -23.924 -14.701  0.00  0.00    +0.099 C 
ATOM     28  C   UNL     1      31.442 -23.007 -16.234  0.00  0.00    +0.268 C 
ATOM     29  C   UNL     1      32.270 -23.579 -14.009  0.00  0.00    +0.025 C 
ATOM     30  C   UNL     1      31.273 -23.134 -14.771  0.00  0.00    +0.061 C 
BRANCH  27  31
ATOM     31  C   UNL     1      34.645 -24.414 -13.852  0.00  0.00    +0.020 C 
ATOM     32  C   UNL     1      35.742 -25.045 -14.439  0.00  0.00    +0.012 C 
ATOM     33  C   UNL     1      34.598 -24.241 -12.468  0.00  0.00    +0.002 C 
ATOM     34  C   UNL     1      36.791 -25.503 -13.641  0.00  0.00    +0.068 C 
ATOM     35  C   UNL     1      35.647 -24.699 -11.671  0.00  0.00    +0.001 C 
ATOM     36  C   UNL     1      36.744 -25.330 -12.258  0.00  0.00    +0.010 C 
BRANCH  34  38
ATOM     37  N   UNL     1      38.828 -26.677 -14.729  0.00  0.00    -0.191 NA
ATOM     38  C   UNL     1      37.915 -26.151 -14.242  0.00  0.00    +0.100 C 
ENDBRANCH  34  38
ENDBRANCH  27  31
ENDBRANCH  23  25
ENDBRANCH   2  23
TORSDOF 8
ENDMDL
MODEL 3
REMARK VINA RESULT:     -13.4      2.355     12.702
REMARK  Name = 25171648
REMARK  8 active torsions:
REMARK  status: ('A' for Active; 'I' for Inactive)
REMARK    1  A    between atoms: C_1  and  C_12
REMARK    2  A    between atoms: C_2  and  C_23
REMARK    3  A    between atoms: C_9  and  O_13
REMARK    4  A    between atoms: O_13  and  C_14
REMARK    5  A    between atoms: C_14  and  C_16
REMARK    6  A    between atoms: C_23  and  N_25
REMARK    7  A    between atoms: C_27  and  C_31
REMARK    8  A    between atoms: C_34  and  C_38
REMARK                            x       y       z     vdW  Elec       q    Type
REMARK                         _______ _______ _______ _____ _____    ______ ____
ROOT
ATOM      1  C   UNL     1      34.537 -19.016 -21.555  0.00  0.00    +0.062 C 
ATOM      2  C   UNL     1      34.549 -18.138 -23.807  0.00  0.00    +0.000 C 
ATOM      3  C   UNL     1      34.430 -19.219 -22.931  0.00  0.00    +0.007 C 
ATOM      4  C   UNL     1      34.763 -17.734 -21.055  0.00  0.00    +0.010 C 
ATOM      5  C   UNL     1      34.776 -16.857 -23.306  0.00  0.00    -0.003 C 
ATOM      6  C   UNL     1      34.882 -16.654 -21.930  0.00  0.00    +0.000 C 
ENDROOT
BRANCH   1  12
ATOM      7  N   UNL     1      35.555 -20.599 -20.117  0.00  0.00    -0.212 NA
ATOM      8  N   UNL     1      33.166 -20.591 -20.433  0.00  0.00    -0.190 NA
ATOM      9  C   UNL     1      34.182 -22.208 -18.967  0.00  0.00    +0.161 C 
ATOM     10  C   UNL     1      35.402 -21.643 -19.275  0.00  0.00    +0.201 C 
ATOM     11  C   UNL     1      33.087 -21.635 -19.582  0.00  0.00    +0.144 C 
ATOM     12  C   UNL     1      34.413 -20.130 -20.652  0.00  0.00    +0.031 C 
BRANCH   9  13
ATOM     13  O   UNL     1      34.064 -23.270 -18.105  0.00  0.00    -0.476 OA
BRANCH  13  14
ATOM     14  C   UNL     1      33.194 -23.109 -17.001  0.00  0.00    +0.205 C 
BRANCH  14  16
ATOM     15  N   UNL     1      34.790 -23.442 -13.001  0.00  0.00    +0.386 N 
ATOM     16  C   UNL     1      33.858 -23.715 -15.767  0.00  0.00    +0.040 C 
ATOM     17  C   UNL     1      32.898 -23.717 -14.572  0.00  0.00    -0.019 C 
ATOM     18  C   UNL     1      35.138 -22.957 -15.402  0.00  0.00    -0.019 C 
ATOM     19  C   UNL     1      33.587 -24.230 -13.305  0.00  0.00    -0.077 C 
ATOM     20  C   UNL     1      35.754 -23.496 -14.108  0.00  0.00    -0.077 C 
ATOM     21  C   UNL     1      35.408 -23.911 -11.760  0.00  0.00    -0.101 C 
ATOM     22  H   UNL     1      34.506 -22.470 -12.877  0.00  0.00    -0.080 HD
ENDBRANCH  14  16
ENDBRANCH  13  14
ENDBRANCH   9  13
ENDBRANCH   1  12
BRANCH   2  23
ATOM     23  C   UNL     1      34.436 -18.354 -25.278  0.00  0.00    +0.146 C 
BRANCH  23  25
ATOM     24  O   UNL     1      31.928 -19.233 -26.353  0.00  0.00    -0.268 OA
ATOM     25  N   UNL     1      33.418 -17.512 -25.883  0.00  0.00    -0.173 N 
ATOM     26  N   UNL     1      33.731 -16.183 -25.933  0.00  0.00    -0.175 NA
ATOM     27  C   UNL     1      32.874 -15.372 -26.465  0.00  0.00    +0.099 C 
ATOM     28  C   UNL     1      32.232 -18.040 -26.372  0.00  0.00    +0.268 C 
ATOM     29  C   UNL     1      31.563 -15.778 -27.005  0.00  0.00    +0.025 C 
ATOM     30  C   UNL     1      31.273 -17.077 -26.951  0.00  0.00    +0.061 C 
BRANCH  27  31
ATOM     31  C   UNL     1      33.205 -13.924 -26.530  0.00  0.00    +0.020 C 
ATOM     32  C   UNL     1      32.968 -13.103 -25.427  0.00  0.00    +0.012 C 
ATOM     33  C   UNL     1      33.755 -13.386 -27.694  0.00  0.00    +0.002 C 
ATOM     34  C   UNL     1      33.279 -11.745 -25.489  0.00  0.00    +0.068 C 
ATOM     35  C   UNL     1      34.066 -12.027 -27.756  0.00  0.00    +0.001 C 
ATOM     36  C   UNL     1      33.829 -11.207 -26.654  0.00  0.00    +0.010 C 
BRANCH  34  38
ATOM     37  N   UNL     1      32.837 -10.219 -23.444  0.00  0.00    -0.191 NA
ATOM     38  C   UNL     1      33.035 -10.903 -24.360  0.00  0.00    +0.100 C 
ENDBRANCH  34  38
ENDBRANCH  27  31
ENDBRANCH  23  25
ENDBRANCH   2  23
TORSDOF 8
ENDMDL
MODEL 4
REMARK VINA RESULT:     -13.1      2.110      2.564
REMARK  Name = 25171648
REMARK  8 active torsions:
REMARK  status: ('A' for Active; 'I' for Inactive)
REMARK    1  A    between atoms: C_1  and  C_12
REMARK    2  A    between atoms: C_2  and  C_23
REMARK    3  A    between atoms: C_9  and  O_13
REMARK    4  A    between atoms: O_13  and  C_14
REMARK    5  A    between atoms: C_14  and  C_16
REMARK    6  A    between atoms: C_23  and  N_25
REMARK    7  A    between atoms: C_27  and  C_31
REMARK    8  A    between atoms: C_34  and  C_38
REMARK                            x       y       z     vdW  Elec       q    Type
REMARK                         _______ _______ _______ _____ _____    ______ ____
ROOT
ATOM      1  C   UNL     1      34.943 -19.686 -20.610  0.00  0.00    +0.062 C 
ATOM      2  C   UNL     1      33.951 -21.596 -19.512  0.00  0.00    +0.000 C 
ATOM      3  C   UNL     1      33.814 -20.426 -20.259  0.00  0.00    +0.007 C 
ATOM      4  C   UNL     1      36.209 -20.116 -20.214  0.00  0.00    +0.010 C 
ATOM      5  C   UNL     1      35.218 -22.025 -19.115  0.00  0.00    -0.003 C 
ATOM      6  C   UNL     1      36.347 -21.286 -19.467  0.00  0.00    +0.000 C 
ENDROOT
BRANCH   1  12
ATOM      7  N   UNL     1      34.923 -17.319 -20.711  0.00  0.00    -0.212 NA
ATOM      8  N   UNL     1      34.559 -18.632 -22.698  0.00  0.00    -0.190 NA
ATOM      9  C   UNL     1      34.535 -16.228 -22.822  0.00  0.00    +0.161 C 
ATOM     10  C   UNL     1      34.784 -16.208 -21.464  0.00  0.00    +0.201 C 
ATOM     11  C   UNL     1      34.432 -17.481 -23.391  0.00  0.00    +0.144 C 
ATOM     12  C   UNL     1      34.800 -18.479 -21.382  0.00  0.00    +0.031 C 
BRANCH   9  13
ATOM     13  O   UNL     1      34.401 -15.077 -23.557  0.00  0.00    -0.476 OA
BRANCH  13  14
ATOM     14  C   UNL     1      33.421 -14.150 -23.129  0.00  0.00    +0.205 C 
BRANCH  14  16
ATOM     15  N   UNL     1      32.667 -10.563 -25.414  0.00  0.00    +0.386 N 
ATOM     16  C   UNL     1      33.670 -12.819 -23.832  0.00  0.00    +0.040 C 
ATOM     17  C   UNL     1      32.809 -11.706 -23.224  0.00  0.00    -0.019 C 
ATOM     18  C   UNL     1      33.389 -12.928 -25.335  0.00  0.00    -0.019 C 
ATOM     19  C   UNL     1      32.978 -10.391 -23.988  0.00  0.00    -0.077 C 
ATOM     20  C   UNL     1      33.540 -11.572 -26.029  0.00  0.00    -0.077 C 
ATOM     21  C   UNL     1      32.784  -9.286 -26.120  0.00  0.00    -0.101 C 
ATOM     22  H   UNL     1      31.705 -10.891 -25.488  0.00  0.00    -0.080 HD
ENDBRANCH  14  16
ENDBRANCH  13  14
ENDBRANCH   9  13
ENDBRANCH   1  12
BRANCH   2  23
ATOM     23  C   UNL     1      32.745 -22.388 -19.135  0.00  0.00    +0.146 C 
BRANCH  23  25
ATOM     24  O   UNL     1      30.446 -22.357 -17.424  0.00  0.00    -0.268 OA
ATOM     25  N   UNL     1      32.722 -22.722 -17.721  0.00  0.00    -0.173 N 
ATOM     26  N   UNL     1      33.934 -23.069 -17.196  0.00  0.00    -0.175 NA
ATOM     27  C   UNL     1      33.993 -23.372 -15.939  0.00  0.00    +0.099 C 
ATOM     28  C   UNL     1      31.550 -22.677 -16.982  0.00  0.00    +0.268 C 
ATOM     29  C   UNL     1      32.831 -23.395 -15.031  0.00  0.00    +0.025 C 
ATOM     30  C   UNL     1      31.657 -23.053 -15.556  0.00  0.00    +0.061 C 
BRANCH  27  31
ATOM     31  C   UNL     1      35.308 -23.746 -15.354  0.00  0.00    +0.020 C 
ATOM     32  C   UNL     1      35.366 -24.610 -14.261  0.00  0.00    +0.012 C 
ATOM     33  C   UNL     1      36.485 -23.234 -15.901  0.00  0.00    +0.002 C 
ATOM     34  C   UNL     1      36.600 -24.960 -13.713  0.00  0.00    +0.068 C 
ATOM     35  C   UNL     1      37.720 -23.584 -15.354  0.00  0.00    +0.001 C 
ATOM     36  C   UNL     1      37.777 -24.448 -14.260  0.00  0.00    +0.010 C 
BRANCH  34  38
ATOM     37  N   UNL     1      36.708 -26.562 -11.681  0.00  0.00    -0.191 NA
ATOM     38  C   UNL     1      36.660 -25.844 -12.592  0.00  0.00    +0.100 C 
ENDBRANCH  34  38
ENDBRANCH  27  31
ENDBRANCH  23  25
ENDBRANCH   2  23
TORSDOF 8
ENDMDL
MODEL 5
REMARK VINA RESULT:     -12.5      3.705     12.163
REMARK  Name = 25171648
REMARK  8 active torsions:
REMARK  status: ('A' for Active; 'I' for Inactive)
REMARK    1  A    between atoms: C_1  and  C_12
REMARK    2  A    between atoms: C_2  and  C_23
REMARK    3  A    between atoms: C_9  and  O_13
REMARK    4  A    between atoms: O_13  and  C_14
REMARK    5  A    between atoms: C_14  and  C_16
REMARK    6  A    between atoms: C_23  and  N_25
REMARK    7  A    between atoms: C_27  and  C_31
REMARK    8  A    between atoms: C_34  and  C_38
REMARK                            x       y       z     vdW  Elec       q    Type
REMARK                         _______ _______ _______ _____ _____    ______ ____
ROOT
ATOM      1  C   UNL     1      33.140 -13.447 -22.032  0.00  0.00    +0.062 C 
ATOM      2  C   UNL     1      32.624 -11.429 -23.257  0.00  0.00    +0.000 C 
ATOM      3  C   UNL     1      33.318 -12.635 -23.153  0.00  0.00    +0.007 C 
ATOM      4  C   UNL     1      32.270 -13.051 -21.016  0.00  0.00    +0.010 C 
ATOM      5  C   UNL     1      31.754 -11.034 -22.241  0.00  0.00    -0.003 C 
ATOM      6  C   UNL     1      31.577 -11.846 -21.121  0.00  0.00    +0.000 C 
ENDROOT
BRANCH   1  12
ATOM      7  N   UNL     1      34.117 -15.129 -20.679  0.00  0.00    -0.212 NA
ATOM      8  N   UNL     1      34.192 -15.294 -23.082  0.00  0.00    -0.190 NA
ATOM      9  C   UNL     1      35.190 -17.013 -21.725  0.00  0.00    +0.161 C 
ATOM     10  C   UNL     1      34.788 -16.298 -20.615  0.00  0.00    +0.201 C 
ATOM     11  C   UNL     1      34.860 -16.457 -22.945  0.00  0.00    +0.144 C 
ATOM     12  C   UNL     1      33.856 -14.691 -21.925  0.00  0.00    +0.031 C 
BRANCH   9  13
ATOM     13  O   UNL     1      35.871 -18.200 -21.622  0.00  0.00    -0.476 OA
BRANCH  13  14
ATOM     14  C   UNL     1      35.153 -19.383 -21.920  0.00  0.00    +0.205 C 
BRANCH  14  16
ATOM     15  N   UNL     1      33.549 -22.272 -19.139  0.00  0.00    +0.386 N 
ATOM     16  C   UNL     1      34.656 -19.992 -20.612  0.00  0.00    +0.040 C 
ATOM     17  C   UNL     1      35.505 -21.204 -20.212  0.00  0.00    -0.019 C 
ATOM     18  C   UNL     1      33.184 -20.404 -20.720  0.00  0.00    -0.019 C 
ATOM     19  C   UNL     1      34.953 -21.881 -18.956  0.00  0.00    -0.077 C 
ATOM     20  C   UNL     1      32.709 -21.107 -19.446  0.00  0.00    -0.077 C 
ATOM     21  C   UNL     1      33.051 -22.963 -17.949  0.00  0.00    -0.101 C 
ATOM     22  H   UNL     1      33.502 -22.912 -19.932  0.00  0.00    -0.080 HD
ENDBRANCH  14  16
ENDBRANCH  13  14
ENDBRANCH   9  13
ENDBRANCH   1  12
BRANCH   2  23
ATOM     23  C   UNL     1      32.813 -10.560 -24.455  0.00  0.00    +0.146 C 
BRANCH  23  25
ATOM     24  O   UNL     1      34.676  -9.649 -26.434  0.00  0.00    -0.268 OA
ATOM     25  N   UNL     1      33.272 -11.309 -25.613  0.00  0.00    -0.173 N 
ATOM     26  N   UNL     1      32.731 -12.557 -25.738  0.00  0.00    -0.175 NA
ATOM     27  C   UNL     1      33.088 -13.280 -26.750  0.00  0.00    +0.099 C 
ATOM     28  C   UNL     1      34.181 -10.773 -26.513  0.00  0.00    +0.268 C 
ATOM     29  C   UNL     1      34.062 -12.860 -27.775  0.00  0.00    +0.025 C 
ATOM     30  C   UNL     1      34.578 -11.641 -27.642  0.00  0.00    +0.061 C 
BRANCH  27  31
ATOM     31  C   UNL     1      32.502 -14.639 -26.900  0.00  0.00    +0.020 C 
ATOM     32  C   UNL     1      33.146 -15.743 -26.340  0.00  0.00    +0.012 C 
ATOM     33  C   UNL     1      31.308 -14.810 -27.601  0.00  0.00    +0.002 C 
ATOM     34  C   UNL     1      32.596 -17.017 -26.481  0.00  0.00    +0.068 C 
ATOM     35  C   UNL     1      30.757 -16.084 -27.741  0.00  0.00    +0.001 C 
ATOM     36  C   UNL     1      31.401 -17.188 -27.181  0.00  0.00    +0.010 C 
BRANCH  34  38
ATOM     37  N   UNL     1      33.791 -19.066 -25.443  0.00  0.00    -0.191 NA
ATOM     38  C   UNL     1      33.255 -18.148 -25.908  0.00  0.00    +0.100 C 
ENDBRANCH  34  38
ENDBRANCH  27  31
ENDBRANCH  23  25
ENDBRANCH   2  23
TORSDOF 8
ENDMDL
MODEL 6
REMARK VINA RESULT:     -12.4      5.046     12.762
REMARK  Name = 25171648
REMARK  8 active torsions:
REMARK  status: ('A' for Active; 'I' for Inactive)
REMARK    1  A    between atoms: C_1  and  C_12
REMARK    2  A    between atoms: C_2  and  C_23
REMARK    3  A    between atoms: C_9  and  O_13
REMARK    4  A    between atoms: O_13  and  C_14
REMARK    5  A    between atoms: C_14  and  C_16
REMARK    6  A    between atoms: C_23  and  N_25
REMARK    7  A    between atoms: C_27  and  C_31
REMARK    8  A    between atoms: C_34  and  C_38
REMARK                            x       y       z     vdW  Elec       q    Type
REMARK                         _______ _______ _______ _____ _____    ______ ____
ROOT
ATOM      1  C   UNL     1      33.193 -13.456 -25.474  0.00  0.00    +0.062 C 
ATOM      2  C   UNL     1      33.131 -11.183 -26.292  0.00  0.00    +0.000 C 
ATOM      3  C   UNL     1      33.585 -12.122 -25.364  0.00  0.00    +0.007 C 
ATOM      4  C   UNL     1      32.347 -13.851 -26.511  0.00  0.00    +0.010 C 
ATOM      5  C   UNL     1      32.285 -11.579 -27.327  0.00  0.00    -0.003 C 
ATOM      6  C   UNL     1      31.894 -12.913 -27.438  0.00  0.00    +0.000 C 
ENDROOT
BRANCH   1  12
ATOM      7  N   UNL     1      33.924 -13.968 -23.279  0.00  0.00    -0.212 NA
ATOM      8  N   UNL     1      33.790 -15.691 -24.959  0.00  0.00    -0.190 NA
ATOM      9  C   UNL     1      34.535 -16.233 -22.735  0.00  0.00    +0.161 C 
ATOM     10  C   UNL     1      34.361 -14.903 -22.409  0.00  0.00    +0.201 C 
ATOM     11  C   UNL     1      34.230 -16.573 -24.037  0.00  0.00    +0.144 C 
ATOM     12  C   UNL     1      33.662 -14.425 -24.518  0.00  0.00    +0.031 C 
BRANCH   9  13
ATOM     13  O   UNL     1      34.981 -17.156 -21.822  0.00  0.00    -0.476 OA
BRANCH  13  14
ATOM     14  C   UNL     1      34.853 -18.521 -22.173  0.00  0.00    +0.205 C 
BRANCH  14  16
ATOM     15  N   UNL     1      33.796 -21.860 -19.645  0.00  0.00    +0.386 N 
ATOM     16  C   UNL     1      34.500 -19.314 -20.918  0.00  0.00    +0.040 C 
ATOM     17  C   UNL     1      35.532 -20.417 -20.656  0.00  0.00    -0.019 C 
ATOM     18  C   UNL     1      33.102 -19.932 -21.031  0.00  0.00    -0.019 C 
ATOM     19  C   UNL     1      35.133 -21.280 -19.457  0.00  0.00    -0.077 C 
ATOM     20  C   UNL     1      32.783 -20.811 -19.819  0.00  0.00    -0.077 C 
ATOM     21  C   UNL     1      33.450 -22.724 -18.515  0.00  0.00    -0.101 C 
ATOM     22  H   UNL     1      33.815 -22.425 -20.494  0.00  0.00    -0.080 HD
ENDBRANCH  14  16
ENDBRANCH  13  14
ENDBRANCH   9  13
ENDBRANCH   1  12
BRANCH   2  23
ATOM     23  C   UNL     1      33.550  -9.756 -26.174  0.00  0.00    +0.146 C 
BRANCH  23  25
ATOM     24  O   UNL     1      32.176  -7.340 -26.874  0.00  0.00    -0.268 OA
ATOM     25  N   UNL     1      32.665  -8.990 -25.312  0.00  0.00    -0.173 N 
ATOM     26  N   UNL     1      32.509  -9.500 -24.055  0.00  0.00    -0.175 NA
ATOM     27  C   UNL     1      31.741  -8.867 -23.228  0.00  0.00    +0.099 C 
ATOM     28  C   UNL     1      32.045  -7.830 -25.752  0.00  0.00    +0.268 C 
ATOM     29  C   UNL     1      30.996  -7.637 -23.556  0.00  0.00    +0.025 C 
ATOM     30  C   UNL     1      31.159  -7.150 -24.784  0.00  0.00    +0.061 C 
BRANCH  27  31
ATOM     31  C   UNL     1      31.567  -9.409 -21.854  0.00  0.00    +0.020 C 
ATOM     32  C   UNL     1      31.635 -10.784 -21.633  0.00  0.00    +0.012 C 
ATOM     33  C   UNL     1      31.338  -8.541 -20.786  0.00  0.00    +0.002 C 
ATOM     34  C   UNL     1      31.472 -11.292 -20.344  0.00  0.00    +0.068 C 
ATOM     35  C   UNL     1      31.175  -9.048 -19.497  0.00  0.00    +0.001 C 
ATOM     36  C   UNL     1      31.243 -10.423 -19.276  0.00  0.00    +0.010 C 
BRANCH  34  38
ATOM     37  N   UNL     1      31.595 -13.845 -19.931  0.00  0.00    -0.191 NA
ATOM     38  C   UNL     1      31.540 -12.701 -20.116  0.00  0.00    +0.100 C 
ENDBRANCH  34  38
ENDBRANCH  27  31
ENDBRANCH  23  25
ENDBRANCH   2  23
TORSDOF 8
ENDMDL
MODEL 7
REMARK VINA RESULT:     -12.4      3.960     12.129
REMARK  Name = 25171648
REMARK  8 active torsions:
REMARK  status: ('A' for Active; 'I' for Inactive)
REMARK    1  A    between atoms: C_1  and  C_12
REMARK    2  A    between atoms: C_2  and  C_23
REMARK    3  A    between atoms: C_9  and  O_13
REMARK    4  A    between atoms: O_13  and  C_14
REMARK    5  A    between atoms: C_14  and  C_16
REMARK    6  A    between atoms: C_23  and  N_25
REMARK    7  A    between atoms: C_27  and  C_31
REMARK    8  A    between atoms: C_34  and  C_38
REMARK                            x       y       z     vdW  Elec       q    Type
REMARK                         _______ _______ _______ _____ _____    ______ ____
ROOT
ATOM      1  C   UNL     1      33.054 -16.292 -25.594  0.00  0.00    +0.062 C 
ATOM      2  C   UNL     1      32.313 -14.478 -27.008  0.00  0.00    +0.000 C 
ATOM      3  C   UNL     1      33.060 -14.936 -25.922  0.00  0.00    +0.007 C 
ATOM      4  C   UNL     1      32.300 -17.189 -26.352  0.00  0.00    +0.010 C 
ATOM      5  C   UNL     1      31.560 -15.375 -27.765  0.00  0.00    -0.003 C 
ATOM      6  C   UNL     1      31.555 -16.731 -27.438  0.00  0.00    +0.000 C 
ENDROOT
BRANCH   1  12
ATOM      7  N   UNL     1      34.137 -15.855 -23.533  0.00  0.00    -0.212 NA
ATOM      8  N   UNL     1      34.154 -18.071 -24.479  0.00  0.00    -0.190 NA
ATOM      9  C   UNL     1      35.261 -17.648 -22.384  0.00  0.00    +0.161 C 
ATOM     10  C   UNL     1      34.859 -16.332 -22.498  0.00  0.00    +0.201 C 
ATOM     11  C   UNL     1      34.875 -18.480 -23.415  0.00  0.00    +0.144 C 
ATOM     12  C   UNL     1      33.824 -16.765 -24.474  0.00  0.00    +0.031 C 
BRANCH   9  13
ATOM     13  O   UNL     1      35.995 -18.099 -21.315  0.00  0.00    -0.476 OA
BRANCH  13  14
ATOM     14  C   UNL     1      36.256 -19.488 -21.254  0.00  0.00    +0.205 C 
BRANCH  14  16
ATOM     15  N   UNL     1      33.930 -22.366 -19.026  0.00  0.00    +0.386 N 
ATOM     16  C   UNL     1      35.413 -20.092 -20.135  0.00  0.00    +0.040 C 
ATOM     17  C   UNL     1      36.112 -21.306 -19.513  0.00  0.00    -0.019 C 
ATOM     18  C   UNL     1      34.027 -20.500 -20.648  0.00  0.00    -0.019 C 
ATOM     19  C   UNL     1      35.229 -21.978 -18.459  0.00  0.00    -0.077 C 
ATOM     20  C   UNL     1      33.213 -21.198 -19.556  0.00  0.00    -0.077 C 
ATOM     21  C   UNL     1      33.118 -23.052 -18.020  0.00  0.00    -0.101 C 
ATOM     22  H   UNL     1      34.103 -23.007 -19.799  0.00  0.00    -0.080 HD
ENDBRANCH  14  16
ENDBRANCH  13  14
ENDBRANCH   9  13
ENDBRANCH   1  12
BRANCH   2  23
ATOM     23  C   UNL     1      32.318 -13.028 -27.359  0.00  0.00    +0.146 C 
BRANCH  23  25
ATOM     24  O   UNL     1      34.760 -11.599 -27.817  0.00  0.00    -0.268 OA
ATOM     25  N   UNL     1      33.040 -12.227 -26.385  0.00  0.00    -0.173 N 
ATOM     26  N   UNL     1      32.472 -12.187 -25.143  0.00  0.00    -0.175 NA
ATOM     27  C   UNL     1      33.064 -11.498 -24.221  0.00  0.00    +0.099 C 
ATOM     28  C   UNL     1      34.218 -11.571 -26.712  0.00  0.00    +0.268 C 
ATOM     29  C   UNL     1      34.306 -10.727 -24.422  0.00  0.00    +0.025 C 
ATOM     30  C   UNL     1      34.849 -10.778 -25.636  0.00  0.00    +0.061 C 
BRANCH  27  31
ATOM     31  C   UNL     1      32.459 -11.450 -22.864  0.00  0.00    +0.020 C 
ATOM     32  C   UNL     1      32.217 -10.221 -22.250  0.00  0.00    +0.012 C 
ATOM     33  C   UNL     1      32.131 -12.636 -22.205  0.00  0.00    +0.002 C 
ATOM     34  C   UNL     1      31.648 -10.178 -20.977  0.00  0.00    +0.068 C 
ATOM     35  C   UNL     1      31.562 -12.593 -20.932  0.00  0.00    +0.001 C 
ATOM     36  C   UNL     1      31.320 -11.364 -20.318  0.00  0.00    +0.010 C 
BRANCH  34  38
ATOM     37  N   UNL     1      31.199  -7.897 -19.835  0.00  0.00    -0.191 NA
ATOM     38  C   UNL     1      31.400  -8.919 -20.347  0.00  0.00    +0.100 C 
ENDBRANCH  34  38
ENDBRANCH  27  31
ENDBRANCH  23  25
ENDBRANCH   2  23
TORSDOF 8
ENDMDL
MODEL 8
REMARK VINA RESULT:     -12.4      3.223     12.899
REMARK  Name = 25171648
REMARK  8 active torsions:
REMARK  status: ('A' for Active; 'I' for Inactive)
REMARK    1  A    between atoms: C_1  and  C_12
REMARK    2  A    between atoms: C_2  and  C_23
REMARK    3  A    between atoms: C_9  and  O_13
REMARK    4  A    between atoms: O_13  and  C_14
REMARK    5  A    between atoms: C_14  and  C_16
REMARK    6  A    between atoms: C_23  and  N_25
REMARK    7  A    between atoms: C_27  and  C_31
REMARK    8  A    between atoms: C_34  and  C_38
REMARK                            x       y       z     vdW  Elec       q    Type
REMARK                         _______ _______ _______ _____ _____    ______ ____
ROOT
ATOM      1  C   UNL     1      34.564 -18.457 -21.524  0.00  0.00    +0.062 C 
ATOM      2  C   UNL     1      34.647 -16.046 -21.669  0.00  0.00    +0.000 C 
ATOM      3  C   UNL     1      34.539 -17.208 -20.903  0.00  0.00    +0.007 C 
ATOM      4  C   UNL     1      34.695 -18.544 -22.910  0.00  0.00    +0.010 C 
ATOM      5  C   UNL     1      34.778 -16.134 -23.055  0.00  0.00    -0.003 C 
ATOM      6  C   UNL     1      34.804 -17.383 -23.675  0.00  0.00    +0.000 C 
ENDROOT
BRANCH   1  12
ATOM      7  N   UNL     1      33.212 -20.142 -20.552  0.00  0.00    -0.212 NA
ATOM      8  N   UNL     1      35.603 -20.170 -20.258  0.00  0.00    -0.190 NA
ATOM      9  C   UNL     1      34.247 -21.891 -19.261  0.00  0.00    +0.161 C 
ATOM     10  C   UNL     1      33.145 -21.266 -19.807  0.00  0.00    +0.201 C 
ATOM     11  C   UNL     1      35.463 -21.292 -19.523  0.00  0.00    +0.144 C 
ATOM     12  C   UNL     1      34.453 -19.655 -20.734  0.00  0.00    +0.031 C 
BRANCH   9  13
ATOM     13  O   UNL     1      34.142 -23.034 -18.509  0.00  0.00    -0.476 OA
BRANCH  13  14
ATOM     14  C   UNL     1      33.126 -23.066 -17.524  0.00  0.00    +0.205 C 
BRANCH  14  16
ATOM     15  N   UNL     1      34.614 -23.424 -13.485  0.00  0.00    +0.386 N 
ATOM     16  C   UNL     1      33.697 -23.695 -16.257  0.00  0.00    +0.040 C 
ATOM     17  C   UNL     1      32.727 -23.539 -15.080  0.00  0.00    -0.019 C 
ATOM     18  C   UNL     1      35.052 -23.077 -15.895  0.00  0.00    -0.019 C 
ATOM     19  C   UNL     1      33.333 -24.079 -13.783  0.00  0.00    -0.077 C 
ATOM     20  C   UNL     1      35.581 -23.632 -14.571  0.00  0.00    -0.077 C 
ATOM     21  C   UNL     1      35.155 -23.913 -12.217  0.00  0.00    -0.101 C 
ATOM     22  H   UNL     1      34.443 -22.422 -13.403  0.00  0.00    -0.080 HD
ENDBRANCH  14  16
ENDBRANCH  13  14
ENDBRANCH   9  13
ENDBRANCH   1  12
BRANCH   2  23
ATOM     23  C   UNL     1      34.620 -14.710 -21.006  0.00  0.00    +0.146 C 
BRANCH  23  25
ATOM     24  O   UNL     1      32.202 -13.774 -19.785  0.00  0.00    -0.268 OA
ATOM     25  N   UNL     1      33.645 -13.815 -21.606  0.00  0.00    -0.173 N 
ATOM     26  N   UNL     1      33.944 -13.414 -22.877  0.00  0.00    -0.175 NA
ATOM     27  C   UNL     1      33.117 -12.621 -23.479  0.00  0.00    +0.099 C 
ATOM     28  C   UNL     1      32.504 -13.420 -20.925  0.00  0.00    +0.268 C 
ATOM     29  C   UNL     1      31.877 -12.095 -22.878  0.00  0.00    +0.025 C 
ATOM     30  C   UNL     1      31.598 -12.496 -21.640  0.00  0.00    +0.061 C 
BRANCH  27  31
ATOM     31  C   UNL     1      33.428 -12.182 -24.866  0.00  0.00    +0.020 C 
ATOM     32  C   UNL     1      33.975 -10.919 -25.092  0.00  0.00    +0.012 C 
ATOM     33  C   UNL     1      33.173 -13.034 -25.941  0.00  0.00    +0.002 C 
ATOM     34  C   UNL     1      34.267 -10.508 -26.392  0.00  0.00    +0.068 C 
ATOM     35  C   UNL     1      33.465 -12.623 -27.242  0.00  0.00    +0.001 C 
ATOM     36  C   UNL     1      34.012 -11.360 -27.468  0.00  0.00    +0.010 C 
BRANCH  34  38
ATOM     37  N   UNL     1      35.281  -8.162 -26.813  0.00  0.00    -0.191 NA
ATOM     38  C   UNL     1      34.827  -9.214 -26.625  0.00  0.00    +0.100 C 
ENDBRANCH  34  38
ENDBRANCH  27  31
ENDBRANCH  23  25
ENDBRANCH   2  23
TORSDOF 8
ENDMDL
MODEL 9
REMARK VINA RESULT:     -12.1      4.815     12.822
REMARK  Name = 25171648
REMARK  8 active torsions:
REMARK  status: ('A' for Active; 'I' for Inactive)
REMARK    1  A    between atoms: C_1  and  C_12
REMARK    2  A    between atoms: C_2  and  C_23
REMARK    3  A    between atoms: C_9  and  O_13
REMARK    4  A    between atoms: O_13  and  C_14
REMARK    5  A    between atoms: C_14  and  C_16
REMARK    6  A    between atoms: C_23  and  N_25
REMARK    7  A    between atoms: C_27  and  C_31
REMARK    8  A    between atoms: C_34  and  C_38
REMARK                            x       y       z     vdW  Elec       q    Type
REMARK                         _______ _______ _______ _____ _____    ______ ____
ROOT
ATOM      1  C   UNL     1      33.331 -14.958 -25.587  0.00  0.00    +0.062 C 
ATOM      2  C   UNL     1      32.537 -12.923 -26.621  0.00  0.00    +0.000 C 
ATOM      3  C   UNL     1      33.019 -13.601 -25.501  0.00  0.00    +0.007 C 
ATOM      4  C   UNL     1      33.160 -15.637 -26.794  0.00  0.00    +0.010 C 
ATOM      5  C   UNL     1      32.367 -13.603 -27.827  0.00  0.00    -0.003 C 
ATOM      6  C   UNL     1      32.680 -14.959 -27.914  0.00  0.00    +0.000 C 
ENDROOT
BRANCH   1  12
ATOM      7  N   UNL     1      34.103 -14.908 -23.348  0.00  0.00    -0.212 NA
ATOM      8  N   UNL     1      33.969 -16.992 -24.550  0.00  0.00    -0.190 NA
ATOM      9  C   UNL     1      34.756 -16.962 -22.276  0.00  0.00    +0.161 C 
ATOM     10  C   UNL     1      34.567 -15.595 -22.283  0.00  0.00    +0.201 C 
ATOM     11  C   UNL     1      34.436 -17.615 -23.449  0.00  0.00    +0.144 C 
ATOM     12  C   UNL     1      33.829 -15.657 -24.431  0.00  0.00    +0.031 C 
BRANCH   9  13
ATOM     13  O   UNL     1      35.229 -17.629 -21.173  0.00  0.00    -0.476 OA
BRANCH  13  14
ATOM     14  C   UNL     1      36.058 -18.752 -21.406  0.00  0.00    +0.205 C 
BRANCH  14  16
ATOM     15  N   UNL     1      33.809 -21.534 -18.985  0.00  0.00    +0.386 N 
ATOM     16  C   UNL     1      35.298 -20.011 -21.001  0.00  0.00    +0.040 C 
ATOM     17  C   UNL     1      33.849 -19.681 -20.625  0.00  0.00    -0.019 C 
ATOM     18  C   UNL     1      35.987 -20.720 -19.831  0.00  0.00    -0.019 C 
ATOM     19  C   UNL     1      33.108 -20.922 -20.122  0.00  0.00    -0.077 C 
ATOM     20  C   UNL     1      35.176 -21.927 -19.355  0.00  0.00    -0.077 C 
ATOM     21  C   UNL     1      33.062 -22.688 -18.484  0.00  0.00    -0.101 C 
ATOM     22  H   UNL     1      33.872 -20.837 -18.243  0.00  0.00    -0.080 HD
ENDBRANCH  14  16
ENDBRANCH  13  14
ENDBRANCH   9  13
ENDBRANCH   1  12
BRANCH   2  23
ATOM     23  C   UNL     1      32.203 -11.472 -26.529  0.00  0.00    +0.146 C 
BRANCH  23  25
ATOM     24  O   UNL     1      34.971 -11.208 -27.225  0.00  0.00    -0.268 OA
ATOM     25  N   UNL     1      33.206 -10.721 -25.793  0.00  0.00    -0.173 N 
ATOM     26  N   UNL     1      32.745 -10.106 -24.664  0.00  0.00    -0.175 NA
ATOM     27  C   UNL     1      33.584  -9.423 -23.953  0.00  0.00    +0.099 C 
ATOM     28  C   UNL     1      34.524 -10.655 -26.220  0.00  0.00    +0.268 C 
ATOM     29  C   UNL     1      35.008  -9.240 -24.289  0.00  0.00    +0.025 C 
ATOM     30  C   UNL     1      35.444  -9.847 -25.391  0.00  0.00    +0.061 C 
BRANCH  27  31
ATOM     31  C   UNL     1      33.096  -8.753 -22.719  0.00  0.00    +0.020 C 
ATOM     32  C   UNL     1      32.543  -9.509 -21.685  0.00  0.00    +0.012 C 
ATOM     33  C   UNL     1      33.192  -7.367 -22.594  0.00  0.00    +0.002 C 
ATOM     34  C   UNL     1      32.085  -8.879 -20.528  0.00  0.00    +0.068 C 
ATOM     35  C   UNL     1      32.735  -6.737 -21.436  0.00  0.00    +0.001 C 
ATOM     36  C   UNL     1      32.182  -7.493 -20.403  0.00  0.00    +0.010 C 
BRANCH  34  38
ATOM     37  N   UNL     1      31.057 -10.282 -18.609  0.00  0.00    -0.191 NA
ATOM     38  C   UNL     1      31.518  -9.654 -19.469  0.00  0.00    +0.100 C 
ENDBRANCH  34  38
ENDBRANCH  27  31
ENDBRANCH  23  25
ENDBRANCH   2  23
TORSDOF 8
ENDMDL
