MODEL 1
REMARK VINA RESULT:     -13.1      0.000      0.000
REMARK  Name = 16750097
REMARK  3 active torsions:
REMARK  status: ('A' for Active; 'I' for Inactive)
REMARK    1  A    between atoms: N_3  and  C_10
REMARK    2  A    between atoms: N_3  and  C_23
REMARK    3  A    between atoms: C_23  and  C_24
REMARK                            x       y       z     vdW  Elec       q    Type
REMARK                         _______ _______ _______ _____ _____    ______ ____
ROOT
ATOM      1  O   UNL     1      36.355 -22.234 -17.986  0.00  0.00    -0.209 OA
ATOM      2  N   UNL     1      35.701 -19.004 -22.078  0.00  0.00    -0.305 N 
ATOM      3  N   UNL     1      33.524 -18.897 -22.512  0.00  0.00    -0.305 N 
ATOM      4  N   UNL     1      32.443 -22.003 -18.813  0.00  0.00    -0.275 N 
ATOM      5  N   UNL     1      34.215 -22.877 -17.486  0.00  0.00    -0.302 NA
ATOM      6  N   UNL     1      31.976 -23.446 -17.093  0.00  0.00    -0.320 N 
ATOM      7  C   UNL     1      35.102 -19.819 -21.152  0.00  0.00    +0.061 C 
ATOM      8  C   UNL     1      33.744 -19.734 -21.443  0.00  0.00    +0.061 C 
ATOM      9  C   UNL     1      34.717 -18.476 -22.868  0.00  0.00    +0.208 C 
ATOM     10  C   UNL     1      33.314 -21.259 -19.615  0.00  0.00    +0.064 C 
ATOM     11  C   UNL     1      34.691 -21.317 -19.352  0.00  0.00    +0.110 C 
ATOM     12  C   UNL     1      35.622 -20.597 -20.116  0.00  0.00    +0.030 C 
ATOM     13  C   UNL     1      32.828 -20.463 -20.666  0.00  0.00    +0.031 C 
ATOM     14  C   UNL     1      35.152 -22.177 -18.224  0.00  0.00    +0.208 C 
ATOM     15  C   UNL     1      32.947 -22.773 -17.790  0.00  0.00    +0.248 C 
ATOM     16  H   UNL     1      36.665 -18.830 -22.161  0.00  0.00    +0.150 HD
ATOM     17  H   UNL     1      32.660 -18.663 -22.921  0.00  0.00    +0.150 HD
ATOM     18  H   UNL     1      31.474 -21.976 -18.980  0.00  0.00    +0.156 HD
ATOM     19  H   UNL     1      31.030 -23.346 -17.346  0.00  0.00    +0.146 HD
ATOM     20  H   UNL     1      32.226 -24.028 -16.339  0.00  0.00    +0.146 HD
ENDROOT
BRANCH   9  21
ATOM     21  N   UNL     1      35.076 -17.635 -23.862  0.00  0.00    -0.263 NA
ATOM     22  H   UNL     1      36.024 -17.377 -23.925  0.00  0.00    +0.127 HD
BRANCH  21  23
ATOM     23  C   UNL     1      34.161 -17.086 -24.846  0.00  0.00    +0.098 C 
BRANCH  23  24
ATOM     24  C   UNL     1      33.907 -15.629 -24.575  0.00  0.00    -0.006 C 
ATOM     25  C   UNL     1      33.321 -14.785 -25.532  0.00  0.00    -0.003 C 
ATOM     26  C   UNL     1      33.109 -13.421 -25.215  0.00  0.00    -0.000 C 
ATOM     27  C   UNL     1      34.280 -15.136 -23.324  0.00  0.00    -0.003 C 
ATOM     28  C   UNL     1      32.940 -15.262 -26.796  0.00  0.00    -0.000 C 
ATOM     29  C   UNL     1      33.491 -12.943 -23.951  0.00  0.00    -0.000 C 
ATOM     30  C   UNL     1      34.072 -13.797 -23.012  0.00  0.00    -0.000 C 
ATOM     31  C   UNL     1      32.523 -12.577 -26.171  0.00  0.00    -0.000 C 
ATOM     32  C   UNL     1      32.359 -14.409 -27.735  0.00  0.00    -0.000 C 
ATOM     33  C   UNL     1      32.150 -13.068 -27.422  0.00  0.00    -0.000 C 
ENDBRANCH  23  24
ENDBRANCH  21  23
ENDBRANCH   9  21
TORSDOF 3
ENDMDL
MODEL 2
REMARK VINA RESULT:     -13.0      0.947      2.056
REMARK  Name = 16750097
REMARK  3 active torsions:
REMARK  status: ('A' for Active; 'I' for Inactive)
REMARK    1  A    between atoms: N_3  and  C_10
REMARK    2  A    between atoms: N_3  and  C_23
REMARK    3  A    between atoms: C_23  and  C_24
REMARK                            x       y       z     vdW  Elec       q    Type
REMARK                         _______ _______ _______ _____ _____    ______ ____
ROOT
ATOM      1  O   UNL     1      36.348 -22.244 -17.984  0.00  0.00    -0.209 OA
ATOM      2  N   UNL     1      35.615 -19.081 -22.116  0.00  0.00    -0.305 N 
ATOM      3  N   UNL     1      33.432 -18.983 -22.511  0.00  0.00    -0.305 N 
ATOM      4  N   UNL     1      32.421 -22.028 -18.743  0.00  0.00    -0.275 N 
ATOM      5  N   UNL     1      34.217 -22.880 -17.435  0.00  0.00    -0.302 NA
ATOM      6  N   UNL     1      31.987 -23.443 -16.991  0.00  0.00    -0.320 N 
ATOM      7  C   UNL     1      35.035 -19.881 -21.165  0.00  0.00    +0.061 C 
ATOM      8  C   UNL     1      33.672 -19.803 -21.433  0.00  0.00    +0.061 C 
ATOM      9  C   UNL     1      34.618 -18.567 -22.896  0.00  0.00    +0.208 C 
ATOM     10  C   UNL     1      33.276 -21.297 -19.573  0.00  0.00    +0.064 C 
ATOM     11  C   UNL     1      34.658 -21.350 -19.334  0.00  0.00    +0.110 C 
ATOM     12  C   UNL     1      35.574 -20.642 -20.126  0.00  0.00    +0.030 C 
ATOM     13  C   UNL     1      32.770 -20.519 -20.628  0.00  0.00    +0.031 C 
ATOM     14  C   UNL     1      35.141 -22.191 -18.201  0.00  0.00    +0.208 C 
ATOM     15  C   UNL     1      32.945 -22.781 -17.718  0.00  0.00    +0.248 C 
ATOM     16  H   UNL     1      36.579 -18.907 -22.219  0.00  0.00    +0.150 HD
ATOM     17  H   UNL     1      32.560 -18.756 -22.909  0.00  0.00    +0.150 HD
ATOM     18  H   UNL     1      31.449 -22.005 -18.893  0.00  0.00    +0.156 HD
ATOM     19  H   UNL     1      31.036 -23.349 -17.229  0.00  0.00    +0.146 HD
ATOM     20  H   UNL     1      32.251 -24.013 -16.233  0.00  0.00    +0.146 HD
ENDROOT
BRANCH   9  21
ATOM     21  N   UNL     1      34.957 -17.742 -23.910  0.00  0.00    -0.263 NA
ATOM     22  H   UNL     1      35.706 -18.013 -24.490  0.00  0.00    +0.127 HD
BRANCH  21  23
ATOM     23  C   UNL     1      34.294 -16.485 -24.206  0.00  0.00    +0.098 C 
BRANCH  23  24
ATOM     24  C   UNL     1      33.316 -16.657 -25.334  0.00  0.00    -0.006 C 
ATOM     25  C   UNL     1      32.822 -15.564 -26.065  0.00  0.00    -0.003 C 
ATOM     26  C   UNL     1      31.902 -15.793 -27.116  0.00  0.00    -0.000 C 
ATOM     27  C   UNL     1      32.908 -17.957 -25.636  0.00  0.00    -0.003 C 
ATOM     28  C   UNL     1      33.220 -14.249 -25.775  0.00  0.00    -0.000 C 
ATOM     29  C   UNL     1      31.503 -17.108 -27.405  0.00  0.00    -0.000 C 
ATOM     30  C   UNL     1      32.005 -18.182 -26.669  0.00  0.00    -0.000 C 
ATOM     31  C   UNL     1      31.409 -14.700 -27.847  0.00  0.00    -0.000 C 
ATOM     32  C   UNL     1      32.719 -13.174 -26.511  0.00  0.00    -0.000 C 
ATOM     33  C   UNL     1      31.815 -13.400 -27.546  0.00  0.00    -0.000 C 
ENDBRANCH  23  24
ENDBRANCH  21  23
ENDBRANCH   9  21
TORSDOF 3
ENDMDL
MODEL 3
REMARK VINA RESULT:     -12.9      3.740     11.163
REMARK  Name = 16750097
REMARK  3 active torsions:
REMARK  status: ('A' for Active; 'I' for Inactive)
REMARK    1  A    between atoms: N_3  and  C_10
REMARK    2  A    between atoms: N_3  and  C_23
REMARK    3  A    between atoms: C_23  and  C_24
REMARK                            x       y       z     vdW  Elec       q    Type
REMARK                         _______ _______ _______ _____ _____    ______ ____
ROOT
ATOM      1  O   UNL     1      37.366 -19.024 -21.381  0.00  0.00    -0.209 OA
ATOM      2  N   UNL     1      35.093 -22.376 -18.032  0.00  0.00    -0.305 N 
ATOM      3  N   UNL     1      32.921 -22.423 -18.495  0.00  0.00    -0.305 N 
ATOM      4  N   UNL     1      33.441 -19.149 -22.170  0.00  0.00    -0.275 N 
ATOM      5  N   UNL     1      35.608 -18.289 -22.651  0.00  0.00    -0.302 NA
ATOM      6  N   UNL     1      33.716 -17.629 -23.866  0.00  0.00    -0.320 N 
ATOM      7  C   UNL     1      34.923 -21.507 -19.080  0.00  0.00    +0.061 C 
ATOM      8  C   UNL     1      33.559 -21.555 -19.351  0.00  0.00    +0.061 C 
ATOM      9  C   UNL     1      33.869 -22.897 -17.718  0.00  0.00    +0.208 C 
ATOM     10  C   UNL     1      33.912 -19.952 -21.127  0.00  0.00    +0.064 C 
ATOM     11  C   UNL     1      35.282 -19.932 -20.824  0.00  0.00    +0.110 C 
ATOM     12  C   UNL     1      35.823 -20.711 -19.791  0.00  0.00    +0.030 C 
ATOM     13  C   UNL     1      33.037 -20.767 -20.390  0.00  0.00    +0.031 C 
ATOM     14  C   UNL     1      36.166 -19.048 -21.637  0.00  0.00    +0.208 C 
ATOM     15  C   UNL     1      34.321 -18.361 -22.875  0.00  0.00    +0.248 C 
ATOM     16  H   UNL     1      35.944 -22.587 -17.585  0.00  0.00    +0.150 HD
ATOM     17  H   UNL     1      31.961 -22.641 -18.470  0.00  0.00    +0.150 HD
ATOM     18  H   UNL     1      32.484 -19.148 -22.400  0.00  0.00    +0.156 HD
ATOM     19  H   UNL     1      32.745 -17.705 -24.010  0.00  0.00    +0.146 HD
ATOM     20  H   UNL     1      34.253 -17.029 -24.432  0.00  0.00    +0.146 HD
ENDROOT
BRANCH   9  21
ATOM     21  N   UNL     1      33.792 -23.786 -16.704  0.00  0.00    -0.263 NA
ATOM     22  H   UNL     1      33.388 -24.664 -16.894  0.00  0.00    +0.127 HD
BRANCH  21  23
ATOM     23  C   UNL     1      34.264 -23.537 -15.353  0.00  0.00    +0.098 C 
BRANCH  23  24
ATOM     24  C   UNL     1      35.286 -24.565 -14.954  0.00  0.00    -0.006 C 
ATOM     25  C   UNL     1      36.181 -24.351 -13.894  0.00  0.00    -0.003 C 
ATOM     26  C   UNL     1      37.121 -25.359 -13.568  0.00  0.00    -0.000 C 
ATOM     27  C   UNL     1      35.316 -25.754 -15.683  0.00  0.00    -0.003 C 
ATOM     28  C   UNL     1      36.166 -23.160 -13.150  0.00  0.00    -0.000 C 
ATOM     29  C   UNL     1      37.137 -26.550 -14.312  0.00  0.00    -0.000 C 
ATOM     30  C   UNL     1      36.239 -26.745 -15.362  0.00  0.00    -0.000 C 
ATOM     31  C   UNL     1      38.016 -25.146 -12.508  0.00  0.00    -0.000 C 
ATOM     32  C   UNL     1      37.064 -22.965 -12.100  0.00  0.00    -0.000 C 
ATOM     33  C   UNL     1      37.987 -23.957 -11.779  0.00  0.00    -0.000 C 
ENDBRANCH  23  24
ENDBRANCH  21  23
ENDBRANCH   9  21
TORSDOF 3
ENDMDL
MODEL 4
REMARK VINA RESULT:     -12.7      1.316      2.070
REMARK  Name = 16750097
REMARK  3 active torsions:
REMARK  status: ('A' for Active; 'I' for Inactive)
REMARK    1  A    between atoms: N_3  and  C_10
REMARK    2  A    between atoms: N_3  and  C_23
REMARK    3  A    between atoms: C_23  and  C_24
REMARK                            x       y       z     vdW  Elec       q    Type
REMARK                         _______ _______ _______ _____ _____    ______ ____
ROOT
ATOM      1  O   UNL     1      32.619 -22.181 -19.286  0.00  0.00    -0.209 OA
ATOM      2  N   UNL     1      33.924 -18.710 -23.009  0.00  0.00    -0.305 N 
ATOM      3  N   UNL     1      36.047 -18.140 -22.686  0.00  0.00    -0.305 N 
ATOM      4  N   UNL     1      36.443 -21.117 -18.752  0.00  0.00    -0.275 N 
ATOM      5  N   UNL     1      34.551 -22.392 -18.075  0.00  0.00    -0.302 NA
ATOM      6  N   UNL     1      36.593 -22.505 -16.933  0.00  0.00    -0.320 N 
ATOM      7  C   UNL     1      34.332 -19.424 -21.911  0.00  0.00    +0.061 C 
ATOM      8  C   UNL     1      35.660 -19.052 -21.731  0.00  0.00    +0.061 C 
ATOM      9  C   UNL     1      34.983 -17.957 -23.435  0.00  0.00    +0.208 C 
ATOM     10  C   UNL     1      35.758 -20.533 -19.821  0.00  0.00    +0.064 C 
ATOM     11  C   UNL     1      34.417 -20.884 -20.037  0.00  0.00    +0.110 C 
ATOM     12  C   UNL     1      33.668 -20.337 -21.089  0.00  0.00    +0.030 C 
ATOM     13  C   UNL     1      36.393 -19.611 -20.670  0.00  0.00    +0.031 C 
ATOM     14  C   UNL     1      33.792 -21.867 -19.105  0.00  0.00    +0.208 C 
ATOM     15  C   UNL     1      35.796 -22.017 -17.937  0.00  0.00    +0.248 C 
ATOM     16  H   UNL     1      33.029 -18.733 -23.417  0.00  0.00    +0.150 HD
ATOM     17  H   UNL     1      36.930 -17.716 -22.786  0.00  0.00    +0.150 HD
ATOM     18  H   UNL     1      37.385 -20.886 -18.583  0.00  0.00    +0.156 HD
ATOM     19  H   UNL     1      37.527 -22.203 -16.855  0.00  0.00    +0.146 HD
ATOM     20  H   UNL     1      36.231 -23.156 -16.289  0.00  0.00    +0.146 HD
ENDROOT
BRANCH   9  21
ATOM     21  N   UNL     1      34.812 -17.164 -24.515  0.00  0.00    -0.263 NA
ATOM     22  H   UNL     1      35.600 -16.973 -25.073  0.00  0.00    +0.127 HD
BRANCH  21  23
ATOM     23  C   UNL     1      33.546 -16.572 -24.909  0.00  0.00    +0.098 C 
BRANCH  23  24
ATOM     24  C   UNL     1      33.543 -15.095 -24.627  0.00  0.00    -0.006 C 
ATOM     25  C   UNL     1      33.135 -14.154 -25.585  0.00  0.00    -0.003 C 
ATOM     26  C   UNL     1      33.155 -12.777 -25.257  0.00  0.00    -0.000 C 
ATOM     27  C   UNL     1      33.967 -14.684 -23.362  0.00  0.00    -0.003 C 
ATOM     28  C   UNL     1      32.706 -14.549 -26.863  0.00  0.00    -0.000 C 
ATOM     29  C   UNL     1      33.585 -12.382 -23.979  0.00  0.00    -0.000 C 
ATOM     30  C   UNL     1      33.987 -13.332 -23.039  0.00  0.00    -0.000 C 
ATOM     31  C   UNL     1      32.747 -11.836 -26.216  0.00  0.00    -0.000 C 
ATOM     32  C   UNL     1      32.304 -13.599 -27.804  0.00  0.00    -0.000 C 
ATOM     33  C   UNL     1      32.324 -12.246 -27.480  0.00  0.00    -0.000 C 
ENDBRANCH  23  24
ENDBRANCH  21  23
ENDBRANCH   9  21
TORSDOF 3
ENDMDL
MODEL 5
REMARK VINA RESULT:     -12.7      2.991      9.621
REMARK  Name = 16750097
REMARK  3 active torsions:
REMARK  status: ('A' for Active; 'I' for Inactive)
REMARK    1  A    between atoms: N_3  and  C_10
REMARK    2  A    between atoms: N_3  and  C_23
REMARK    3  A    between atoms: C_23  and  C_24
REMARK                            x       y       z     vdW  Elec       q    Type
REMARK                         _______ _______ _______ _____ _____    ______ ____
ROOT
ATOM      1  O   UNL     1      33.924 -13.595 -23.818  0.00  0.00    -0.209 OA
ATOM      2  N   UNL     1      35.366 -17.772 -20.975  0.00  0.00    -0.305 N 
ATOM      3  N   UNL     1      34.958 -19.587 -22.189  0.00  0.00    -0.305 N 
ATOM      4  N   UNL     1      33.210 -16.902 -25.961  0.00  0.00    -0.275 N 
ATOM      5  N   UNL     1      33.156 -14.531 -25.762  0.00  0.00    -0.302 NA
ATOM      6  N   UNL     1      32.405 -15.628 -27.690  0.00  0.00    -0.320 N 
ATOM      7  C   UNL     1      34.840 -17.313 -22.156  0.00  0.00    +0.061 C 
ATOM      8  C   UNL     1      34.595 -18.464 -22.897  0.00  0.00    +0.061 C 
ATOM      9  C   UNL     1      35.416 -19.136 -21.043  0.00  0.00    +0.208 C 
ATOM     10  C   UNL     1      33.758 -17.069 -24.686  0.00  0.00    +0.064 C 
ATOM     11  C   UNL     1      34.021 -15.931 -23.909  0.00  0.00    +0.110 C 
ATOM     12  C   UNL     1      34.569 -16.024 -22.621  0.00  0.00    +0.030 C 
ATOM     13  C   UNL     1      34.045 -18.350 -24.185  0.00  0.00    +0.031 C 
ATOM     14  C   UNL     1      33.697 -14.596 -24.490  0.00  0.00    +0.208 C 
ATOM     15  C   UNL     1      32.940 -15.636 -26.427  0.00  0.00    +0.248 C 
ATOM     16  H   UNL     1      35.655 -17.219 -20.214  0.00  0.00    +0.150 HD
ATOM     17  H   UNL     1      34.890 -20.526 -22.479  0.00  0.00    +0.150 HD
ATOM     18  H   UNL     1      33.019 -17.686 -26.524  0.00  0.00    +0.156 HD
ATOM     19  H   UNL     1      32.253 -16.477 -28.165  0.00  0.00    +0.146 HD
ATOM     20  H   UNL     1      32.172 -14.774 -28.121  0.00  0.00    +0.146 HD
ENDROOT
BRANCH   9  21
ATOM     21  N   UNL     1      35.903 -19.813 -19.980  0.00  0.00    -0.263 NA
ATOM     22  H   UNL     1      36.168 -19.293 -19.188  0.00  0.00    +0.127 HD
BRANCH  21  23
ATOM     23  C   UNL     1      36.060 -21.256 -19.925  0.00  0.00    +0.098 C 
BRANCH  23  24
ATOM     24  C   UNL     1      35.076 -21.857 -18.960  0.00  0.00    -0.006 C 
ATOM     25  C   UNL     1      35.447 -22.245 -17.663  0.00  0.00    -0.003 C 
ATOM     26  C   UNL     1      34.473 -22.806 -16.802  0.00  0.00    -0.000 C 
ATOM     27  C   UNL     1      33.763 -22.021 -19.404  0.00  0.00    -0.003 C 
ATOM     28  C   UNL     1      36.764 -22.089 -17.200  0.00  0.00    -0.000 C 
ATOM     29  C   UNL     1      33.157 -22.963 -17.266  0.00  0.00    -0.000 C 
ATOM     30  C   UNL     1      32.805 -22.571 -18.559  0.00  0.00    -0.000 C 
ATOM     31  C   UNL     1      34.844 -23.194 -15.505  0.00  0.00    -0.000 C 
ATOM     32  C   UNL     1      37.115 -22.481 -15.907  0.00  0.00    -0.000 C 
ATOM     33  C   UNL     1      36.156 -23.032 -15.061  0.00  0.00    -0.000 C 
ENDBRANCH  23  24
ENDBRANCH  21  23
ENDBRANCH   9  21
TORSDOF 3
ENDMDL
MODEL 6
REMARK VINA RESULT:     -12.7      3.039      9.589
REMARK  Name = 16750097
REMARK  3 active torsions:
REMARK  status: ('A' for Active; 'I' for Inactive)
REMARK    1  A    between atoms: N_3  and  C_10
REMARK    2  A    between atoms: N_3  and  C_23
REMARK    3  A    between atoms: C_23  and  C_24
REMARK                            x       y       z     vdW  Elec       q    Type
REMARK                         _______ _______ _______ _____ _____    ______ ____
ROOT
ATOM      1  O   UNL     1      32.190 -18.615 -26.952  0.00  0.00    -0.209 OA
ATOM      2  N   UNL     1      34.473 -19.428 -22.290  0.00  0.00    -0.305 N 
ATOM      3  N   UNL     1      35.282 -17.482 -21.587  0.00  0.00    -0.305 N 
ATOM      4  N   UNL     1      33.668 -15.134 -25.634  0.00  0.00    -0.275 N 
ATOM      5  N   UNL     1      32.509 -16.374 -27.302  0.00  0.00    -0.302 NA
ATOM      6  N   UNL     1      32.909 -14.076 -27.522  0.00  0.00    -0.320 N 
ATOM      7  C   UNL     1      34.157 -18.523 -23.272  0.00  0.00    +0.061 C 
ATOM      8  C   UNL     1      34.672 -17.317 -22.809  0.00  0.00    +0.061 C 
ATOM      9  C   UNL     1      35.144 -18.758 -21.305  0.00  0.00    +0.208 C 
ATOM     10  C   UNL     1      33.847 -16.256 -24.820  0.00  0.00    +0.064 C 
ATOM     11  C   UNL     1      33.340 -17.491 -25.252  0.00  0.00    +0.110 C 
ATOM     12  C   UNL     1      33.484 -18.659 -24.487  0.00  0.00    +0.030 C 
ATOM     13  C   UNL     1      34.518 -16.159 -23.590  0.00  0.00    +0.031 C 
ATOM     14  C   UNL     1      32.636 -17.539 -26.566  0.00  0.00    +0.208 C 
ATOM     15  C   UNL     1      33.006 -15.259 -26.833  0.00  0.00    +0.248 C 
ATOM     16  H   UNL     1      34.255 -20.387 -22.293  0.00  0.00    +0.150 HD
ATOM     17  H   UNL     1      35.725 -16.793 -21.041  0.00  0.00    +0.150 HD
ATOM     18  H   UNL     1      34.015 -14.258 -25.350  0.00  0.00    +0.156 HD
ATOM     19  H   UNL     1      33.294 -13.253 -27.143  0.00  0.00    +0.146 HD
ATOM     20  H   UNL     1      32.455 -14.051 -28.395  0.00  0.00    +0.146 HD
ENDROOT
BRANCH   9  21
ATOM     21  N   UNL     1      35.560 -19.455 -20.226  0.00  0.00    -0.263 NA
ATOM     22  H   UNL     1      35.700 -18.959 -19.386  0.00  0.00    +0.127 HD
BRANCH  21  23
ATOM     23  C   UNL     1      35.814 -20.885 -20.216  0.00  0.00    +0.098 C 
BRANCH  23  24
ATOM     24  C   UNL     1      34.900 -21.576 -19.242  0.00  0.00    -0.006 C 
ATOM     25  C   UNL     1      35.350 -22.032 -17.994  0.00  0.00    -0.003 C 
ATOM     26  C   UNL     1      34.439 -22.676 -17.122  0.00  0.00    -0.000 C 
ATOM     27  C   UNL     1      33.571 -21.753 -19.627  0.00  0.00    -0.003 C 
ATOM     28  C   UNL     1      36.685 -21.864 -17.589  0.00  0.00    -0.000 C 
ATOM     29  C   UNL     1      33.105 -22.845 -17.526  0.00  0.00    -0.000 C 
ATOM     30  C   UNL     1      32.675 -22.385 -18.771  0.00  0.00    -0.000 C 
ATOM     31  C   UNL     1      34.890 -23.132 -15.873  0.00  0.00    -0.000 C 
ATOM     32  C   UNL     1      37.115 -22.324 -16.344  0.00  0.00    -0.000 C 
ATOM     33  C   UNL     1      36.218 -22.957 -15.487  0.00  0.00    -0.000 C 
ENDBRANCH  23  24
ENDBRANCH  21  23
ENDBRANCH   9  21
TORSDOF 3
ENDMDL
MODEL 7
REMARK VINA RESULT:     -12.6      2.106      3.953
REMARK  Name = 16750097
REMARK  3 active torsions:
REMARK  status: ('A' for Active; 'I' for Inactive)
REMARK    1  A    between atoms: N_3  and  C_10
REMARK    2  A    between atoms: N_3  and  C_23
REMARK    3  A    between atoms: C_23  and  C_24
REMARK                            x       y       z     vdW  Elec       q    Type
REMARK                         _______ _______ _______ _____ _____    ______ ____
ROOT
ATOM      1  O   UNL     1      37.205 -22.985 -14.585  0.00  0.00    -0.209 OA
ATOM      2  N   UNL     1      36.264 -20.931 -19.328  0.00  0.00    -0.305 N 
ATOM      3  N   UNL     1      34.162 -21.409 -19.866  0.00  0.00    -0.305 N 
ATOM      4  N   UNL     1      33.423 -23.817 -15.606  0.00  0.00    -0.275 N 
ATOM      5  N   UNL     1      35.210 -23.970 -14.042  0.00  0.00    -0.302 NA
ATOM      6  N   UNL     1      33.114 -24.928 -13.623  0.00  0.00    -0.320 N 
ATOM      7  C   UNL     1      35.767 -21.643 -18.267  0.00  0.00    +0.061 C 
ATOM      8  C   UNL     1      34.454 -21.928 -18.626  0.00  0.00    +0.061 C 
ATOM      9  C   UNL     1      35.268 -20.817 -20.258  0.00  0.00    +0.208 C 
ATOM     10  C   UNL     1      34.187 -23.085 -16.519  0.00  0.00    +0.064 C 
ATOM     11  C   UNL     1      35.516 -22.776 -16.192  0.00  0.00    +0.110 C 
ATOM     12  C   UNL     1      36.342 -22.046 -17.060  0.00  0.00    +0.030 C 
ATOM     13  C   UNL     1      33.643 -22.662 -17.742  0.00  0.00    +0.031 C 
ATOM     14  C   UNL     1      36.043 -23.251 -14.880  0.00  0.00    +0.208 C 
ATOM     15  C   UNL     1      33.982 -24.219 -14.414  0.00  0.00    +0.248 C 
ATOM     16  H   UNL     1      37.174 -20.566 -19.408  0.00  0.00    +0.150 HD
ATOM     17  H   UNL     1      33.308 -21.467 -20.353  0.00  0.00    +0.150 HD
ATOM     18  H   UNL     1      32.488 -24.045 -15.814  0.00  0.00    +0.156 HD
ATOM     19  H   UNL     1      32.195 -25.100 -13.932  0.00  0.00    +0.146 HD
ATOM     20  H   UNL     1      33.410 -25.265 -12.747  0.00  0.00    +0.146 HD
ENDROOT
BRANCH   9  21
ATOM     21  N   UNL     1      35.531 -20.149 -21.402  0.00  0.00    -0.263 NA
ATOM     22  H   UNL     1      35.792 -20.676 -22.192  0.00  0.00    +0.127 HD
BRANCH  21  23
ATOM     23  C   UNL     1      35.457 -18.706 -21.548  0.00  0.00    +0.098 C 
BRANCH  23  24
ATOM     24  C   UNL     1      34.851 -18.341 -22.875  0.00  0.00    -0.006 C 
ATOM     25  C   UNL     1      34.485 -17.022 -23.188  0.00  0.00    -0.003 C 
ATOM     26  C   UNL     1      33.919 -16.743 -24.456  0.00  0.00    -0.000 C 
ATOM     27  C   UNL     1      34.662 -19.370 -23.797  0.00  0.00    -0.003 C 
ATOM     28  C   UNL     1      34.668 -15.973 -22.273  0.00  0.00    -0.000 C 
ATOM     29  C   UNL     1      33.736 -17.793 -25.371  0.00  0.00    -0.000 C 
ATOM     30  C   UNL     1      34.106 -19.097 -25.043  0.00  0.00    -0.000 C 
ATOM     31  C   UNL     1      33.553 -15.425 -24.769  0.00  0.00    -0.000 C 
ATOM     32  C   UNL     1      34.297 -14.669 -22.601  0.00  0.00    -0.000 C 
ATOM     33  C   UNL     1      33.742 -14.395 -23.848  0.00  0.00    -0.000 C 
ENDBRANCH  23  24
ENDBRANCH  21  23
ENDBRANCH   9  21
TORSDOF 3
ENDMDL
MODEL 8
REMARK VINA RESULT:     -12.6      1.545      3.001
REMARK  Name = 16750097
REMARK  3 active torsions:
REMARK  status: ('A' for Active; 'I' for Inactive)
REMARK    1  A    between atoms: N_3  and  C_10
REMARK    2  A    between atoms: N_3  and  C_23
REMARK    3  A    between atoms: C_23  and  C_24
REMARK                            x       y       z     vdW  Elec       q    Type
REMARK                         _______ _______ _______ _____ _____    ______ ____
ROOT
ATOM      1  O   UNL     1      32.687 -22.025 -19.657  0.00  0.00    -0.209 OA
ATOM      2  N   UNL     1      33.684 -18.362 -23.290  0.00  0.00    -0.305 N 
ATOM      3  N   UNL     1      35.766 -17.652 -22.978  0.00  0.00    -0.305 N 
ATOM      4  N   UNL     1      36.433 -20.707 -19.142  0.00  0.00    -0.275 N 
ATOM      5  N   UNL     1      34.647 -22.133 -18.478  0.00  0.00    -0.302 NA
ATOM      6  N   UNL     1      36.709 -22.133 -17.367  0.00  0.00    -0.320 N 
ATOM      7  C   UNL     1      34.159 -19.077 -22.220  0.00  0.00    +0.061 C 
ATOM      8  C   UNL     1      35.460 -18.617 -22.046  0.00  0.00    +0.061 C 
ATOM      9  C   UNL     1      34.680 -17.524 -23.708  0.00  0.00    +0.208 C 
ATOM     10  C   UNL     1      35.692 -20.142 -20.184  0.00  0.00    +0.064 C 
ATOM     11  C   UNL     1      34.376 -20.582 -20.392  0.00  0.00    +0.110 C 
ATOM     12  C   UNL     1      33.574 -20.059 -21.417  0.00  0.00    +0.030 C 
ATOM     13  C   UNL     1      36.246 -19.153 -21.013  0.00  0.00    +0.031 C 
ATOM     14  C   UNL     1      33.837 -21.634 -19.482  0.00  0.00    +0.208 C 
ATOM     15  C   UNL     1      35.864 -21.674 -18.346  0.00  0.00    +0.248 C 
ATOM     16  H   UNL     1      32.787 -18.438 -23.687  0.00  0.00    +0.150 HD
ATOM     17  H   UNL     1      36.615 -17.163 -23.077  0.00  0.00    +0.150 HD
ATOM     18  H   UNL     1      37.358 -20.414 -18.978  0.00  0.00    +0.156 HD
ATOM     19  H   UNL     1      37.620 -21.768 -17.293  0.00  0.00    +0.146 HD
ATOM     20  H   UNL     1      36.404 -22.827 -16.739  0.00  0.00    +0.146 HD
ENDROOT
BRANCH   9  21
ATOM     21  N   UNL     1      34.437 -16.714 -24.760  0.00  0.00    -0.263 NA
ATOM     22  H   UNL     1      35.209 -16.392 -25.279  0.00  0.00    +0.127 HD
BRANCH  21  23
ATOM     23  C   UNL     1      33.115 -16.284 -25.180  0.00  0.00    +0.098 C 
BRANCH  23  24
ATOM     24  C   UNL     1      33.185 -14.938 -25.847  0.00  0.00    -0.006 C 
ATOM     25  C   UNL     1      33.120 -13.741 -25.116  0.00  0.00    -0.003 C 
ATOM     26  C   UNL     1      33.192 -12.505 -25.803  0.00  0.00    -0.000 C 
ATOM     27  C   UNL     1      33.317 -14.917 -27.236  0.00  0.00    -0.003 C 
ATOM     28  C   UNL     1      32.987 -13.742 -23.718  0.00  0.00    -0.000 C 
ATOM     29  C   UNL     1      33.324 -12.504 -27.202  0.00  0.00    -0.000 C 
ATOM     30  C   UNL     1      33.387 -13.704 -27.912  0.00  0.00    -0.000 C 
ATOM     31  C   UNL     1      33.127 -11.308 -25.073  0.00  0.00    -0.000 C 
ATOM     32  C   UNL     1      32.924 -12.542 -23.008  0.00  0.00    -0.000 C 
ATOM     33  C   UNL     1      32.995 -11.328 -23.684  0.00  0.00    -0.000 C 
ENDBRANCH  23  24
ENDBRANCH  21  23
ENDBRANCH   9  21
TORSDOF 3
ENDMDL
MODEL 9
REMARK VINA RESULT:     -12.5      2.738      4.925
REMARK  Name = 16750097
REMARK  3 active torsions:
REMARK  status: ('A' for Active; 'I' for Inactive)
REMARK    1  A    between atoms: N_3  and  C_10
REMARK    2  A    between atoms: N_3  and  C_23
REMARK    3  A    between atoms: C_23  and  C_24
REMARK                            x       y       z     vdW  Elec       q    Type
REMARK                         _______ _______ _______ _____ _____    ______ ____
ROOT
ATOM      1  O   UNL     1      34.647 -24.381 -13.879  0.00  0.00    -0.209 OA
ATOM      2  N   UNL     1      34.763 -22.004 -18.564  0.00  0.00    -0.305 N 
ATOM      3  N   UNL     1      32.666 -21.796 -19.267  0.00  0.00    -0.305 N 
ATOM      4  N   UNL     1      30.887 -23.979 -15.197  0.00  0.00    -0.275 N 
ATOM      5  N   UNL     1      32.410 -24.719 -13.525  0.00  0.00    -0.302 NA
ATOM      6  N   UNL     1      30.095 -24.996 -13.300  0.00  0.00    -0.320 N 
ATOM      7  C   UNL     1      33.989 -22.559 -17.577  0.00  0.00    +0.061 C 
ATOM      8  C   UNL     1      32.684 -22.416 -18.038  0.00  0.00    +0.061 C 
ATOM      9  C   UNL     1      33.927 -21.564 -19.552  0.00  0.00    +0.208 C 
ATOM     10  C   UNL     1      31.909 -23.493 -16.017  0.00  0.00    +0.064 C 
ATOM     11  C   UNL     1      33.238 -23.618 -15.584  0.00  0.00    +0.110 C 
ATOM     12  C   UNL     1      34.314 -23.153 -16.356  0.00  0.00    +0.030 C 
ATOM     13  C   UNL     1      31.621 -22.888 -17.251  0.00  0.00    +0.031 C 
ATOM     14  C   UNL     1      33.488 -24.268 -14.266  0.00  0.00    +0.208 C 
ATOM     15  C   UNL     1      31.199 -24.567 -13.993  0.00  0.00    +0.248 C 
ATOM     16  H   UNL     1      35.744 -21.936 -18.563  0.00  0.00    +0.150 HD
ATOM     17  H   UNL     1      31.877 -21.575 -19.814  0.00  0.00    +0.150 HD
ATOM     18  H   UNL     1      29.947 -23.902 -15.480  0.00  0.00    +0.156 HD
ATOM     19  H   UNL     1      29.195 -24.868 -13.679  0.00  0.00    +0.146 HD
ATOM     20  H   UNL     1      30.203 -25.433 -12.424  0.00  0.00    +0.146 HD
ENDROOT
BRANCH   9  21
ATOM     21  N   UNL     1      34.473 -20.977 -20.639  0.00  0.00    -0.263 NA
ATOM     22  H   UNL     1      34.395 -21.446 -21.501  0.00  0.00    +0.127 HD
BRANCH  21  23
ATOM     23  C   UNL     1      35.168 -19.702 -20.625  0.00  0.00    +0.098 C 
BRANCH  23  24
ATOM     24  C   UNL     1      34.887 -18.934 -21.887  0.00  0.00    -0.006 C 
ATOM     25  C   UNL     1      34.725 -17.540 -21.890  0.00  0.00    -0.003 C 
ATOM     26  C   UNL     1      34.462 -16.876 -23.112  0.00  0.00    -0.000 C 
ATOM     27  C   UNL     1      34.792 -19.664 -23.072  0.00  0.00    -0.003 C 
ATOM     28  C   UNL     1      34.816 -16.789 -20.707  0.00  0.00    -0.000 C 
ATOM     29  C   UNL     1      34.369 -17.627 -24.296  0.00  0.00    -0.000 C 
ATOM     30  C   UNL     1      34.535 -19.012 -24.274  0.00  0.00    -0.000 C 
ATOM     31  C   UNL     1      34.299 -15.481 -23.115  0.00  0.00    -0.000 C 
ATOM     32  C   UNL     1      34.651 -15.403 -20.728  0.00  0.00    -0.000 C 
ATOM     33  C   UNL     1      34.393 -14.751 -21.931  0.00  0.00    -0.000 C 
ENDBRANCH  23  24
ENDBRANCH  21  23
ENDBRANCH   9  21
TORSDOF 3
ENDMDL
