MODEL 1
REMARK VINA RESULT:     -12.4      0.000      0.000
REMARK  Name = 11610553
REMARK  5 active torsions:
REMARK  status: ('A' for Active; 'I' for Inactive)
REMARK    1  A    between atoms: C_1  and  C_9
REMARK    2  A    between atoms: C_4  and  O_19
REMARK    3  A    between atoms: C_10  and  C_14
REMARK    4  A    between atoms: O_19  and  C_20
REMARK    5  A    between atoms: C_20  and  C_22
REMARK                            x       y       z     vdW  Elec       q    Type
REMARK                         _______ _______ _______ _____ _____    ______ ____
ROOT
ATOM      1  C   UNL     1      33.626 -22.886 -17.028  0.00  0.00    +0.015 C 
ATOM      2  C   UNL     1      32.844 -22.694 -18.167  0.00  0.00    +0.004 C 
ATOM      3  C   UNL     1      34.969 -22.509 -17.033  0.00  0.00    +0.004 C 
ATOM      4  C   UNL     1      34.744 -21.753 -19.308  0.00  0.00    +0.139 C 
ATOM      5  C   UNL     1      33.405 -22.126 -19.310  0.00  0.00    +0.037 C 
ATOM      6  C   UNL     1      35.531 -21.941 -18.176  0.00  0.00    +0.037 C 
ENDROOT
BRANCH   1   9
ATOM      7  N   UNL     1      31.704 -23.443 -15.603  0.00  0.00    -0.236 N 
ATOM      8  N   UNL     1      31.345 -24.041 -14.454  0.00  0.00    -0.180 NA
ATOM      9  C   UNL     1      33.046 -23.473 -15.845  0.00  0.00    +0.067 C 
ATOM     10  C   UNL     1      33.605 -24.137 -14.779  0.00  0.00    +0.036 C 
ATOM     11  C   UNL     1      32.510 -24.462 -13.955  0.00  0.00    +0.119 C 
ATOM     12  H   UNL     1      31.057 -23.024 -16.215  0.00  0.00    +0.174 HD
BRANCH  10  14
ATOM     13  N   UNL     1      37.735 -24.913 -14.294  0.00  0.00    -0.242 NA
ATOM     14  C   UNL     1      35.002 -24.400 -14.614  0.00  0.00    +0.006 C 
ATOM     15  C   UNL     1      35.572 -25.541 -15.173  0.00  0.00    +0.021 C 
ATOM     16  C   UNL     1      35.804 -23.516 -13.896  0.00  0.00    +0.021 C 
ATOM     17  C   UNL     1      36.929 -25.750 -14.986  0.00  0.00    +0.099 C 
ATOM     18  C   UNL     1      37.150 -23.816 -13.766  0.00  0.00    +0.099 C 
ENDBRANCH  10  14
ENDBRANCH   1   9
BRANCH   4  19
ATOM     19  O   UNL     1      35.296 -21.196 -20.432  0.00  0.00    -0.468 OA
BRANCH  19  20
ATOM     20  C   UNL     1      36.150 -20.076 -20.238  0.00  0.00    +0.264 C 
BRANCH  20  22
ATOM     21  N   UNL     1      35.371 -17.797 -20.476  0.00  0.00    -0.406 NA
ATOM     22  C   UNL     1      35.696 -18.950 -21.105  0.00  0.00    +0.152 C 
ATOM     23  C   UNL     1      34.852 -16.847 -22.629  0.00  0.00    +0.026 C 
ATOM     24  C   UNL     1      34.955 -16.758 -21.224  0.00  0.00    +0.113 C 
ATOM     25  C   UNL     1      35.627 -19.131 -22.471  0.00  0.00    +0.031 C 
ATOM     26  C   UNL     1      35.198 -18.060 -23.240  0.00  0.00    +0.005 C 
ATOM     27  C   UNL     1      34.414 -15.743 -23.379  0.00  0.00    +0.002 C 
ATOM     28  C   UNL     1      34.612 -15.553 -20.618  0.00  0.00    +0.085 C 
ATOM     29  C   UNL     1      34.077 -14.550 -22.747  0.00  0.00    -0.004 C 
ATOM     30  C   UNL     1      34.176 -14.455 -21.364  0.00  0.00    -0.019 C 
ENDBRANCH  20  22
ENDBRANCH  19  20
ENDBRANCH   4  19
TORSDOF 5
ENDMDL
MODEL 2
REMARK VINA RESULT:     -12.3      2.363      3.850
REMARK  Name = 11610553
REMARK  5 active torsions:
REMARK  status: ('A' for Active; 'I' for Inactive)
REMARK    1  A    between atoms: C_1  and  C_9
REMARK    2  A    between atoms: C_4  and  O_19
REMARK    3  A    between atoms: C_10  and  C_14
REMARK    4  A    between atoms: O_19  and  C_20
REMARK    5  A    between atoms: C_20  and  C_22
REMARK                            x       y       z     vdW  Elec       q    Type
REMARK                         _______ _______ _______ _____ _____    ______ ____
ROOT
ATOM      1  C   UNL     1      34.546 -23.850 -13.826  0.00  0.00    +0.015 C 
ATOM      2  C   UNL     1      33.207 -24.164 -14.058  0.00  0.00    +0.004 C 
ATOM      3  C   UNL     1      35.296 -23.219 -14.817  0.00  0.00    +0.004 C 
ATOM      4  C   UNL     1      33.373 -23.217 -16.266  0.00  0.00    +0.139 C 
ATOM      5  C   UNL     1      32.619 -23.846 -15.283  0.00  0.00    +0.037 C 
ATOM      6  C   UNL     1      34.709 -22.901 -16.041  0.00  0.00    +0.037 C 
ENDROOT
BRANCH   1   9
ATOM      7  N   UNL     1      34.594 -23.817 -11.370  0.00  0.00    -0.236 N 
ATOM      8  N   UNL     1      35.300 -24.210 -10.296  0.00  0.00    -0.180 NA
ATOM      9  C   UNL     1      35.154 -24.180 -12.560  0.00  0.00    +0.067 C 
ATOM     10  C   UNL     1      36.306 -24.858 -12.242  0.00  0.00    +0.036 C 
ATOM     11  C   UNL     1      36.344 -24.845 -10.835  0.00  0.00    +0.119 C 
ATOM     12  H   UNL     1      33.751 -23.314 -11.304  0.00  0.00    +0.174 HD
BRANCH  10  14
ATOM     13  N   UNL     1      38.996 -26.528 -15.048  0.00  0.00    -0.242 NA
ATOM     14  C   UNL     1      37.216 -25.423 -13.191  0.00  0.00    +0.006 C 
ATOM     15  C   UNL     1      36.794 -26.430 -14.054  0.00  0.00    +0.021 C 
ATOM     16  C   UNL     1      38.531 -24.970 -13.259  0.00  0.00    +0.021 C 
ATOM     17  C   UNL     1      37.712 -26.945 -14.955  0.00  0.00    +0.099 C 
ATOM     18  C   UNL     1      39.373 -25.550 -14.195  0.00  0.00    +0.099 C 
ENDBRANCH  10  14
ENDBRANCH   1   9
BRANCH   4  19
ATOM     19  O   UNL     1      32.796 -22.904 -17.469  0.00  0.00    -0.468 OA
BRANCH  19  20
ATOM     20  C   UNL     1      33.552 -23.192 -18.637  0.00  0.00    +0.264 C 
BRANCH  20  22
ATOM     21  N   UNL     1      34.937 -21.526 -19.716  0.00  0.00    -0.406 NA
ATOM     22  C   UNL     1      33.680 -21.956 -19.463  0.00  0.00    +0.152 C 
ATOM     23  C   UNL     1      33.987 -19.696 -20.964  0.00  0.00    +0.026 C 
ATOM     24  C   UNL     1      35.092 -20.412 -20.457  0.00  0.00    +0.113 C 
ATOM     25  C   UNL     1      32.540 -21.323 -19.916  0.00  0.00    +0.031 C 
ATOM     26  C   UNL     1      32.702 -20.176 -20.678  0.00  0.00    +0.005 C 
ATOM     27  C   UNL     1      34.185 -18.537 -21.734  0.00  0.00    +0.002 C 
ATOM     28  C   UNL     1      36.368 -19.934 -20.742  0.00  0.00    +0.085 C 
ATOM     29  C   UNL     1      35.473 -18.082 -22.004  0.00  0.00    -0.004 C 
ATOM     30  C   UNL     1      36.565 -18.782 -21.507  0.00  0.00    -0.019 C 
ENDBRANCH  20  22
ENDBRANCH  19  20
ENDBRANCH   4  19
TORSDOF 5
ENDMDL
MODEL 3
REMARK VINA RESULT:     -12.2      4.067     11.920
REMARK  Name = 11610553
REMARK  5 active torsions:
REMARK  status: ('A' for Active; 'I' for Inactive)
REMARK    1  A    between atoms: C_1  and  C_9
REMARK    2  A    between atoms: C_4  and  O_19
REMARK    3  A    between atoms: C_10  and  C_14
REMARK    4  A    between atoms: O_19  and  C_20
REMARK    5  A    between atoms: C_20  and  C_22
REMARK                            x       y       z     vdW  Elec       q    Type
REMARK                         _______ _______ _______ _____ _____    ______ ____
ROOT
ATOM      1  C   UNL     1      33.384 -14.327 -24.909  0.00  0.00    +0.015 C 
ATOM      2  C   UNL     1      33.735 -15.649 -25.184  0.00  0.00    +0.004 C 
ATOM      3  C   UNL     1      33.642 -13.785 -23.650  0.00  0.00    +0.004 C 
ATOM      4  C   UNL     1      34.595 -15.881 -22.946  0.00  0.00    +0.139 C 
ATOM      5  C   UNL     1      34.342 -16.428 -24.199  0.00  0.00    +0.037 C 
ATOM      6  C   UNL     1      34.248 -14.564 -22.665  0.00  0.00    +0.037 C 
ENDROOT
BRANCH   1   9
ATOM      7  N   UNL     1      31.889 -14.050 -26.839  0.00  0.00    -0.236 N 
ATOM      8  N   UNL     1      31.402 -13.150 -27.710  0.00  0.00    -0.180 NA
ATOM      9  C   UNL     1      32.756 -13.522 -25.927  0.00  0.00    +0.067 C 
ATOM     10  C   UNL     1      32.842 -12.182 -26.224  0.00  0.00    +0.036 C 
ATOM     11  C   UNL     1      31.988 -12.011 -27.329  0.00  0.00    +0.119 C 
ATOM     12  H   UNL     1      31.643 -15.002 -26.856  0.00  0.00    +0.174 HD
BRANCH  10  14
ATOM     13  N   UNL     1      35.220  -9.375 -24.134  0.00  0.00    -0.242 NA
ATOM     14  C   UNL     1      33.647 -11.233 -25.516  0.00  0.00    +0.006 C 
ATOM     15  C   UNL     1      34.947 -10.964 -25.935  0.00  0.00    +0.021 C 
ATOM     16  C   UNL     1      33.135 -10.569 -24.404  0.00  0.00    +0.021 C 
ATOM     17  C   UNL     1      35.685 -10.037 -25.218  0.00  0.00    +0.099 C 
ATOM     18  C   UNL     1      33.954  -9.660 -23.754  0.00  0.00    +0.099 C 
ENDBRANCH  10  14
ENDBRANCH   1   9
BRANCH   4  19
ATOM     19  O   UNL     1      35.191 -16.647 -21.979  0.00  0.00    -0.468 OA
BRANCH  19  20
ATOM     20  C   UNL     1      35.616 -17.948 -22.363  0.00  0.00    +0.264 C 
BRANCH  20  22
ATOM     21  N   UNL     1      35.639 -19.680 -20.672  0.00  0.00    -0.406 NA
ATOM     22  C   UNL     1      34.893 -18.966 -21.546  0.00  0.00    +0.152 C 
ATOM     23  C   UNL     1      33.636 -20.850 -20.021  0.00  0.00    +0.026 C 
ATOM     24  C   UNL     1      35.022 -20.610 -19.918  0.00  0.00    +0.113 C 
ATOM     25  C   UNL     1      33.533 -19.131 -21.716  0.00  0.00    +0.031 C 
ATOM     26  C   UNL     1      32.900 -20.089 -20.938  0.00  0.00    +0.005 C 
ATOM     27  C   UNL     1      33.024 -21.829 -19.218  0.00  0.00    +0.002 C 
ATOM     28  C   UNL     1      35.752 -21.366 -19.006  0.00  0.00    +0.085 C 
ATOM     29  C   UNL     1      33.779 -22.571 -18.314  0.00  0.00    -0.004 C 
ATOM     30  C   UNL     1      35.144 -22.339 -18.208  0.00  0.00    -0.019 C 
ENDBRANCH  20  22
ENDBRANCH  19  20
ENDBRANCH   4  19
TORSDOF 5
ENDMDL
MODEL 4
REMARK VINA RESULT:     -12.2      1.330      2.459
REMARK  Name = 11610553
REMARK  5 active torsions:
REMARK  status: ('A' for Active; 'I' for Inactive)
REMARK    1  A    between atoms: C_1  and  C_9
REMARK    2  A    between atoms: C_4  and  O_19
REMARK    3  A    between atoms: C_10  and  C_14
REMARK    4  A    between atoms: O_19  and  C_20
REMARK    5  A    between atoms: C_20  and  C_22
REMARK                            x       y       z     vdW  Elec       q    Type
REMARK                         _______ _______ _______ _____ _____    ______ ____
ROOT
ATOM      1  C   UNL     1      34.132 -22.928 -16.514  0.00  0.00    +0.015 C 
ATOM      2  C   UNL     1      35.396 -22.365 -16.685  0.00  0.00    +0.004 C 
ATOM      3  C   UNL     1      33.245 -22.991 -17.589  0.00  0.00    +0.004 C 
ATOM      4  C   UNL     1      34.883 -21.929 -18.998  0.00  0.00    +0.139 C 
ATOM      5  C   UNL     1      35.773 -21.864 -17.931  0.00  0.00    +0.037 C 
ATOM      6  C   UNL     1      33.621 -22.490 -18.834  0.00  0.00    +0.037 C 
ENDROOT
BRANCH   1   9
ATOM      7  N   UNL     1      32.563 -23.102 -14.631  0.00  0.00    -0.236 N 
ATOM      8  N   UNL     1      32.368 -23.681 -13.434  0.00  0.00    -0.180 NA
ATOM      9  C   UNL     1      33.742 -23.446 -15.225  0.00  0.00    +0.067 C 
ATOM     10  C   UNL     1      34.362 -24.311 -14.355  0.00  0.00    +0.036 C 
ATOM     11  C   UNL     1      33.470 -24.418 -13.271  0.00  0.00    +0.119 C 
ATOM     12  H   UNL     1      31.914 -22.486 -15.042  0.00  0.00    +0.174 HD
BRANCH  10  14
ATOM     13  N   UNL     1      38.126 -26.131 -15.003  0.00  0.00    -0.242 NA
ATOM     14  C   UNL     1      35.635 -24.926 -14.575  0.00  0.00    +0.006 C 
ATOM     15  C   UNL     1      36.806 -24.271 -14.201  0.00  0.00    +0.021 C 
ATOM     16  C   UNL     1      35.715 -26.186 -15.163  0.00  0.00    +0.021 C 
ATOM     17  C   UNL     1      38.013 -24.909 -14.435  0.00  0.00    +0.099 C 
ATOM     18  C   UNL     1      36.971 -26.738 -15.354  0.00  0.00    +0.099 C 
ENDBRANCH  10  14
ENDBRANCH   1   9
BRANCH   4  19
ATOM     19  O   UNL     1      35.253 -21.437 -20.222  0.00  0.00    -0.468 OA
BRANCH  19  20
ATOM     20  C   UNL     1      36.018 -20.239 -20.226  0.00  0.00    +0.264 C 
BRANCH  20  22
ATOM     21  N   UNL     1      35.151 -19.866 -22.455  0.00  0.00    -0.406 NA
ATOM     22  C   UNL     1      35.483 -19.313 -21.266  0.00  0.00    +0.152 C 
ATOM     23  C   UNL     1      34.500 -17.674 -23.216  0.00  0.00    +0.026 C 
ATOM     24  C   UNL     1      34.666 -19.060 -23.418  0.00  0.00    +0.113 C 
ATOM     25  C   UNL     1      35.356 -17.969 -20.975  0.00  0.00    +0.031 C 
ATOM     26  C   UNL     1      34.856 -17.142 -21.970  0.00  0.00    +0.005 C 
ATOM     27  C   UNL     1      33.990 -16.863 -24.244  0.00  0.00    +0.002 C 
ATOM     28  C   UNL     1      34.310 -19.588 -24.657  0.00  0.00    +0.085 C 
ATOM     29  C   UNL     1      33.644 -17.417 -25.473  0.00  0.00    -0.004 C 
ATOM     30  C   UNL     1      33.804 -18.781 -25.679  0.00  0.00    -0.019 C 
ENDBRANCH  20  22
ENDBRANCH  19  20
ENDBRANCH   4  19
TORSDOF 5
ENDMDL
MODEL 5
REMARK VINA RESULT:     -12.1      2.348      9.899
REMARK  Name = 11610553
REMARK  5 active torsions:
REMARK  status: ('A' for Active; 'I' for Inactive)
REMARK    1  A    between atoms: C_1  and  C_9
REMARK    2  A    between atoms: C_4  and  O_19
REMARK    3  A    between atoms: C_10  and  C_14
REMARK    4  A    between atoms: O_19  and  C_20
REMARK    5  A    between atoms: C_20  and  C_22
REMARK                            x       y       z     vdW  Elec       q    Type
REMARK                         _______ _______ _______ _____ _____    ______ ____
ROOT
ATOM      1  C   UNL     1      34.279 -19.053 -22.769  0.00  0.00    +0.015 C 
ATOM      2  C   UNL     1      35.507 -19.380 -22.195  0.00  0.00    +0.004 C 
ATOM      3  C   UNL     1      33.092 -19.449 -22.153  0.00  0.00    +0.004 C 
ATOM      4  C   UNL     1      34.361 -20.496 -20.394  0.00  0.00    +0.139 C 
ATOM      5  C   UNL     1      35.548 -20.104 -21.003  0.00  0.00    +0.037 C 
ATOM      6  C   UNL     1      33.133 -20.173 -20.962  0.00  0.00    +0.037 C 
ENDROOT
BRANCH   1   9
ATOM      7  N   UNL     1      34.216 -18.915 -25.222  0.00  0.00    -0.236 N 
ATOM      8  N   UNL     1      34.177 -18.060 -26.257  0.00  0.00    -0.180 NA
ATOM      9  C   UNL     1      34.237 -18.305 -24.002  0.00  0.00    +0.067 C 
ATOM     10  C   UNL     1      34.210 -16.955 -24.258  0.00  0.00    +0.036 C 
ATOM     11  C   UNL     1      34.173 -16.864 -25.662  0.00  0.00    +0.119 C 
ATOM     12  H   UNL     1      34.228 -19.893 -25.333  0.00  0.00    +0.174 HD
BRANCH  10  14
ATOM     13  N   UNL     1      34.240 -13.920 -21.310  0.00  0.00    -0.242 NA
ATOM     14  C   UNL     1      34.219 -15.928 -23.260  0.00  0.00    +0.006 C 
ATOM     15  C   UNL     1      34.667 -16.205 -21.972  0.00  0.00    +0.021 C 
ATOM     16  C   UNL     1      33.782 -14.643 -23.571  0.00  0.00    +0.021 C 
ATOM     17  C   UNL     1      34.657 -15.178 -21.043  0.00  0.00    +0.099 C 
ATOM     18  C   UNL     1      33.811 -13.685 -22.570  0.00  0.00    +0.099 C 
ENDBRANCH  10  14
ENDBRANCH   1   9
BRANCH   4  19
ATOM     19  O   UNL     1      34.401 -21.207 -19.224  0.00  0.00    -0.468 OA
BRANCH  19  20
ATOM     20  C   UNL     1      33.801 -22.496 -19.236  0.00  0.00    +0.264 C 
BRANCH  20  22
ATOM     21  N   UNL     1      31.920 -22.778 -17.739  0.00  0.00    -0.406 NA
ATOM     22  C   UNL     1      33.265 -22.806 -17.878  0.00  0.00    +0.152 C 
ATOM     23  C   UNL     1      32.215 -23.360 -15.419  0.00  0.00    +0.026 C 
ATOM     24  C   UNL     1      31.399 -23.051 -16.528  0.00  0.00    +0.113 C 
ATOM     25  C   UNL     1      34.143 -23.097 -16.854  0.00  0.00    +0.031 C 
ATOM     26  C   UNL     1      33.604 -23.377 -15.607  0.00  0.00    +0.005 C 
ATOM     27  C   UNL     1      31.638 -23.640 -14.169  0.00  0.00    +0.002 C 
ATOM     28  C   UNL     1      30.020 -23.035 -16.341  0.00  0.00    +0.085 C 
ATOM     29  C   UNL     1      30.255 -23.615 -14.010  0.00  0.00    -0.004 C 
ATOM     30  C   UNL     1      29.446 -23.312 -15.097  0.00  0.00    -0.019 C 
ENDBRANCH  20  22
ENDBRANCH  19  20
ENDBRANCH   4  19
TORSDOF 5
ENDMDL
MODEL 6
REMARK VINA RESULT:     -12.0      2.223     10.019
REMARK  Name = 11610553
REMARK  5 active torsions:
REMARK  status: ('A' for Active; 'I' for Inactive)
REMARK    1  A    between atoms: C_1  and  C_9
REMARK    2  A    between atoms: C_4  and  O_19
REMARK    3  A    between atoms: C_10  and  C_14
REMARK    4  A    between atoms: O_19  and  C_20
REMARK    5  A    between atoms: C_20  and  C_22
REMARK                            x       y       z     vdW  Elec       q    Type
REMARK                         _______ _______ _______ _____ _____    ______ ____
ROOT
ATOM      1  C   UNL     1      34.569 -18.595 -23.076  0.00  0.00    +0.015 C 
ATOM      2  C   UNL     1      35.885 -18.624 -22.615  0.00  0.00    +0.004 C 
ATOM      3  C   UNL     1      33.555 -19.196 -22.331  0.00  0.00    +0.004 C 
ATOM      4  C   UNL     1      35.171 -19.854 -20.672  0.00  0.00    +0.139 C 
ATOM      5  C   UNL     1      36.187 -19.256 -21.408  0.00  0.00    +0.037 C 
ATOM      6  C   UNL     1      33.856 -19.828 -21.125  0.00  0.00    +0.037 C 
ENDROOT
BRANCH   1   9
ATOM      7  N   UNL     1      34.209 -18.621 -25.507  0.00  0.00    -0.236 N 
ATOM      8  N   UNL     1      33.903 -17.850 -26.564  0.00  0.00    -0.180 NA
ATOM      9  C   UNL     1      34.258 -17.942 -24.324  0.00  0.00    +0.067 C 
ATOM     10  C   UNL     1      33.963 -16.635 -24.630  0.00  0.00    +0.036 C 
ATOM     11  C   UNL     1      33.754 -16.638 -26.023  0.00  0.00    +0.119 C 
ATOM     12  H   UNL     1      34.382 -19.587 -25.579  0.00  0.00    +0.174 HD
BRANCH  10  14
ATOM     13  N   UNL     1      33.779 -13.466 -21.833  0.00  0.00    -0.242 NA
ATOM     14  C   UNL     1      33.902 -15.562 -23.684  0.00  0.00    +0.006 C 
ATOM     15  C   UNL     1      33.228 -14.385 -24.000  0.00  0.00    +0.021 C 
ATOM     16  C   UNL     1      34.513 -15.688 -22.439  0.00  0.00    +0.021 C 
ATOM     17  C   UNL     1      33.196 -13.377 -23.050  0.00  0.00    +0.099 C 
ATOM     18  C   UNL     1      34.424 -14.621 -21.559  0.00  0.00    +0.099 C 
ENDBRANCH  10  14
ENDBRANCH   1   9
BRANCH   4  19
ATOM     19  O   UNL     1      35.467 -20.474 -19.486  0.00  0.00    -0.468 OA
BRANCH  19  20
ATOM     20  C   UNL     1      35.421 -21.895 -19.478  0.00  0.00    +0.264 C 
BRANCH  20  22
ATOM     21  N   UNL     1      35.089 -22.740 -17.234  0.00  0.00    -0.406 NA
ATOM     22  C   UNL     1      34.506 -22.355 -18.392  0.00  0.00    +0.152 C 
ATOM     23  C   UNL     1      32.892 -23.213 -16.364  0.00  0.00    +0.026 C 
ATOM     24  C   UNL     1      34.296 -23.164 -16.232  0.00  0.00    +0.113 C 
ATOM     25  C   UNL     1      33.144 -22.368 -18.614  0.00  0.00    +0.031 C 
ATOM     26  C   UNL     1      32.329 -22.805 -17.580  0.00  0.00    +0.005 C 
ATOM     27  C   UNL     1      32.094 -23.660 -15.297  0.00  0.00    +0.002 C 
ATOM     28  C   UNL     1      34.854 -23.568 -15.022  0.00  0.00    +0.085 C 
ATOM     29  C   UNL     1      32.679 -24.059 -14.099  0.00  0.00    -0.004 C 
ATOM     30  C   UNL     1      34.061 -24.013 -13.962  0.00  0.00    -0.019 C 
ENDBRANCH  20  22
ENDBRANCH  19  20
ENDBRANCH   4  19
TORSDOF 5
ENDMDL
MODEL 7
REMARK VINA RESULT:     -12.0      2.191     10.104
REMARK  Name = 11610553
REMARK  5 active torsions:
REMARK  status: ('A' for Active; 'I' for Inactive)
REMARK    1  A    between atoms: C_1  and  C_9
REMARK    2  A    between atoms: C_4  and  O_19
REMARK    3  A    between atoms: C_10  and  C_14
REMARK    4  A    between atoms: O_19  and  C_20
REMARK    5  A    between atoms: C_20  and  C_22
REMARK                            x       y       z     vdW  Elec       q    Type
REMARK                         _______ _______ _______ _____ _____    ______ ____
ROOT
ATOM      1  C   UNL     1      34.717 -18.536 -23.089  0.00  0.00    +0.015 C 
ATOM      2  C   UNL     1      36.039 -18.519 -22.643  0.00  0.00    +0.004 C 
ATOM      3  C   UNL     1      33.744 -19.221 -22.361  0.00  0.00    +0.004 C 
ATOM      4  C   UNL     1      35.412 -19.868 -20.749  0.00  0.00    +0.139 C 
ATOM      5  C   UNL     1      36.387 -19.187 -21.469  0.00  0.00    +0.037 C 
ATOM      6  C   UNL     1      34.092 -19.889 -21.188  0.00  0.00    +0.037 C 
ENDROOT
BRANCH   1   9
ATOM      7  N   UNL     1      34.312 -18.478 -25.512  0.00  0.00    -0.236 N 
ATOM      8  N   UNL     1      33.957 -17.676 -26.531  0.00  0.00    -0.180 NA
ATOM      9  C   UNL     1      34.357 -17.846 -24.303  0.00  0.00    +0.067 C 
ATOM     10  C   UNL     1      34.008 -16.539 -24.550  0.00  0.00    +0.036 C 
ATOM     11  C   UNL     1      33.773 -16.494 -25.937  0.00  0.00    +0.119 C 
ATOM     12  H   UNL     1      34.519 -19.433 -25.626  0.00  0.00    +0.174 HD
BRANCH  10  14
ATOM     13  N   UNL     1      33.763 -13.494 -21.623  0.00  0.00    -0.242 NA
ATOM     14  C   UNL     1      33.924 -15.510 -23.559  0.00  0.00    +0.006 C 
ATOM     15  C   UNL     1      34.515 -15.687 -22.311  0.00  0.00    +0.021 C 
ATOM     16  C   UNL     1      33.253 -14.321 -23.836  0.00  0.00    +0.021 C 
ATOM     17  C   UNL     1      34.407 -14.660 -21.387  0.00  0.00    +0.099 C 
ATOM     18  C   UNL     1      33.201 -13.356 -22.844  0.00  0.00    +0.099 C 
ENDBRANCH  10  14
ENDBRANCH   1   9
BRANCH   4  19
ATOM     19  O   UNL     1      35.754 -20.524 -19.596  0.00  0.00    -0.468 OA
BRANCH  19  20
ATOM     20  C   UNL     1      35.080 -21.748 -19.331  0.00  0.00    +0.264 C 
BRANCH  20  22
ATOM     21  N   UNL     1      34.326 -22.798 -17.285  0.00  0.00    -0.406 NA
ATOM     22  C   UNL     1      35.335 -22.158 -17.919  0.00  0.00    +0.152 C 
ATOM     23  C   UNL     1      35.731 -22.935 -15.332  0.00  0.00    +0.026 C 
ATOM     24  C   UNL     1      34.518 -23.183 -16.009  0.00  0.00    +0.113 C 
ATOM     25  C   UNL     1      36.554 -21.872 -17.340  0.00  0.00    +0.031 C 
ATOM     26  C   UNL     1      36.750 -22.269 -16.025  0.00  0.00    +0.005 C 
ATOM     27  C   UNL     1      35.897 -23.350 -14.000  0.00  0.00    +0.002 C 
ATOM     28  C   UNL     1      33.507 -23.845 -15.319  0.00  0.00    +0.085 C 
ATOM     29  C   UNL     1      34.868 -24.010 -13.334  0.00  0.00    -0.004 C 
ATOM     30  C   UNL     1      33.672 -24.257 -13.994  0.00  0.00    -0.019 C 
ENDBRANCH  20  22
ENDBRANCH  19  20
ENDBRANCH   4  19
TORSDOF 5
ENDMDL
MODEL 8
REMARK VINA RESULT:     -12.0      4.567     11.927
REMARK  Name = 11610553
REMARK  5 active torsions:
REMARK  status: ('A' for Active; 'I' for Inactive)
REMARK    1  A    between atoms: C_1  and  C_9
REMARK    2  A    between atoms: C_4  and  O_19
REMARK    3  A    between atoms: C_10  and  C_14
REMARK    4  A    between atoms: O_19  and  C_20
REMARK    5  A    between atoms: C_20  and  C_22
REMARK                            x       y       z     vdW  Elec       q    Type
REMARK                         _______ _______ _______ _____ _____    ______ ____
ROOT
ATOM      1  C   UNL     1      32.748 -12.814 -22.842  0.00  0.00    +0.015 C 
ATOM      2  C   UNL     1      32.728 -13.295 -24.151  0.00  0.00    +0.004 C 
ATOM      3  C   UNL     1      33.484 -13.484 -21.864  0.00  0.00    +0.004 C 
ATOM      4  C   UNL     1      34.174 -15.108 -23.502  0.00  0.00    +0.139 C 
ATOM      5  C   UNL     1      33.444 -14.446 -24.482  0.00  0.00    +0.037 C 
ATOM      6  C   UNL     1      34.200 -14.634 -22.194  0.00  0.00    +0.037 C 
ENDROOT
BRANCH   1   9
ATOM      7  N   UNL     1      31.020 -11.630 -21.558  0.00  0.00    -0.236 N 
ATOM      8  N   UNL     1      30.442 -10.431 -21.371  0.00  0.00    -0.180 NA
ATOM      9  C   UNL     1      32.008 -11.625 -22.499  0.00  0.00    +0.067 C 
ATOM     10  C   UNL     1      32.080 -10.332 -22.961  0.00  0.00    +0.036 C 
ATOM     11  C   UNL     1      31.093  -9.643 -22.231  0.00  0.00    +0.119 C 
ATOM     12  H   UNL     1      30.757 -12.437 -21.061  0.00  0.00    +0.174 HD
BRANCH  10  14
ATOM     13  N   UNL     1      34.758  -8.954 -25.932  0.00  0.00    -0.242 NA
ATOM     14  C   UNL     1      32.986  -9.866 -23.966  0.00  0.00    +0.006 C 
ATOM     15  C   UNL     1      32.695 -10.053 -25.315  0.00  0.00    +0.021 C 
ATOM     16  C   UNL     1      34.166  -9.222 -23.603  0.00  0.00    +0.021 C 
ATOM     17  C   UNL     1      33.604  -9.583 -26.249  0.00  0.00    +0.099 C 
ATOM     18  C   UNL     1      35.010  -8.790 -24.614  0.00  0.00    +0.099 C 
ENDBRANCH  10  14
ENDBRANCH   1   9
BRANCH   4  19
ATOM     19  O   UNL     1      34.877 -16.238 -23.827  0.00  0.00    -0.468 OA
BRANCH  19  20
ATOM     20  C   UNL     1      34.133 -17.444 -23.947  0.00  0.00    +0.264 C 
BRANCH  20  22
ATOM     21  N   UNL     1      33.499 -19.031 -22.234  0.00  0.00    -0.406 NA
ATOM     22  C   UNL     1      34.511 -18.372 -22.841  0.00  0.00    +0.152 C 
ATOM     23  C   UNL     1      35.131 -20.084 -20.807  0.00  0.00    +0.026 C 
ATOM     24  C   UNL     1      33.801 -19.877 -21.230  0.00  0.00    +0.113 C 
ATOM     25  C   UNL     1      35.841 -18.509 -22.497  0.00  0.00    +0.031 C 
ATOM     26  C   UNL     1      36.149 -19.381 -21.463  0.00  0.00    +0.005 C 
ATOM     27  C   UNL     1      35.410 -20.974 -19.756  0.00  0.00    +0.002 C 
ATOM     28  C   UNL     1      32.790 -20.577 -20.578  0.00  0.00    +0.085 C 
ATOM     29  C   UNL     1      34.380 -21.661 -19.121  0.00  0.00    -0.004 C 
ATOM     30  C   UNL     1      33.068 -21.461 -19.532  0.00  0.00    -0.019 C 
ENDBRANCH  20  22
ENDBRANCH  19  20
ENDBRANCH   4  19
TORSDOF 5
ENDMDL
MODEL 9
REMARK VINA RESULT:     -11.9      1.465      2.258
REMARK  Name = 11610553
REMARK  5 active torsions:
REMARK  status: ('A' for Active; 'I' for Inactive)
REMARK    1  A    between atoms: C_1  and  C_9
REMARK    2  A    between atoms: C_4  and  O_19
REMARK    3  A    between atoms: C_10  and  C_14
REMARK    4  A    between atoms: O_19  and  C_20
REMARK    5  A    between atoms: C_20  and  C_22
REMARK                            x       y       z     vdW  Elec       q    Type
REMARK                         _______ _______ _______ _____ _____    ______ ____
ROOT
ATOM      1  C   UNL     1      34.787 -22.915 -16.063  0.00  0.00    +0.015 C 
ATOM      2  C   UNL     1      36.053 -22.336 -16.154  0.00  0.00    +0.004 C 
ATOM      3  C   UNL     1      33.945 -22.930 -17.175  0.00  0.00    +0.004 C 
ATOM      4  C   UNL     1      35.631 -21.788 -18.461  0.00  0.00    +0.139 C 
ATOM      5  C   UNL     1      36.476 -21.770 -17.357  0.00  0.00    +0.037 C 
ATOM      6  C   UNL     1      34.368 -22.364 -18.378  0.00  0.00    +0.037 C 
ENDROOT
BRANCH   1   9
ATOM      7  N   UNL     1      33.178 -23.138 -14.220  0.00  0.00    -0.236 N 
ATOM      8  N   UNL     1      32.934 -23.787 -13.069  0.00  0.00    -0.180 NA
ATOM      9  C   UNL     1      34.349 -23.499 -14.819  0.00  0.00    +0.067 C 
ATOM     10  C   UNL     1      34.910 -24.452 -14.002  0.00  0.00    +0.036 C 
ATOM     11  C   UNL     1      33.995 -24.588 -12.941  0.00  0.00    +0.119 C 
ATOM     12  H   UNL     1      32.567 -22.465 -14.597  0.00  0.00    +0.174 HD
BRANCH  10  14
ATOM     13  N   UNL     1      38.592 -26.407 -14.724  0.00  0.00    -0.242 NA
ATOM     14  C   UNL     1      36.156 -25.114 -14.246  0.00  0.00    +0.006 C 
ATOM     15  C   UNL     1      36.204 -26.243 -15.059  0.00  0.00    +0.021 C 
ATOM     16  C   UNL     1      37.331 -24.633 -13.673  0.00  0.00    +0.021 C 
ATOM     17  C   UNL     1      37.433 -26.847 -15.264  0.00  0.00    +0.099 C 
ATOM     18  C   UNL     1      38.510 -25.309 -13.940  0.00  0.00    +0.099 C 
ENDBRANCH  10  14
ENDBRANCH   1   9
BRANCH   4  19
ATOM     19  O   UNL     1      36.047 -21.233 -19.642  0.00  0.00    -0.468 OA
BRANCH  19  20
ATOM     20  C   UNL     1      35.126 -21.265 -20.725  0.00  0.00    +0.264 C 
BRANCH  20  22
ATOM     21  N   UNL     1      34.470 -19.830 -22.560  0.00  0.00    -0.406 NA
ATOM     22  C   UNL     1      35.022 -19.904 -21.328  0.00  0.00    +0.152 C 
ATOM     23  C   UNL     1      34.803 -17.445 -22.493  0.00  0.00    +0.026 C 
ATOM     24  C   UNL     1      34.360 -18.619 -23.138  0.00  0.00    +0.113 C 
ATOM     25  C   UNL     1      35.482 -18.812 -20.620  0.00  0.00    +0.031 C 
ATOM     26  C   UNL     1      35.369 -17.566 -21.217  0.00  0.00    +0.005 C 
ATOM     27  C   UNL     1      34.673 -16.196 -23.125  0.00  0.00    +0.002 C 
ATOM     28  C   UNL     1      33.798 -18.497 -24.405  0.00  0.00    +0.085 C 
ATOM     29  C   UNL     1      34.107 -16.104 -24.393  0.00  0.00    -0.004 C 
ATOM     30  C   UNL     1      33.669 -17.256 -25.034  0.00  0.00    -0.019 C 
ENDBRANCH  20  22
ENDBRANCH  19  20
ENDBRANCH   4  19
TORSDOF 5
ENDMDL
