MODEL 1
REMARK VINA RESULT:     -12.5      0.000      0.000
REMARK  Name = 9808844
REMARK  5 active torsions:
REMARK  status: ('A' for Active; 'I' for Inactive)
REMARK    1  A    between atoms: N_2  and  C_13
REMARK    2  A    between atoms: C_8  and  O_19
REMARK    3  A    between atoms: O_19  and  C_20
REMARK    4  A    between atoms: C_20  and  C_22
REMARK    5  A    between atoms: C_25  and  C_29
REMARK                            x       y       z     vdW  Elec       q    Type
REMARK                         _______ _______ _______ _____ _____    ______ ____
ROOT
ATOM      1  O   UNL     1      35.157 -22.713 -17.397  0.00  0.00    -0.446 OA
ATOM      2  N   UNL     1      35.319 -19.693 -20.987  0.00  0.00    -0.296 N 
ATOM      3  N   UNL     1      33.290 -20.839 -20.458  0.00  0.00    -0.130 NA
ATOM      4  N   UNL     1      32.543 -21.729 -19.696  0.00  0.00    -0.106 NA
ATOM      5  C   UNL     1      35.194 -21.268 -19.132  0.00  0.00    +0.076 A 
ATOM      6  C   UNL     1      34.418 -22.150 -18.392  0.00  0.00    +0.202 A 
ATOM      7  C   UNL     1      34.595 -20.600 -20.195  0.00  0.00    +0.157 A 
ATOM      8  C   UNL     1      33.087 -22.394 -18.659  0.00  0.00    +0.279 A 
ATOM      9  C   UNL     1      36.485 -21.303 -18.543  0.00  0.00    +0.047 C 
ATOM     10  C   UNL     1      36.409 -22.193 -17.496  0.00  0.00    +0.180 C 
ATOM     11  H   UNL     1      36.259 -19.592 -20.712  0.00  0.00    +0.154 HD
ENDROOT
BRANCH   2  13
ATOM     12 CL   UNL     1      33.845 -16.354 -25.650  0.00  0.00    -0.082 Cl
ATOM     13  C   UNL     1      34.968 -18.897 -22.099  0.00  0.00    +0.049 C 
ATOM     14  C   UNL     1      34.607 -19.502 -23.303  0.00  0.00    +0.016 C 
ATOM     15  C   UNL     1      34.980 -17.506 -21.992  0.00  0.00    +0.016 C 
ATOM     16  C   UNL     1      34.260 -18.715 -24.401  0.00  0.00    +0.013 C 
ATOM     17  C   UNL     1      34.633 -16.720 -23.090  0.00  0.00    +0.013 C 
ATOM     18  C   UNL     1      34.273 -17.325 -24.294  0.00  0.00    +0.058 C 
ENDBRANCH   2  13
BRANCH   8  19
ATOM     19  O   UNL     1      32.314 -23.263 -17.935  0.00  0.00    -0.452 OA
BRANCH  19  20
ATOM     20  C   UNL     1      31.419 -22.688 -16.989  0.00  0.00    +0.234 C 
BRANCH  20  22
ATOM     21  N   UNL     1      31.757 -24.806 -13.278  0.00  0.00    -0.239 NA
ATOM     22  C   UNL     1      31.539 -23.430 -15.689  0.00  0.00    +0.024 C 
ATOM     23  C   UNL     1      32.770 -23.531 -15.064  0.00  0.00    +0.023 C 
ATOM     24  C   UNL     1      30.414 -24.011 -15.123  0.00  0.00    +0.020 C 
ATOM     25  C   UNL     1      32.826 -24.225 -13.866  0.00  0.00    +0.134 C 
ATOM     26  C   UNL     1      30.575 -24.684 -13.924  0.00  0.00    +0.099 C 
BRANCH  25  29
ATOM     27  O   UNL     1      34.235 -23.880 -12.023  0.00  0.00    -0.268 OA
ATOM     28  N   UNL     1      35.101 -25.087 -13.804  0.00  0.00    -0.298 N 
ATOM     29  C   UNL     1      34.087 -24.367 -13.160  0.00  0.00    +0.264 C 
ATOM     30  C   UNL     1      36.401 -25.333 -13.221  0.00  0.00    +0.111 C 
ATOM     31  H   UNL     1      34.918 -25.445 -14.702  0.00  0.00    +0.150 HD
ENDBRANCH  25  29
ENDBRANCH  20  22
ENDBRANCH  19  20
ENDBRANCH   8  19
TORSDOF 5
ENDMDL
MODEL 2
REMARK VINA RESULT:     -12.2      2.287      3.830
REMARK  Name = 9808844
REMARK  5 active torsions:
REMARK  status: ('A' for Active; 'I' for Inactive)
REMARK    1  A    between atoms: N_2  and  C_13
REMARK    2  A    between atoms: C_8  and  O_19
REMARK    3  A    between atoms: O_19  and  C_20
REMARK    4  A    between atoms: C_20  and  C_22
REMARK    5  A    between atoms: C_25  and  C_29
REMARK                            x       y       z     vdW  Elec       q    Type
REMARK                         _______ _______ _______ _____ _____    ______ ____
ROOT
ATOM      1  O   UNL     1      35.072 -22.176 -18.518  0.00  0.00    -0.446 OA
ATOM      2  N   UNL     1      35.086 -18.971 -21.948  0.00  0.00    -0.296 N 
ATOM      3  N   UNL     1      33.030 -19.923 -21.188  0.00  0.00    -0.130 NA
ATOM      4  N   UNL     1      32.298 -20.774 -20.369  0.00  0.00    -0.106 NA
ATOM      5  C   UNL     1      35.036 -20.637 -20.171  0.00  0.00    +0.076 A 
ATOM      6  C   UNL     1      34.273 -21.475 -19.369  0.00  0.00    +0.202 A 
ATOM      7  C   UNL     1      34.378 -19.843 -21.104  0.00  0.00    +0.157 A 
ATOM      8  C   UNL     1      32.899 -21.558 -19.453  0.00  0.00    +0.279 A 
ATOM      9  C   UNL     1      36.383 -20.848 -19.776  0.00  0.00    +0.047 C 
ATOM     10  C   UNL     1      36.350 -21.788 -18.772  0.00  0.00    +0.180 C 
ATOM     11  H   UNL     1      36.060 -18.989 -21.807  0.00  0.00    +0.154 HD
ENDROOT
BRANCH   2  13
ATOM     12 CL   UNL     1      33.377 -15.207 -26.187  0.00  0.00    -0.082 Cl
ATOM     13  C   UNL     1      34.679 -18.074 -22.959  0.00  0.00    +0.049 C 
ATOM     14  C   UNL     1      34.781 -16.698 -22.752  0.00  0.00    +0.016 C 
ATOM     15  C   UNL     1      34.175 -18.563 -24.164  0.00  0.00    +0.016 C 
ATOM     16  C   UNL     1      34.379 -15.812 -23.751  0.00  0.00    +0.013 C 
ATOM     17  C   UNL     1      33.772 -17.676 -25.162  0.00  0.00    +0.013 C 
ATOM     18  C   UNL     1      33.875 -16.301 -24.955  0.00  0.00    +0.058 C 
ENDBRANCH   2  13
BRANCH   8  19
ATOM     19  O   UNL     1      32.138 -22.383 -18.667  0.00  0.00    -0.452 OA
BRANCH  19  20
ATOM     20  C   UNL     1      32.677 -22.734 -17.397  0.00  0.00    +0.234 C 
BRANCH  20  22
ATOM     21  N   UNL     1      29.489 -23.997 -14.826  0.00  0.00    -0.239 NA
ATOM     22  C   UNL     1      31.559 -23.175 -16.498  0.00  0.00    +0.024 C 
ATOM     23  C   UNL     1      30.245 -23.003 -16.896  0.00  0.00    +0.023 C 
ATOM     24  C   UNL     1      31.852 -23.754 -15.272  0.00  0.00    +0.020 C 
ATOM     25  C   UNL     1      29.251 -23.428 -16.029  0.00  0.00    +0.134 C 
ATOM     26  C   UNL     1      30.786 -24.145 -14.478  0.00  0.00    +0.099 C 
BRANCH  25  29
ATOM     27  O   UNL     1      27.332 -24.017 -17.243  0.00  0.00    -0.268 OA
ATOM     28  N   UNL     1      27.125 -22.286 -15.715  0.00  0.00    -0.298 N 
ATOM     29  C   UNL     1      27.851 -23.276 -16.388  0.00  0.00    +0.264 C 
ATOM     30  C   UNL     1      25.721 -22.029 -15.943  0.00  0.00    +0.111 C 
ATOM     31  H   UNL     1      27.597 -21.735 -15.049  0.00  0.00    +0.150 HD
ENDBRANCH  25  29
ENDBRANCH  20  22
ENDBRANCH  19  20
ENDBRANCH   8  19
TORSDOF 5
ENDMDL
MODEL 3
REMARK VINA RESULT:     -11.6      5.577     11.521
REMARK  Name = 9808844
REMARK  5 active torsions:
REMARK  status: ('A' for Active; 'I' for Inactive)
REMARK    1  A    between atoms: N_2  and  C_13
REMARK    2  A    between atoms: C_8  and  O_19
REMARK    3  A    between atoms: O_19  and  C_20
REMARK    4  A    between atoms: C_20  and  C_22
REMARK    5  A    between atoms: C_25  and  C_29
REMARK                            x       y       z     vdW  Elec       q    Type
REMARK                         _______ _______ _______ _____ _____    ______ ____
ROOT
ATOM      1  O   UNL     1      34.411 -16.713 -24.837  0.00  0.00    -0.446 OA
ATOM      2  N   UNL     1      34.223 -20.145 -21.640  0.00  0.00    -0.296 N 
ATOM      3  N   UNL     1      34.671 -17.894 -20.976  0.00  0.00    -0.130 NA
ATOM      4  N   UNL     1      34.860 -16.545 -21.251  0.00  0.00    -0.106 NA
ATOM      5  C   UNL     1      34.328 -18.336 -23.268  0.00  0.00    +0.076 A 
ATOM      6  C   UNL     1      34.523 -16.982 -23.507  0.00  0.00    +0.202 A 
ATOM      7  C   UNL     1      34.409 -18.789 -21.956  0.00  0.00    +0.157 A 
ATOM      8  C   UNL     1      34.790 -16.068 -22.510  0.00  0.00    +0.279 A 
ATOM      9  C   UNL     1      34.084 -18.919 -24.539  0.00  0.00    +0.047 C 
ATOM     10  C   UNL     1      34.144 -17.894 -25.455  0.00  0.00    +0.180 C 
ATOM     11  H   UNL     1      34.038 -20.711 -22.424  0.00  0.00    +0.154 HD
ENDROOT
BRANCH   2  13
ATOM     12 CL   UNL     1      34.328 -23.139 -16.533  0.00  0.00    -0.082 Cl
ATOM     13  C   UNL     1      34.248 -20.859 -20.423  0.00  0.00    +0.049 C 
ATOM     14  C   UNL     1      35.465 -21.123 -19.795  0.00  0.00    +0.016 C 
ATOM     15  C   UNL     1      33.056 -21.299 -19.848  0.00  0.00    +0.016 C 
ATOM     16  C   UNL     1      35.490 -21.828 -18.592  0.00  0.00    +0.013 C 
ATOM     17  C   UNL     1      33.081 -22.004 -18.645  0.00  0.00    +0.013 C 
ATOM     18  C   UNL     1      34.298 -22.268 -18.017  0.00  0.00    +0.058 C 
ENDBRANCH   2  13
BRANCH   8  19
ATOM     19  O   UNL     1      34.983 -14.731 -22.736  0.00  0.00    -0.452 OA
BRANCH  19  20
ATOM     20  C   UNL     1      33.843 -13.889 -22.610  0.00  0.00    +0.234 C 
BRANCH  20  22
ATOM     21  N   UNL     1      32.995 -12.108 -26.415  0.00  0.00    -0.239 NA
ATOM     22  C   UNL     1      33.546 -13.266 -23.943  0.00  0.00    +0.024 C 
ATOM     23  C   UNL     1      32.900 -14.004 -24.920  0.00  0.00    +0.023 C 
ATOM     24  C   UNL     1      33.921 -11.954 -24.188  0.00  0.00    +0.020 C 
ATOM     25  C   UNL     1      32.648 -13.383 -26.132  0.00  0.00    +0.134 C 
ATOM     26  C   UNL     1      33.624 -11.424 -25.433  0.00  0.00    +0.099 C 
BRANCH  25  29
ATOM     27  O   UNL     1      32.617 -14.816 -27.988  0.00  0.00    -0.268 OA
ATOM     28  N   UNL     1      30.580 -13.972 -27.272  0.00  0.00    -0.298 N 
ATOM     29  C   UNL     1      31.972 -14.102 -27.198  0.00  0.00    +0.264 C 
ATOM     30  C   UNL     1      29.765 -14.643 -28.259  0.00  0.00    +0.111 C 
ATOM     31  H   UNL     1      30.132 -13.392 -26.615  0.00  0.00    +0.150 HD
ENDBRANCH  25  29
ENDBRANCH  20  22
ENDBRANCH  19  20
ENDBRANCH   8  19
TORSDOF 5
ENDMDL
MODEL 4
REMARK VINA RESULT:     -11.6      3.976      9.438
REMARK  Name = 9808844
REMARK  5 active torsions:
REMARK  status: ('A' for Active; 'I' for Inactive)
REMARK    1  A    between atoms: N_2  and  C_13
REMARK    2  A    between atoms: C_8  and  O_19
REMARK    3  A    between atoms: O_19  and  C_20
REMARK    4  A    between atoms: C_20  and  C_22
REMARK    5  A    between atoms: C_25  and  C_29
REMARK                            x       y       z     vdW  Elec       q    Type
REMARK                         _______ _______ _______ _____ _____    ______ ____
ROOT
ATOM      1  O   UNL     1      30.813 -22.402 -17.492  0.00  0.00    -0.446 OA
ATOM      2  N   UNL     1      34.567 -24.257 -15.369  0.00  0.00    -0.296 N 
ATOM      3  N   UNL     1      34.747 -23.348 -17.572  0.00  0.00    -0.130 NA
ATOM      4  N   UNL     1      34.210 -22.728 -18.694  0.00  0.00    -0.106 NA
ATOM      5  C   UNL     1      32.643 -23.285 -16.505  0.00  0.00    +0.076 A 
ATOM      6  C   UNL     1      32.141 -22.668 -17.642  0.00  0.00    +0.202 A 
ATOM      7  C   UNL     1      33.990 -23.630 -16.486  0.00  0.00    +0.157 A 
ATOM      8  C   UNL     1      32.910 -22.380 -18.749  0.00  0.00    +0.279 A 
ATOM      9  C   UNL     1      31.546 -23.399 -15.612  0.00  0.00    +0.047 C 
ATOM     10  C   UNL     1      30.462 -22.849 -16.257  0.00  0.00    +0.180 C 
ATOM     11  H   UNL     1      33.932 -24.417 -14.635  0.00  0.00    +0.154 HD
ENDROOT
BRANCH   2  13
ATOM     12 CL   UNL     1      40.061 -26.130 -14.198  0.00  0.00    -0.082 Cl
ATOM     13  C   UNL     1      35.877 -24.704 -15.090  0.00  0.00    +0.049 C 
ATOM     14  C   UNL     1      36.905 -23.779 -14.913  0.00  0.00    +0.016 C 
ATOM     15  C   UNL     1      36.141 -26.070 -14.990  0.00  0.00    +0.016 C 
ATOM     16  C   UNL     1      38.199 -24.220 -14.637  0.00  0.00    +0.013 C 
ATOM     17  C   UNL     1      37.435 -26.510 -14.714  0.00  0.00    +0.013 C 
ATOM     18  C   UNL     1      38.464 -25.585 -14.537  0.00  0.00    +0.058 C 
ENDBRANCH   2  13
BRANCH   8  19
ATOM     19  O   UNL     1      32.422 -21.771 -19.876  0.00  0.00    -0.452 OA
BRANCH  19  20
ATOM     20  C   UNL     1      32.434 -20.348 -19.891  0.00  0.00    +0.234 C 
BRANCH  20  22
ATOM     21  N   UNL     1      35.537 -19.006 -22.526  0.00  0.00    -0.239 NA
ATOM     22  C   UNL     1      33.520 -19.878 -20.815  0.00  0.00    +0.024 C 
ATOM     23  C   UNL     1      33.190 -19.319 -22.038  0.00  0.00    +0.023 C 
ATOM     24  C   UNL     1      34.848 -20.007 -20.437  0.00  0.00    +0.020 C 
ATOM     25  C   UNL     1      34.230 -18.900 -22.853  0.00  0.00    +0.134 C 
ATOM     26  C   UNL     1      35.813 -19.558 -21.323  0.00  0.00    +0.099 C 
BRANCH  25  29
ATOM     27  O   UNL     1      34.791 -17.573 -24.703  0.00  0.00    -0.268 OA
ATOM     28  N   UNL     1      32.720 -18.614 -24.740  0.00  0.00    -0.298 N 
ATOM     29  C   UNL     1      33.951 -18.305 -24.148  0.00  0.00    +0.264 C 
ATOM     30  C   UNL     1      32.307 -18.120 -26.034  0.00  0.00    +0.111 C 
ATOM     31  H   UNL     1      32.101 -19.200 -24.247  0.00  0.00    +0.150 HD
ENDBRANCH  25  29
ENDBRANCH  20  22
ENDBRANCH  19  20
ENDBRANCH   8  19
TORSDOF 5
ENDMDL
MODEL 5
REMARK VINA RESULT:     -11.5      4.360      7.438
REMARK  Name = 9808844
REMARK  5 active torsions:
REMARK  status: ('A' for Active; 'I' for Inactive)
REMARK    1  A    between atoms: N_2  and  C_13
REMARK    2  A    between atoms: C_8  and  O_19
REMARK    3  A    between atoms: O_19  and  C_20
REMARK    4  A    between atoms: C_20  and  C_22
REMARK    5  A    between atoms: C_25  and  C_29
REMARK                            x       y       z     vdW  Elec       q    Type
REMARK                         _______ _______ _______ _____ _____    ______ ____
ROOT
ATOM      1  O   UNL     1      32.896 -19.047 -25.439  0.00  0.00    -0.446 OA
ATOM      2  N   UNL     1      32.712 -14.360 -25.631  0.00  0.00    -0.296 N 
ATOM      3  N   UNL     1      34.300 -15.453 -24.219  0.00  0.00    -0.130 NA
ATOM      4  N   UNL     1      34.893 -16.592 -23.687  0.00  0.00    -0.106 NA
ATOM      5  C   UNL     1      32.840 -16.790 -25.504  0.00  0.00    +0.076 A 
ATOM      6  C   UNL     1      33.455 -17.905 -24.952  0.00  0.00    +0.202 A 
ATOM      7  C   UNL     1      33.289 -15.532 -25.114  0.00  0.00    +0.157 A 
ATOM      8  C   UNL     1      34.486 -17.827 -24.040  0.00  0.00    +0.279 A 
ATOM      9  C   UNL     1      31.844 -17.294 -26.381  0.00  0.00    +0.047 C 
ATOM     10  C   UNL     1      31.921 -18.666 -26.306  0.00  0.00    +0.180 C 
ATOM     11  H   UNL     1      31.985 -14.528 -26.273  0.00  0.00    +0.154 HD
ENDROOT
BRANCH   2  13
ATOM     12 CL   UNL     1      33.788  -8.609 -24.720  0.00  0.00    -0.082 Cl
ATOM     13  C   UNL     1      32.968 -12.989 -25.414  0.00  0.00    +0.049 C 
ATOM     14  C   UNL     1      33.267 -12.156 -26.492  0.00  0.00    +0.016 C 
ATOM     15  C   UNL     1      32.923 -12.467 -24.121  0.00  0.00    +0.016 C 
ATOM     16  C   UNL     1      33.520 -10.802 -26.278  0.00  0.00    +0.013 C 
ATOM     17  C   UNL     1      33.176 -11.113 -23.907  0.00  0.00    +0.013 C 
ATOM     18  C   UNL     1      33.474 -10.281 -24.985  0.00  0.00    +0.058 C 
ENDBRANCH   2  13
BRANCH   8  19
ATOM     19  O   UNL     1      35.099 -18.921 -23.489  0.00  0.00    -0.452 OA
BRANCH  19  20
ATOM     20  C   UNL     1      35.557 -18.792 -22.148  0.00  0.00    +0.234 C 
BRANCH  20  22
ATOM     21  N   UNL     1      33.119 -21.228 -19.600  0.00  0.00    -0.239 NA
ATOM     22  C   UNL     1      34.704 -19.646 -21.255  0.00  0.00    +0.024 C 
ATOM     23  C   UNL     1      35.294 -20.403 -20.257  0.00  0.00    +0.023 C 
ATOM     24  C   UNL     1      33.330 -19.671 -21.437  0.00  0.00    +0.020 C 
ATOM     25  C   UNL     1      34.462 -21.173 -19.460  0.00  0.00    +0.134 C 
ATOM     26  C   UNL     1      32.586 -20.473 -20.587  0.00  0.00    +0.099 C 
BRANCH  25  29
ATOM     27  O   UNL     1      34.439 -23.027 -18.025  0.00  0.00    -0.268 OA
ATOM     28  N   UNL     1      36.229 -21.566 -17.834  0.00  0.00    -0.298 N 
ATOM     29  C   UNL     1      35.017 -21.989 -18.395  0.00  0.00    +0.264 C 
ATOM     30  C   UNL     1      36.918 -22.283 -16.785  0.00  0.00    +0.111 C 
ATOM     31  H   UNL     1      36.634 -20.736 -18.174  0.00  0.00    +0.150 HD
ENDBRANCH  25  29
ENDBRANCH  20  22
ENDBRANCH  19  20
ENDBRANCH   8  19
TORSDOF 5
ENDMDL
MODEL 6
REMARK VINA RESULT:     -11.5      2.476      4.783
REMARK  Name = 9808844
REMARK  5 active torsions:
REMARK  status: ('A' for Active; 'I' for Inactive)
REMARK    1  A    between atoms: N_2  and  C_13
REMARK    2  A    between atoms: C_8  and  O_19
REMARK    3  A    between atoms: O_19  and  C_20
REMARK    4  A    between atoms: C_20  and  C_22
REMARK    5  A    between atoms: C_25  and  C_29
REMARK                            x       y       z     vdW  Elec       q    Type
REMARK                         _______ _______ _______ _____ _____    ______ ____
ROOT
ATOM      1  O   UNL     1      30.644 -24.196 -15.133  0.00  0.00    -0.446 OA
ATOM      2  N   UNL     1      32.187 -21.675 -18.780  0.00  0.00    -0.296 N 
ATOM      3  N   UNL     1      33.731 -22.807 -17.350  0.00  0.00    -0.130 NA
ATOM      4  N   UNL     1      34.032 -23.613 -16.258  0.00  0.00    -0.106 NA
ATOM      5  C   UNL     1      31.426 -22.994 -16.878  0.00  0.00    +0.076 A 
ATOM      6  C   UNL     1      31.764 -23.795 -15.795  0.00  0.00    +0.202 A 
ATOM      7  C   UNL     1      32.455 -22.493 -17.669  0.00  0.00    +0.157 A 
ATOM      8  C   UNL     1      33.064 -24.117 -15.468  0.00  0.00    +0.279 A 
ATOM      9  C   UNL     1      30.010 -22.908 -16.866  0.00  0.00    +0.047 C 
ATOM     10  C   UNL     1      29.585 -23.654 -15.790  0.00  0.00    +0.180 C 
ATOM     11  H   UNL     1      31.228 -21.507 -18.925  0.00  0.00    +0.154 HD
ENDROOT
BRANCH   2  13
ATOM     12 CL   UNL     1      35.679 -19.042 -22.771  0.00  0.00    -0.082 Cl
ATOM     13  C   UNL     1      33.020 -21.048 -19.732  0.00  0.00    +0.049 C 
ATOM     14  C   UNL     1      34.396 -21.267 -19.706  0.00  0.00    +0.016 C 
ATOM     15  C   UNL     1      32.465 -20.209 -20.698  0.00  0.00    +0.016 C 
ATOM     16  C   UNL     1      35.219 -20.647 -20.646  0.00  0.00    +0.013 C 
ATOM     17  C   UNL     1      33.287 -19.589 -21.638  0.00  0.00    +0.013 C 
ATOM     18  C   UNL     1      34.664 -19.808 -21.612  0.00  0.00    +0.058 C 
ENDBRANCH   2  13
BRANCH   8  19
ATOM     19  O   UNL     1      33.407 -24.906 -14.402  0.00  0.00    -0.452 OA
BRANCH  19  20
ATOM     20  C   UNL     1      33.659 -24.242 -13.169  0.00  0.00    +0.234 C 
BRANCH  20  22
ATOM     21  N   UNL     1      37.845 -24.491 -12.278  0.00  0.00    -0.239 NA
ATOM     22  C   UNL     1      35.125 -24.330 -12.858  0.00  0.00    +0.024 C 
ATOM     23  C   UNL     1      35.944 -25.146 -13.619  0.00  0.00    +0.023 C 
ATOM     24  C   UNL     1      35.650 -23.592 -11.807  0.00  0.00    +0.020 C 
ATOM     25  C   UNL     1      37.289 -25.191 -13.291  0.00  0.00    +0.134 C 
ATOM     26  C   UNL     1      37.008 -23.707 -11.560  0.00  0.00    +0.099 C 
BRANCH  25  29
ATOM     27  O   UNL     1      37.794 -27.059 -14.617  0.00  0.00    -0.268 OA
ATOM     28  N   UNL     1      39.534 -25.605 -14.134  0.00  0.00    -0.298 N 
ATOM     29  C   UNL     1      38.202 -26.027 -14.052  0.00  0.00    +0.264 C 
ATOM     30  C   UNL     1      40.554 -26.315 -14.872  0.00  0.00    +0.111 C 
ATOM     31  H   UNL     1      39.790 -24.779 -13.664  0.00  0.00    +0.150 HD
ENDBRANCH  25  29
ENDBRANCH  20  22
ENDBRANCH  19  20
ENDBRANCH   8  19
TORSDOF 5
ENDMDL
MODEL 7
REMARK VINA RESULT:     -11.4      6.123     11.986
REMARK  Name = 9808844
REMARK  5 active torsions:
REMARK  status: ('A' for Active; 'I' for Inactive)
REMARK    1  A    between atoms: N_2  and  C_13
REMARK    2  A    between atoms: C_8  and  O_19
REMARK    3  A    between atoms: O_19  and  C_20
REMARK    4  A    between atoms: C_20  and  C_22
REMARK    5  A    between atoms: C_25  and  C_29
REMARK                            x       y       z     vdW  Elec       q    Type
REMARK                         _______ _______ _______ _____ _____    ______ ____
ROOT
ATOM      1  O   UNL     1      34.337 -16.724 -24.836  0.00  0.00    -0.446 OA
ATOM      2  N   UNL     1      34.484 -20.131 -21.609  0.00  0.00    -0.296 N 
ATOM      3  N   UNL     1      34.759 -17.844 -20.970  0.00  0.00    -0.130 NA
ATOM      4  N   UNL     1      34.833 -16.487 -21.260  0.00  0.00    -0.106 NA
ATOM      5  C   UNL     1      34.413 -18.334 -23.253  0.00  0.00    +0.076 A 
ATOM      6  C   UNL     1      34.493 -16.971 -23.506  0.00  0.00    +0.202 A 
ATOM      7  C   UNL     1      34.553 -18.766 -21.938  0.00  0.00    +0.157 A 
ATOM      8  C   UNL     1      34.703 -16.030 -22.520  0.00  0.00    +0.279 A 
ATOM      9  C   UNL     1      34.195 -18.947 -24.514  0.00  0.00    +0.047 C 
ATOM     10  C   UNL     1      34.155 -17.929 -25.439  0.00  0.00    +0.180 C 
ATOM     11  H   UNL     1      34.331 -20.717 -22.385  0.00  0.00    +0.154 HD
ENDROOT
BRANCH   2  13
ATOM     12 CL   UNL     1      34.920 -23.058 -16.480  0.00  0.00    -0.082 Cl
ATOM     13  C   UNL     1      34.588 -20.828 -20.386  0.00  0.00    +0.049 C 
ATOM     14  C   UNL     1      35.835 -21.003 -19.787  0.00  0.00    +0.016 C 
ATOM     15  C   UNL     1      33.443 -21.343 -19.777  0.00  0.00    +0.016 C 
ATOM     16  C   UNL     1      35.938 -21.692 -18.579  0.00  0.00    +0.013 C 
ATOM     17  C   UNL     1      33.546 -22.032 -18.569  0.00  0.00    +0.013 C 
ATOM     18  C   UNL     1      34.793 -22.206 -17.971  0.00  0.00    +0.058 C 
ENDBRANCH   2  13
BRANCH   8  19
ATOM     19  O   UNL     1      34.784 -14.683 -22.761  0.00  0.00    -0.452 OA
BRANCH  19  20
ATOM     20  C   UNL     1      33.555 -13.966 -22.808  0.00  0.00    +0.234 C 
BRANCH  20  22
ATOM     21  N   UNL     1      33.548 -11.437 -26.269  0.00  0.00    -0.239 NA
ATOM     22  C   UNL     1      33.553 -13.080 -24.020  0.00  0.00    +0.024 C 
ATOM     23  C   UNL     1      34.117 -11.817 -23.950  0.00  0.00    +0.023 C 
ATOM     24  C   UNL     1      32.986 -13.531 -25.201  0.00  0.00    +0.020 C 
ATOM     25  C   UNL     1      34.090 -11.038 -25.096  0.00  0.00    +0.134 C 
ATOM     26  C   UNL     1      33.009 -12.676 -26.291  0.00  0.00    +0.099 C 
BRANCH  25  29
ATOM     27  O   UNL     1      35.509  -9.382 -24.233  0.00  0.00    -0.268 OA
ATOM     28  N   UNL     1      34.244  -8.825 -26.095  0.00  0.00    -0.298 N 
ATOM     29  C   UNL     1      34.665  -9.704 -25.090  0.00  0.00    +0.264 C 
ATOM     30  C   UNL     1      34.741  -7.475 -26.236  0.00  0.00    +0.111 C 
ATOM     31  H   UNL     1      33.574  -9.143 -26.741  0.00  0.00    +0.150 HD
ENDBRANCH  25  29
ENDBRANCH  20  22
ENDBRANCH  19  20
ENDBRANCH   8  19
TORSDOF 5
ENDMDL
MODEL 8
REMARK VINA RESULT:     -11.2      4.339      7.308
REMARK  Name = 9808844
REMARK  5 active torsions:
REMARK  status: ('A' for Active; 'I' for Inactive)
REMARK    1  A    between atoms: N_2  and  C_13
REMARK    2  A    between atoms: C_8  and  O_19
REMARK    3  A    between atoms: O_19  and  C_20
REMARK    4  A    between atoms: C_20  and  C_22
REMARK    5  A    between atoms: C_25  and  C_29
REMARK                            x       y       z     vdW  Elec       q    Type
REMARK                         _______ _______ _______ _____ _____    ______ ____
ROOT
ATOM      1  O   UNL     1      34.071 -18.315 -24.707  0.00  0.00    -0.446 OA
ATOM      2  N   UNL     1      33.483 -13.658 -24.640  0.00  0.00    -0.296 N 
ATOM      3  N   UNL     1      34.208 -14.817 -22.679  0.00  0.00    -0.130 NA
ATOM      4  N   UNL     1      34.559 -15.973 -21.993  0.00  0.00    -0.106 NA
ATOM      5  C   UNL     1      33.801 -16.074 -24.634  0.00  0.00    +0.076 A 
ATOM      6  C   UNL     1      34.158 -17.209 -23.918  0.00  0.00    +0.202 A 
ATOM      7  C   UNL     1      33.832 -14.848 -23.978  0.00  0.00    +0.157 A 
ATOM      8  C   UNL     1      34.541 -17.179 -22.594  0.00  0.00    +0.279 A 
ATOM      9  C   UNL     1      33.478 -16.528 -25.940  0.00  0.00    +0.047 C 
ATOM     10  C   UNL     1      33.659 -17.892 -25.932  0.00  0.00    +0.180 C 
ATOM     11  H   UNL     1      33.226 -13.791 -25.580  0.00  0.00    +0.154 HD
ENDROOT
BRANCH   2  13
ATOM     12 CL   UNL     1      33.259  -8.004 -22.898  0.00  0.00    -0.082 Cl
ATOM     13  C   UNL     1      33.430 -12.310 -24.224  0.00  0.00    +0.049 C 
ATOM     14  C   UNL     1      32.466 -11.903 -23.302  0.00  0.00    +0.016 C 
ATOM     15  C   UNL     1      34.341 -11.387 -24.736  0.00  0.00    +0.016 C 
ATOM     16  C   UNL     1      32.414 -10.571 -22.892  0.00  0.00    +0.013 C 
ATOM     17  C   UNL     1      34.289 -10.055 -24.325  0.00  0.00    +0.013 C 
ATOM     18  C   UNL     1      33.325  -9.648 -23.403  0.00  0.00    +0.058 C 
ENDBRANCH   2  13
BRANCH   8  19
ATOM     19  O   UNL     1      34.895 -18.294 -21.880  0.00  0.00    -0.452 OA
BRANCH  19  20
ATOM     20  C   UNL     1      33.849 -19.201 -21.550  0.00  0.00    +0.234 C 
BRANCH  20  22
ATOM     21  N   UNL     1      35.349 -22.110 -18.783  0.00  0.00    -0.239 NA
ATOM     22  C   UNL     1      34.373 -20.220 -20.581  0.00  0.00    +0.024 C 
ATOM     23  C   UNL     1      33.489 -20.994 -19.849  0.00  0.00    +0.023 C 
ATOM     24  C   UNL     1      35.742 -20.379 -20.423  0.00  0.00    +0.020 C 
ATOM     25  C   UNL     1      34.024 -21.920 -18.968  0.00  0.00    +0.134 C 
ATOM     26  C   UNL     1      36.176 -21.332 -19.517  0.00  0.00    +0.099 C 
BRANCH  25  29
ATOM     27  O   UNL     1      33.536 -23.879 -17.774  0.00  0.00    -0.268 OA
ATOM     28  N   UNL     1      31.883 -22.255 -17.861  0.00  0.00    -0.298 N 
ATOM     29  C   UNL     1      33.150 -22.764 -18.172  0.00  0.00    +0.264 C 
ATOM     30  C   UNL     1      30.911 -22.963 -17.060  0.00  0.00    +0.111 C 
ATOM     31  H   UNL     1      31.641 -21.366 -18.208  0.00  0.00    +0.150 HD
ENDBRANCH  25  29
ENDBRANCH  20  22
ENDBRANCH  19  20
ENDBRANCH   8  19
TORSDOF 5
ENDMDL
MODEL 9
REMARK VINA RESULT:     -11.2      1.377      3.339
REMARK  Name = 9808844
REMARK  5 active torsions:
REMARK  status: ('A' for Active; 'I' for Inactive)
REMARK    1  A    between atoms: N_2  and  C_13
REMARK    2  A    between atoms: C_8  and  O_19
REMARK    3  A    between atoms: O_19  and  C_20
REMARK    4  A    between atoms: C_20  and  C_22
REMARK    5  A    between atoms: C_25  and  C_29
REMARK                            x       y       z     vdW  Elec       q    Type
REMARK                         _______ _______ _______ _____ _____    ______ ____
ROOT
ATOM      1  O   UNL     1      34.073 -22.685 -17.895  0.00  0.00    -0.446 OA
ATOM      2  N   UNL     1      33.646 -19.712 -21.503  0.00  0.00    -0.296 N 
ATOM      3  N   UNL     1      35.786 -20.136 -20.530  0.00  0.00    -0.130 NA
ATOM      4  N   UNL     1      36.615 -20.762 -19.607  0.00  0.00    -0.106 NA
ATOM      5  C   UNL     1      33.909 -21.248 -19.630  0.00  0.00    +0.076 A 
ATOM      6  C   UNL     1      34.766 -21.855 -18.723  0.00  0.00    +0.202 A 
ATOM      7  C   UNL     1      34.453 -20.363 -20.555  0.00  0.00    +0.157 A 
ATOM      8  C   UNL     1      36.126 -21.625 -18.695  0.00  0.00    +0.279 A 
ATOM      9  C   UNL     1      32.614 -21.744 -19.329  0.00  0.00    +0.047 C 
ATOM     10  C   UNL     1      32.768 -22.611 -18.271  0.00  0.00    +0.180 C 
ATOM     11  H   UNL     1      32.692 -19.946 -21.437  0.00  0.00    +0.154 HD
ENDROOT
BRANCH   2  13
ATOM     12 CL   UNL     1      34.838 -15.841 -25.822  0.00  0.00    -0.082 Cl
ATOM     13  C   UNL     1      33.930 -18.789 -22.533  0.00  0.00    +0.049 C 
ATOM     14  C   UNL     1      33.617 -19.102 -23.855  0.00  0.00    +0.016 C 
ATOM     15  C   UNL     1      34.522 -17.564 -22.227  0.00  0.00    +0.016 C 
ATOM     16  C   UNL     1      33.898 -18.190 -24.873  0.00  0.00    +0.013 C 
ATOM     17  C   UNL     1      34.803 -16.652 -23.244  0.00  0.00    +0.013 C 
ATOM     18  C   UNL     1      34.490 -16.965 -24.567  0.00  0.00    +0.058 C 
ENDBRANCH   2  13
BRANCH   8  19
ATOM     19  O   UNL     1      36.979 -22.220 -17.803  0.00  0.00    -0.452 OA
BRANCH  19  20
ATOM     20  C   UNL     1      36.931 -21.750 -16.461  0.00  0.00    +0.234 C 
BRANCH  20  22
ATOM     21  N   UNL     1      36.332 -25.086 -13.836  0.00  0.00    -0.239 NA
ATOM     22  C   UNL     1      36.720 -22.918 -15.541  0.00  0.00    +0.024 C 
ATOM     23  C   UNL     1      35.500 -23.086 -14.909  0.00  0.00    +0.023 C 
ATOM     24  C   UNL     1      37.751 -23.821 -15.330  0.00  0.00    +0.020 C 
ATOM     25  C   UNL     1      35.357 -24.180 -14.071  0.00  0.00    +0.134 C 
ATOM     26  C   UNL     1      37.507 -24.882 -14.473  0.00  0.00    +0.099 C 
BRANCH  25  29
ATOM     27  O   UNL     1      34.043 -24.357 -12.136  0.00  0.00    -0.268 OA
ATOM     28  N   UNL     1      32.977 -24.677 -14.170  0.00  0.00    -0.298 N 
ATOM     29  C   UNL     1      34.102 -24.414 -13.378  0.00  0.00    +0.264 C 
ATOM     30  C   UNL     1      31.655 -24.906 -13.631  0.00  0.00    +0.111 C 
ATOM     31  H   UNL     1      33.092 -24.706 -15.147  0.00  0.00    +0.150 HD
ENDBRANCH  25  29
ENDBRANCH  20  22
ENDBRANCH  19  20
ENDBRANCH   8  19
TORSDOF 5
ENDMDL
