MODEL 1
REMARK VINA RESULT:     -13.2      0.000      0.000
REMARK  Name = 10297043
REMARK  6 active torsions:
REMARK  status: ('A' for Active; 'I' for Inactive)
REMARK    1  A    between atoms: N_2  and  C_30
REMARK    2  A    between atoms: C_5  and  C_16
REMARK    3  A    between atoms: C_13  and  C_19
REMARK    4  A    between atoms: C_19  and  N_20
REMARK    5  A    between atoms: N_21  and  C_28
REMARK    6  A    between atoms: C_30  and  C_32
REMARK                            x       y       z     vdW  Elec       q    Type
REMARK                         _______ _______ _______ _____ _____    ______ ____
ROOT
ATOM      1  N   UNL     1      32.171 -21.828 -18.710  0.00  0.00    -0.301 N 
ATOM      2  N   UNL     1      34.702 -23.976 -15.432  0.00  0.00    -0.319 N 
ATOM      3  N   UNL     1      30.908 -23.026 -17.042  0.00  0.00    -0.233 NA
ATOM      4  N   UNL     1      32.319 -24.110 -15.379  0.00  0.00    -0.233 NA
ATOM      5  C   UNL     1      33.494 -21.591 -18.977  0.00  0.00    +0.046 C 
ATOM      6  C   UNL     1      33.345 -22.869 -17.124  0.00  0.00    +0.131 C 
ATOM      7  C   UNL     1      34.246 -22.224 -18.009  0.00  0.00    +0.003 C 
ATOM      8  C   UNL     1      32.062 -22.605 -17.587  0.00  0.00    +0.117 C 
ATOM      9  C   UNL     1      33.445 -23.654 -15.976  0.00  0.00    +0.113 C 
ATOM     10  C   UNL     1      31.136 -23.773 -15.942  0.00  0.00    +0.252 C 
ATOM     11  H   UNL     1      31.415 -21.493 -19.244  0.00  0.00    +0.153 HD
ATOM     12  H   UNL     1      35.509 -23.635 -15.881  0.00  0.00    +0.148 HD
ENDROOT
BRANCH   5  16
ATOM     13  C   UNL     1      34.728 -19.278 -22.287  0.00  0.00    -0.043 C 
ATOM     14  C   UNL     1      33.374 -19.394 -21.995  0.00  0.00    -0.006 C 
ATOM     15  C   UNL     1      35.681 -19.916 -21.501  0.00  0.00    -0.006 C 
ATOM     16  C   UNL     1      33.916 -20.801 -20.107  0.00  0.00    +0.013 C 
ATOM     17  C   UNL     1      32.967 -20.157 -20.901  0.00  0.00    +0.001 C 
ATOM     18  C   UNL     1      35.273 -20.680 -20.407  0.00  0.00    +0.001 C 
BRANCH  13  19
ATOM     19  C   UNL     1      35.167 -18.457 -23.465  0.00  0.00    -0.050 C 
BRANCH  19  20
ATOM     20  N   UNL     1      34.030 -17.935 -24.221  0.00  0.00    +0.387 N 
ATOM     21  N   UNL     1      32.806 -16.831 -26.596  0.00  0.00    +0.384 N 
ATOM     22  C   UNL     1      34.268 -16.543 -24.624  0.00  0.00    -0.100 C 
ATOM     23  C   UNL     1      33.758 -18.771 -25.396  0.00  0.00    -0.100 C 
ATOM     24  C   UNL     1      33.079 -15.995 -25.420  0.00  0.00    -0.101 C 
ATOM     25  C   UNL     1      32.568 -18.221 -26.191  0.00  0.00    -0.101 C 
ATOM     26  H   UNL     1      33.211 -17.958 -23.613  0.00  0.00    -0.079 HD
ATOM     27  H   UNL     1      33.626 -16.809 -27.203  0.00  0.00    -0.080 HD
BRANCH  21  28
ATOM     28  C   UNL     1      31.671 -16.309 -27.353  0.00  0.00    -0.078 C 
ATOM     29  C   UNL     1      31.845 -14.829 -27.653  0.00  0.00    -0.025 C 
ENDBRANCH  21  28
ENDBRANCH  19  20
ENDBRANCH  13  19
ENDBRANCH   5  16
BRANCH   2  30
ATOM     30  C   UNL     1      34.863 -24.778 -14.257  0.00  0.00    +0.093 C 
ATOM     31  C   UNL     1      34.320 -24.014 -13.051  0.00  0.00    +0.026 C 
BRANCH  30  32
ATOM     32  C   UNL     1      36.310 -25.190 -14.096  0.00  0.00    -0.005 C 
ATOM     33  C   UNL     1      37.091 -24.557 -13.144  0.00  0.00    -0.003 C 
ATOM     34  C   UNL     1      36.822 -26.190 -14.904  0.00  0.00    -0.003 C 
ATOM     35  C   UNL     1      38.424 -24.936 -12.996  0.00  0.00    -0.000 C 
ATOM     36  C   UNL     1      38.156 -26.569 -14.756  0.00  0.00    -0.000 C 
ATOM     37  C   UNL     1      38.957 -25.942 -13.802  0.00  0.00    -0.000 C 
ENDBRANCH  30  32
ENDBRANCH   2  30
TORSDOF 6
ENDMDL
MODEL 2
REMARK VINA RESULT:     -13.1      1.340      2.017
REMARK  Name = 10297043
REMARK  6 active torsions:
REMARK  status: ('A' for Active; 'I' for Inactive)
REMARK    1  A    between atoms: N_2  and  C_30
REMARK    2  A    between atoms: C_5  and  C_16
REMARK    3  A    between atoms: C_13  and  C_19
REMARK    4  A    between atoms: C_19  and  N_20
REMARK    5  A    between atoms: N_21  and  C_28
REMARK    6  A    between atoms: C_30  and  C_32
REMARK                            x       y       z     vdW  Elec       q    Type
REMARK                         _______ _______ _______ _____ _____    ______ ____
ROOT
ATOM      1  N   UNL     1      32.041 -22.026 -18.459  0.00  0.00    -0.301 N 
ATOM      2  N   UNL     1      34.785 -24.058 -15.281  0.00  0.00    -0.319 N 
ATOM      3  N   UNL     1      30.894 -23.233 -16.716  0.00  0.00    -0.233 NA
ATOM      4  N   UNL     1      32.412 -24.255 -15.111  0.00  0.00    -0.233 NA
ATOM      5  C   UNL     1      33.344 -21.757 -18.793  0.00  0.00    +0.046 C 
ATOM      6  C   UNL     1      33.319 -23.012 -16.919  0.00  0.00    +0.131 C 
ATOM      7  C   UNL     1      34.158 -22.356 -17.855  0.00  0.00    +0.003 C 
ATOM      8  C   UNL     1      32.008 -22.789 -17.322  0.00  0.00    +0.117 C 
ATOM      9  C   UNL     1      33.496 -23.778 -15.767  0.00  0.00    +0.113 C 
ATOM     10  C   UNL     1      31.195 -23.958 -15.619  0.00  0.00    +0.252 C 
ATOM     11  H   UNL     1      31.252 -21.718 -18.960  0.00  0.00    +0.153 HD
ATOM     12  H   UNL     1      35.560 -23.702 -15.773  0.00  0.00    +0.148 HD
ENDROOT
BRANCH   5  16
ATOM     13  C   UNL     1      34.353 -19.460 -22.189  0.00  0.00    -0.043 C 
ATOM     14  C   UNL     1      33.017 -19.624 -21.842  0.00  0.00    -0.006 C 
ATOM     15  C   UNL     1      35.361 -20.043 -21.430  0.00  0.00    -0.006 C 
ATOM     16  C   UNL     1      33.689 -20.972 -19.953  0.00  0.00    +0.013 C 
ATOM     17  C   UNL     1      32.684 -20.383 -20.720  0.00  0.00    +0.001 C 
ATOM     18  C   UNL     1      35.027 -20.801 -20.308  0.00  0.00    +0.001 C 
BRANCH  13  19
ATOM     19  C   UNL     1      34.712 -18.643 -23.397  0.00  0.00    -0.050 C 
BRANCH  19  20
ATOM     20  N   UNL     1      34.133 -17.303 -23.342  0.00  0.00    +0.387 N 
ATOM     21  N   UNL     1      34.230 -14.439 -23.724  0.00  0.00    +0.384 N 
ATOM     22  C   UNL     1      34.905 -16.439 -22.439  0.00  0.00    -0.100 C 
ATOM     23  C   UNL     1      34.062 -16.710 -24.683  0.00  0.00    -0.100 C 
ATOM     24  C   UNL     1      34.302 -15.031 -22.383  0.00  0.00    -0.101 C 
ATOM     25  C   UNL     1      33.458 -15.302 -24.625  0.00  0.00    -0.101 C 
ATOM     26  H   UNL     1      33.184 -17.385 -22.975  0.00  0.00    -0.079 HD
ATOM     27  H   UNL     1      35.179 -14.358 -24.091  0.00  0.00    -0.080 HD
BRANCH  21  28
ATOM     28  C   UNL     1      33.653 -13.097 -23.669  0.00  0.00    -0.078 C 
ATOM     29  C   UNL     1      32.630 -12.985 -22.551  0.00  0.00    -0.025 C 
ENDBRANCH  21  28
ENDBRANCH  19  20
ENDBRANCH  13  19
ENDBRANCH   5  16
BRANCH   2  30
ATOM     30  C   UNL     1      35.024 -24.839 -14.104  0.00  0.00    +0.093 C 
ATOM     31  C   UNL     1      34.524 -24.070 -12.883  0.00  0.00    +0.026 C 
BRANCH  30  32
ATOM     32  C   UNL     1      36.487 -25.214 -14.011  0.00  0.00    -0.005 C 
ATOM     33  C   UNL     1      36.967 -26.257 -14.786  0.00  0.00    -0.003 C 
ATOM     34  C   UNL     1      37.314 -24.509 -13.155  0.00  0.00    -0.003 C 
ATOM     35  C   UNL     1      38.315 -26.604 -14.700  0.00  0.00    -0.000 C 
ATOM     36  C   UNL     1      38.662 -24.856 -13.069  0.00  0.00    -0.000 C 
ATOM     37  C   UNL     1      39.162 -25.904 -13.842  0.00  0.00    -0.000 C 
ENDBRANCH  30  32
ENDBRANCH   2  30
TORSDOF 6
ENDMDL
MODEL 3
REMARK VINA RESULT:     -12.2      4.583     12.807
REMARK  Name = 10297043
REMARK  6 active torsions:
REMARK  status: ('A' for Active; 'I' for Inactive)
REMARK    1  A    between atoms: N_2  and  C_30
REMARK    2  A    between atoms: C_5  and  C_16
REMARK    3  A    between atoms: C_13  and  C_19
REMARK    4  A    between atoms: C_19  and  N_20
REMARK    5  A    between atoms: N_21  and  C_28
REMARK    6  A    between atoms: C_30  and  C_32
REMARK                            x       y       z     vdW  Elec       q    Type
REMARK                         _______ _______ _______ _____ _____    ______ ____
ROOT
ATOM      1  N   UNL     1      33.490 -15.550 -24.979  0.00  0.00    -0.301 N 
ATOM      2  N   UNL     1      33.796 -11.050 -23.785  0.00  0.00    -0.319 N 
ATOM      3  N   UNL     1      32.567 -13.988 -26.568  0.00  0.00    -0.233 NA
ATOM      4  N   UNL     1      32.777 -11.670 -25.853  0.00  0.00    -0.233 NA
ATOM      5  C   UNL     1      34.111 -15.479 -23.758  0.00  0.00    +0.046 C 
ATOM      6  C   UNL     1      33.617 -13.387 -24.445  0.00  0.00    +0.131 C 
ATOM      7  C   UNL     1      34.204 -14.150 -23.403  0.00  0.00    +0.003 C 
ATOM      8  C   UNL     1      33.182 -14.286 -25.410  0.00  0.00    +0.117 C 
ATOM      9  C   UNL     1      33.391 -12.035 -24.703  0.00  0.00    +0.113 C 
ATOM     10  C   UNL     1      32.407 -12.656 -26.702  0.00  0.00    +0.252 C 
ATOM     11  H   UNL     1      33.295 -16.381 -25.469  0.00  0.00    +0.153 HD
ATOM     12  H   UNL     1      34.241 -11.336 -22.955  0.00  0.00    +0.148 HD
ENDROOT
BRANCH   5  16
ATOM     13  C   UNL     1      35.394 -18.933 -21.698  0.00  0.00    -0.043 C 
ATOM     14  C   UNL     1      35.120 -19.006 -23.059  0.00  0.00    -0.006 C 
ATOM     15  C   UNL     1      35.251 -17.736 -21.008  0.00  0.00    -0.006 C 
ATOM     16  C   UNL     1      34.550 -16.659 -23.054  0.00  0.00    +0.013 C 
ATOM     17  C   UNL     1      34.697 -17.864 -23.739  0.00  0.00    +0.001 C 
ATOM     18  C   UNL     1      34.827 -16.594 -21.689  0.00  0.00    +0.001 C 
BRANCH  13  19
ATOM     19  C   UNL     1      35.850 -20.162 -20.965  0.00  0.00    -0.050 C 
BRANCH  19  20
ATOM     20  N   UNL     1      34.908 -20.554 -19.918  0.00  0.00    +0.387 N 
ATOM     21  N   UNL     1      33.096 -22.415 -18.650  0.00  0.00    +0.384 N 
ATOM     22  C   UNL     1      33.584 -20.837 -20.487  0.00  0.00    -0.100 C 
ATOM     23  C   UNL     1      35.408 -21.718 -19.176  0.00  0.00    -0.100 C 
ATOM     24  C   UNL     1      32.596 -21.251 -19.391  0.00  0.00    -0.101 C 
ATOM     25  C   UNL     1      34.419 -22.131 -18.081  0.00  0.00    -0.101 C 
ATOM     26  H   UNL     1      34.818 -19.772 -19.268  0.00  0.00    -0.079 HD
ATOM     27  H   UNL     1      33.188 -23.196 -19.300  0.00  0.00    -0.080 HD
BRANCH  21  28
ATOM     28  C   UNL     1      32.154 -22.809 -17.604  0.00  0.00    -0.078 C 
ATOM     29  C   UNL     1      32.870 -23.484 -16.446  0.00  0.00    -0.025 C 
ENDBRANCH  21  28
ENDBRANCH  19  20
ENDBRANCH  13  19
ENDBRANCH   5  16
BRANCH   2  30
ATOM     30  C   UNL     1      33.589  -9.649 -24.000  0.00  0.00    +0.093 C 
ATOM     31  C   UNL     1      34.918  -8.998 -24.374  0.00  0.00    +0.026 C 
BRANCH  30  32
ATOM     32  C   UNL     1      32.941  -9.022 -22.785  0.00  0.00    -0.005 C 
ATOM     33  C   UNL     1      31.901  -9.684 -22.156  0.00  0.00    -0.003 C 
ATOM     34  C   UNL     1      33.402  -7.799 -22.328  0.00  0.00    -0.003 C 
ATOM     35  C   UNL     1      31.303  -9.106 -21.037  0.00  0.00    -0.000 C 
ATOM     36  C   UNL     1      32.805  -7.221 -21.209  0.00  0.00    -0.000 C 
ATOM     37  C   UNL     1      31.755  -7.874 -20.563  0.00  0.00    -0.000 C 
ENDBRANCH  30  32
ENDBRANCH   2  30
TORSDOF 6
ENDMDL
MODEL 4
REMARK VINA RESULT:     -12.1      3.601     12.194
REMARK  Name = 10297043
REMARK  6 active torsions:
REMARK  status: ('A' for Active; 'I' for Inactive)
REMARK    1  A    between atoms: N_2  and  C_30
REMARK    2  A    between atoms: C_5  and  C_16
REMARK    3  A    between atoms: C_13  and  C_19
REMARK    4  A    between atoms: C_19  and  N_20
REMARK    5  A    between atoms: N_21  and  C_28
REMARK    6  A    between atoms: C_30  and  C_32
REMARK                            x       y       z     vdW  Elec       q    Type
REMARK                         _______ _______ _______ _____ _____    ______ ____
ROOT
ATOM      1  N   UNL     1      34.213 -17.443 -24.457  0.00  0.00    -0.301 N 
ATOM      2  N   UNL     1      33.444 -12.923 -23.594  0.00  0.00    -0.319 N 
ATOM      3  N   UNL     1      33.468 -16.137 -26.342  0.00  0.00    -0.233 NA
ATOM      4  N   UNL     1      33.096 -13.795 -25.788  0.00  0.00    -0.233 NA
ATOM      5  C   UNL     1      34.487 -17.214 -23.133  0.00  0.00    +0.046 C 
ATOM      6  C   UNL     1      33.834 -15.275 -24.085  0.00  0.00    +0.131 C 
ATOM      7  C   UNL     1      34.261 -15.878 -22.874  0.00  0.00    +0.003 C 
ATOM      8  C   UNL     1      33.814 -16.274 -25.051  0.00  0.00    +0.117 C 
ATOM      9  C   UNL     1      33.455 -13.999 -24.499  0.00  0.00    +0.113 C 
ATOM     10  C   UNL     1      33.124 -14.863 -26.618  0.00  0.00    +0.252 C 
ATOM     11  H   UNL     1      34.291 -18.313 -24.910  0.00  0.00    +0.153 HD
ATOM     12  H   UNL     1      33.709 -13.092 -22.660  0.00  0.00    +0.148 HD
ENDROOT
BRANCH   5  16
ATOM     13  C   UNL     1      35.779 -20.295 -20.551  0.00  0.00    -0.043 C 
ATOM     14  C   UNL     1      36.709 -19.409 -21.085  0.00  0.00    -0.006 C 
ATOM     15  C   UNL     1      34.429 -20.177 -20.858  0.00  0.00    -0.006 C 
ATOM     16  C   UNL     1      34.928 -18.266 -22.251  0.00  0.00    +0.013 C 
ATOM     17  C   UNL     1      36.281 -18.391 -21.937  0.00  0.00    +0.001 C 
ATOM     18  C   UNL     1      34.002 -19.159 -21.711  0.00  0.00    +0.001 C 
BRANCH  13  19
ATOM     19  C   UNL     1      36.239 -21.391 -19.634  0.00  0.00    -0.050 C 
BRANCH  19  20
ATOM     20  N   UNL     1      35.286 -21.633 -18.552  0.00  0.00    +0.387 N 
ATOM     21  N   UNL     1      33.942 -23.333 -16.639  0.00  0.00    +0.384 N 
ATOM     22  C   UNL     1      34.251 -22.586 -18.974  0.00  0.00    -0.100 C 
ATOM     23  C   UNL     1      35.974 -22.121 -17.351  0.00  0.00    -0.100 C 
ATOM     24  C   UNL     1      33.253 -22.846 -17.840  0.00  0.00    -0.101 C 
ATOM     25  C   UNL     1      34.975 -22.379 -16.218  0.00  0.00    -0.101 C 
ATOM     26  H   UNL     1      34.834 -20.747 -18.327  0.00  0.00    -0.079 HD
ATOM     27  H   UNL     1      34.395 -24.219 -16.865  0.00  0.00    -0.080 HD
BRANCH  21  28
ATOM     28  C   UNL     1      32.989 -23.577 -15.558  0.00  0.00    -0.078 C 
ATOM     29  C   UNL     1      31.560 -23.361 -16.025  0.00  0.00    -0.025 C 
ENDBRANCH  21  28
ENDBRANCH  19  20
ENDBRANCH  13  19
ENDBRANCH   5  16
BRANCH   2  30
ATOM     30  C   UNL     1      33.064 -11.593 -23.965  0.00  0.00    +0.093 C 
ATOM     31  C   UNL     1      34.312 -10.806 -24.355  0.00  0.00    +0.026 C 
BRANCH  30  32
ATOM     32  C   UNL     1      32.275 -10.942 -22.850  0.00  0.00    -0.005 C 
ATOM     33  C   UNL     1      31.652 -11.742 -21.907  0.00  0.00    -0.003 C 
ATOM     34  C   UNL     1      32.192  -9.561 -22.796  0.00  0.00    -0.003 C 
ATOM     35  C   UNL     1      30.925 -11.142 -20.879  0.00  0.00    -0.000 C 
ATOM     36  C   UNL     1      31.465  -8.962 -21.769  0.00  0.00    -0.000 C 
ATOM     37  C   UNL     1      30.831  -9.752 -20.811  0.00  0.00    -0.000 C 
ENDBRANCH  30  32
ENDBRANCH   2  30
TORSDOF 6
ENDMDL
MODEL 5
REMARK VINA RESULT:     -11.9      3.089     12.489
REMARK  Name = 10297043
REMARK  6 active torsions:
REMARK  status: ('A' for Active; 'I' for Inactive)
REMARK    1  A    between atoms: N_2  and  C_30
REMARK    2  A    between atoms: C_5  and  C_16
REMARK    3  A    between atoms: C_13  and  C_19
REMARK    4  A    between atoms: C_19  and  N_20
REMARK    5  A    between atoms: N_21  and  C_28
REMARK    6  A    between atoms: C_30  and  C_32
REMARK                            x       y       z     vdW  Elec       q    Type
REMARK                         _______ _______ _______ _____ _____    ______ ____
ROOT
ATOM      1  N   UNL     1      33.313 -18.084 -24.856  0.00  0.00    -0.301 N 
ATOM      2  N   UNL     1      33.533 -13.464 -25.470  0.00  0.00    -0.319 N 
ATOM      3  N   UNL     1      32.103 -17.230 -26.759  0.00  0.00    -0.233 NA
ATOM      4  N   UNL     1      32.281 -14.813 -26.991  0.00  0.00    -0.233 NA
ATOM      5  C   UNL     1      34.088 -17.562 -23.852  0.00  0.00    +0.046 C 
ATOM      6  C   UNL     1      33.394 -15.878 -25.185  0.00  0.00    +0.131 C 
ATOM      7  C   UNL     1      34.155 -16.196 -24.031  0.00  0.00    +0.003 C 
ATOM      8  C   UNL     1      32.882 -17.074 -25.675  0.00  0.00    +0.117 C 
ATOM      9  C   UNL     1      33.063 -14.722 -25.889  0.00  0.00    +0.113 C 
ATOM     10  C   UNL     1      31.855 -16.044 -27.352  0.00  0.00    +0.252 C 
ATOM     11  H   UNL     1      33.100 -19.038 -24.971  0.00  0.00    +0.153 HD
ATOM     12  H   UNL     1      34.101 -13.420 -24.666  0.00  0.00    +0.148 HD
ENDROOT
BRANCH   5  16
ATOM     13  C   UNL     1      35.820 -19.994 -20.868  0.00  0.00    -0.043 C 
ATOM     14  C   UNL     1      34.457 -20.089 -21.127  0.00  0.00    -0.006 C 
ATOM     15  C   UNL     1      36.619 -19.108 -21.580  0.00  0.00    -0.006 C 
ATOM     16  C   UNL     1      34.680 -18.393 -22.833  0.00  0.00    +0.013 C 
ATOM     17  C   UNL     1      33.886 -19.286 -22.114  0.00  0.00    +0.001 C 
ATOM     18  C   UNL     1      36.046 -18.305 -22.567  0.00  0.00    +0.001 C 
BRANCH  13  19
ATOM     19  C   UNL     1      36.436 -20.859 -19.806  0.00  0.00    -0.050 C 
BRANCH  19  20
ATOM     20  N   UNL     1      35.466 -21.240 -18.781  0.00  0.00    +0.387 N 
ATOM     21  N   UNL     1      34.128 -23.168 -17.093  0.00  0.00    +0.384 N 
ATOM     22  C   UNL     1      34.470 -22.171 -19.328  0.00  0.00    -0.100 C 
ATOM     23  C   UNL     1      36.139 -21.833 -17.619  0.00  0.00    -0.100 C 
ATOM     24  C   UNL     1      33.454 -22.575 -18.255  0.00  0.00    -0.101 C 
ATOM     25  C   UNL     1      35.121 -22.236 -16.547  0.00  0.00    -0.101 C 
ATOM     26  H   UNL     1      34.982 -20.395 -18.476  0.00  0.00    -0.079 HD
ATOM     27  H   UNL     1      34.613 -24.012 -17.398  0.00  0.00    -0.080 HD
BRANCH  21  28
ATOM     28  C   UNL     1      33.158 -23.551 -16.069  0.00  0.00    -0.078 C 
ATOM     29  C   UNL     1      31.736 -23.283 -16.532  0.00  0.00    -0.025 C 
ENDBRANCH  21  28
ENDBRANCH  19  20
ENDBRANCH  13  19
ENDBRANCH   5  16
BRANCH   2  30
ATOM     30  C   UNL     1      33.224 -12.246 -26.155  0.00  0.00    +0.093 C 
ATOM     31  C   UNL     1      33.745 -12.331 -27.588  0.00  0.00    +0.026 C 
BRANCH  30  32
ATOM     32  C   UNL     1      33.774 -11.060 -25.393  0.00  0.00    -0.005 C 
ATOM     33  C   UNL     1      32.991 -10.458 -24.423  0.00  0.00    -0.003 C 
ATOM     34  C   UNL     1      35.048 -10.603 -25.681  0.00  0.00    -0.003 C 
ATOM     35  C   UNL     1      33.497  -9.365 -23.721  0.00  0.00    -0.000 C 
ATOM     36  C   UNL     1      35.554  -9.510 -24.979  0.00  0.00    -0.000 C 
ATOM     37  C   UNL     1      34.779  -8.891 -23.999  0.00  0.00    -0.000 C 
ENDBRANCH  30  32
ENDBRANCH   2  30
TORSDOF 6
ENDMDL
MODEL 6
REMARK VINA RESULT:     -11.2      7.279     12.400
REMARK  Name = 10297043
REMARK  6 active torsions:
REMARK  status: ('A' for Active; 'I' for Inactive)
REMARK    1  A    between atoms: N_2  and  C_30
REMARK    2  A    between atoms: C_5  and  C_16
REMARK    3  A    between atoms: C_13  and  C_19
REMARK    4  A    between atoms: C_19  and  N_20
REMARK    5  A    between atoms: N_21  and  C_28
REMARK    6  A    between atoms: C_30  and  C_32
REMARK                            x       y       z     vdW  Elec       q    Type
REMARK                         _______ _______ _______ _____ _____    ______ ____
ROOT
ATOM      1  N   UNL     1      32.839 -11.810 -25.769  0.00  0.00    -0.301 N 
ATOM      2  N   UNL     1      33.809 -16.170 -24.421  0.00  0.00    -0.319 N 
ATOM      3  N   UNL     1      32.858 -13.461 -27.526  0.00  0.00    -0.233 NA
ATOM      4  N   UNL     1      33.373 -15.700 -26.721  0.00  0.00    -0.233 NA
ATOM      5  C   UNL     1      33.045 -11.796 -24.414  0.00  0.00    +0.046 C 
ATOM      6  C   UNL     1      33.298 -13.909 -25.165  0.00  0.00    +0.131 C 
ATOM      7  C   UNL     1      33.331 -13.084 -24.012  0.00  0.00    +0.003 C 
ATOM      8  C   UNL     1      32.990 -13.087 -26.242  0.00  0.00    +0.117 C 
ATOM      9  C   UNL     1      33.492 -15.261 -25.446  0.00  0.00    +0.113 C 
ATOM     10  C   UNL     1      33.068 -14.786 -27.669  0.00  0.00    +0.252 C 
ATOM     11  H   UNL     1      32.617 -11.024 -26.318  0.00  0.00    +0.153 HD
ATOM     12  H   UNL     1      33.891 -15.830 -23.500  0.00  0.00    +0.148 HD
ENDROOT
BRANCH   5  16
ATOM     13  C   UNL     1      32.782  -8.244 -22.147  0.00  0.00    -0.043 C 
ATOM     14  C   UNL     1      33.696  -8.327 -23.191  0.00  0.00    -0.006 C 
ATOM     15  C   UNL     1      31.954  -9.317 -21.841  0.00  0.00    -0.006 C 
ATOM     16  C   UNL     1      32.954 -10.583 -23.639  0.00  0.00    +0.013 C 
ATOM     17  C   UNL     1      33.782  -9.501 -23.940  0.00  0.00    +0.001 C 
ATOM     18  C   UNL     1      32.040 -10.490 -22.590  0.00  0.00    +0.001 C 
BRANCH  13  19
ATOM     19  C   UNL     1      32.689  -6.981 -21.340  0.00  0.00    -0.050 C 
BRANCH  19  20
ATOM     20  N   UNL     1      31.786  -6.008 -21.952  0.00  0.00    +0.387 N 
ATOM     21  N   UNL     1      30.580  -3.388 -22.154  0.00  0.00    +0.384 N 
ATOM     22  C   UNL     1      30.776  -5.557 -20.986  0.00  0.00    -0.100 C 
ATOM     23  C   UNL     1      32.535  -4.862 -22.482  0.00  0.00    -0.100 C 
ATOM     24  C   UNL     1      29.830  -4.533 -21.623  0.00  0.00    -0.101 C 
ATOM     25  C   UNL     1      31.588  -3.840 -23.120  0.00  0.00    -0.101 C 
ATOM     26  H   UNL     1      31.307  -6.466 -22.727  0.00  0.00    -0.079 HD
ATOM     27  H   UNL     1      31.060  -2.930 -21.379  0.00  0.00    -0.080 HD
BRANCH  21  28
ATOM     28  C   UNL     1      29.677  -2.414 -22.764  0.00  0.00    -0.078 C 
ATOM     29  C   UNL     1      29.981  -2.232 -24.241  0.00  0.00    -0.025 C 
ENDBRANCH  21  28
ENDBRANCH  19  20
ENDBRANCH  13  19
ENDBRANCH   5  16
BRANCH   2  30
ATOM     30  C   UNL     1      34.018 -17.567 -24.654  0.00  0.00    +0.093 C 
ATOM     31  C   UNL     1      32.747 -18.173 -25.245  0.00  0.00    +0.026 C 
BRANCH  30  32
ATOM     32  C   UNL     1      34.464 -18.251 -23.379  0.00  0.00    -0.005 C 
ATOM     33  C   UNL     1      35.746 -18.027 -22.906  0.00  0.00    -0.003 C 
ATOM     34  C   UNL     1      33.582 -19.085 -22.714  0.00  0.00    -0.003 C 
ATOM     35  C   UNL     1      36.157 -18.656 -21.732  0.00  0.00    -0.000 C 
ATOM     36  C   UNL     1      33.994 -19.715 -21.541  0.00  0.00    -0.000 C 
ATOM     37  C   UNL     1      35.281 -19.501 -21.049  0.00  0.00    -0.000 C 
ENDBRANCH  30  32
ENDBRANCH   2  30
TORSDOF 6
ENDMDL
MODEL 7
REMARK VINA RESULT:     -11.2      2.203      4.599
REMARK  Name = 10297043
REMARK  6 active torsions:
REMARK  status: ('A' for Active; 'I' for Inactive)
REMARK    1  A    between atoms: N_2  and  C_30
REMARK    2  A    between atoms: C_5  and  C_16
REMARK    3  A    between atoms: C_13  and  C_19
REMARK    4  A    between atoms: C_19  and  N_20
REMARK    5  A    between atoms: N_21  and  C_28
REMARK    6  A    between atoms: C_30  and  C_32
REMARK                            x       y       z     vdW  Elec       q    Type
REMARK                         _______ _______ _______ _____ _____    ______ ____
ROOT
ATOM      1  N   UNL     1      36.537 -21.062 -18.867  0.00  0.00    -0.301 N 
ATOM      2  N   UNL     1      33.285 -23.131 -16.238  0.00  0.00    -0.319 N 
ATOM      3  N   UNL     1      37.355 -22.190 -16.899  0.00  0.00    -0.233 NA
ATOM      4  N   UNL     1      35.582 -23.236 -15.598  0.00  0.00    -0.233 NA
ATOM      5  C   UNL     1      35.319 -20.848 -19.458  0.00  0.00    +0.046 C 
ATOM      6  C   UNL     1      35.012 -22.065 -17.583  0.00  0.00    +0.131 C 
ATOM      7  C   UNL     1      34.355 -21.459 -18.684  0.00  0.00    +0.003 C 
ATOM      8  C   UNL     1      36.369 -21.799 -17.725  0.00  0.00    +0.117 C 
ATOM      9  C   UNL     1      34.635 -22.812 -16.468  0.00  0.00    +0.113 C 
ATOM     10  C   UNL     1      36.865 -22.902 -15.863  0.00  0.00    +0.252 C 
ATOM     11  H   UNL     1      37.400 -20.735 -19.210  0.00  0.00    +0.153 HD
ATOM     12  H   UNL     1      32.611 -22.813 -16.883  0.00  0.00    +0.148 HD
ENDROOT
BRANCH   5  16
ATOM     13  C   UNL     1      34.926 -18.643 -23.037  0.00  0.00    -0.043 C 
ATOM     14  C   UNL     1      36.170 -18.742 -22.423  0.00  0.00    -0.006 C 
ATOM     15  C   UNL     1      33.811 -19.262 -22.486  0.00  0.00    -0.006 C 
ATOM     16  C   UNL     1      35.184 -20.095 -20.681  0.00  0.00    +0.013 C 
ATOM     17  C   UNL     1      36.299 -19.472 -21.241  0.00  0.00    +0.001 C 
ATOM     18  C   UNL     1      33.941 -19.991 -21.304  0.00  0.00    +0.001 C 
BRANCH  13  19
ATOM     19  C   UNL     1      34.787 -17.858 -24.310  0.00  0.00    -0.050 C 
BRANCH  19  20
ATOM     20  N   UNL     1      34.039 -16.619 -24.107  0.00  0.00    +0.387 N 
ATOM     21  N   UNL     1      33.725 -13.748 -24.253  0.00  0.00    +0.384 N 
ATOM     22  C   UNL     1      34.751 -15.725 -23.184  0.00  0.00    -0.100 C 
ATOM     23  C   UNL     1      33.793 -15.943 -25.387  0.00  0.00    -0.100 C 
ATOM     24  C   UNL     1      33.971 -14.424 -22.973  0.00  0.00    -0.101 C 
ATOM     25  C   UNL     1      33.012 -14.641 -25.174  0.00  0.00    -0.101 C 
ATOM     26  H   UNL     1      33.139 -16.859 -23.691  0.00  0.00    -0.079 HD
ATOM     27  H   UNL     1      34.625 -13.510 -24.670  0.00  0.00    -0.080 HD
BRANCH  21  28
ATOM     28  C   UNL     1      32.979 -12.508 -24.051  0.00  0.00    -0.078 C 
ATOM     29  C   UNL     1      32.289 -12.496 -22.698  0.00  0.00    -0.025 C 
ENDBRANCH  21  28
ENDBRANCH  19  20
ENDBRANCH  13  19
ENDBRANCH   5  16
BRANCH   2  30
ATOM     30  C   UNL     1      32.843 -23.894 -15.111  0.00  0.00    +0.093 C 
ATOM     31  C   UNL     1      33.633 -25.200 -15.048  0.00  0.00    +0.026 C 
BRANCH  30  32
ATOM     32  C   UNL     1      31.346 -24.109 -15.176  0.00  0.00    -0.005 C 
ATOM     33  C   UNL     1      30.773 -25.109 -14.410  0.00  0.00    -0.003 C 
ATOM     34  C   UNL     1      30.582 -23.301 -16.000  0.00  0.00    -0.003 C 
ATOM     35  C   UNL     1      29.394 -25.308 -14.470  0.00  0.00    -0.000 C 
ATOM     36  C   UNL     1      29.203 -23.499 -16.060  0.00  0.00    -0.000 C 
ATOM     37  C   UNL     1      28.609 -24.502 -15.296  0.00  0.00    -0.000 C 
ENDBRANCH  30  32
ENDBRANCH   2  30
TORSDOF 6
ENDMDL
MODEL 8
REMARK VINA RESULT:     -11.1      6.167     14.759
REMARK  Name = 10297043
REMARK  6 active torsions:
REMARK  status: ('A' for Active; 'I' for Inactive)
REMARK    1  A    between atoms: N_2  and  C_30
REMARK    2  A    between atoms: C_5  and  C_16
REMARK    3  A    between atoms: C_13  and  C_19
REMARK    4  A    between atoms: C_19  and  N_20
REMARK    5  A    between atoms: N_21  and  C_28
REMARK    6  A    between atoms: C_30  and  C_32
REMARK                            x       y       z     vdW  Elec       q    Type
REMARK                         _______ _______ _______ _____ _____    ______ ____
ROOT
ATOM      1  N   UNL     1      32.277 -11.784 -22.266  0.00  0.00    -0.301 N 
ATOM      2  N   UNL     1      32.556  -8.291 -25.348  0.00  0.00    -0.319 N 
ATOM      3  N   UNL     1      31.266  -9.706 -21.577  0.00  0.00    -0.233 NA
ATOM      4  N   UNL     1      31.464  -7.951 -23.252  0.00  0.00    -0.233 NA
ATOM      5  C   UNL     1      32.946 -12.248 -23.370  0.00  0.00    +0.046 C 
ATOM      6  C   UNL     1      32.389 -10.088 -23.713  0.00  0.00    +0.131 C 
ATOM      7  C   UNL     1      33.030 -11.218 -24.283  0.00  0.00    +0.003 C 
ATOM      8  C   UNL     1      31.932 -10.472 -22.458  0.00  0.00    +0.117 C 
ATOM      9  C   UNL     1      32.131  -8.772 -24.096  0.00  0.00    +0.113 C 
ATOM     10  C   UNL     1      31.079  -8.461 -22.060  0.00  0.00    +0.252 C 
ATOM     11  H   UNL     1      32.076 -12.312 -21.460  0.00  0.00    +0.153 HD
ATOM     12  H   UNL     1      33.040  -8.905 -25.947  0.00  0.00    +0.148 HD
ENDROOT
BRANCH   5  16
ATOM     13  C   UNL     1      34.386 -16.209 -23.611  0.00  0.00    -0.043 C 
ATOM     14  C   UNL     1      34.592 -15.472 -22.450  0.00  0.00    -0.006 C 
ATOM     15  C   UNL     1      33.712 -15.656 -24.693  0.00  0.00    -0.006 C 
ATOM     16  C   UNL     1      33.438 -13.601 -23.452  0.00  0.00    +0.013 C 
ATOM     17  C   UNL     1      34.115 -14.163 -22.371  0.00  0.00    +0.001 C 
ATOM     18  C   UNL     1      33.236 -14.347 -24.613  0.00  0.00    +0.001 C 
BRANCH  13  19
ATOM     19  C   UNL     1      34.899 -17.618 -23.697  0.00  0.00    -0.050 C 
BRANCH  19  20
ATOM     20  N   UNL     1      34.909 -18.276 -22.393  0.00  0.00    +0.387 N 
ATOM     21  N   UNL     1      35.217 -20.580 -20.674  0.00  0.00    +0.384 N 
ATOM     22  C   UNL     1      33.882 -19.324 -22.330  0.00  0.00    -0.100 C 
ATOM     23  C   UNL     1      36.234 -18.838 -22.102  0.00  0.00    -0.100 C 
ATOM     24  C   UNL     1      33.892 -20.018 -20.964  0.00  0.00    -0.101 C 
ATOM     25  C   UNL     1      36.243 -19.532 -20.735  0.00  0.00    -0.101 C 
ATOM     26  H   UNL     1      34.695 -17.573 -21.684  0.00  0.00    -0.079 HD
ATOM     27  H   UNL     1      35.432 -21.281 -21.383  0.00  0.00    -0.080 HD
BRANCH  21  28
ATOM     28  C   UNL     1      35.227 -21.240 -19.370  0.00  0.00    -0.078 C 
ATOM     29  C   UNL     1      33.913 -21.955 -19.107  0.00  0.00    -0.025 C 
ENDBRANCH  21  28
ENDBRANCH  19  20
ENDBRANCH  13  19
ENDBRANCH   5  16
BRANCH   2  30
ATOM     30  C   UNL     1      32.318  -6.951 -25.791  0.00  0.00    +0.093 C 
ATOM     31  C   UNL     1      31.051  -6.921 -26.641  0.00  0.00    +0.026 C 
BRANCH  30  32
ATOM     32  C   UNL     1      33.533  -6.415 -26.517  0.00  0.00    -0.005 C 
ATOM     33  C   UNL     1      33.679  -5.047 -26.672  0.00  0.00    -0.003 C 
ATOM     34  C   UNL     1      34.473  -7.304 -27.011  0.00  0.00    -0.003 C 
ATOM     35  C   UNL     1      34.798  -4.553 -27.341  0.00  0.00    -0.000 C 
ATOM     36  C   UNL     1      35.592  -6.809 -27.680  0.00  0.00    -0.000 C 
ATOM     37  C   UNL     1      35.754  -5.434 -27.845  0.00  0.00    -0.000 C 
ENDBRANCH  30  32
ENDBRANCH   2  30
TORSDOF 6
ENDMDL
MODEL 9
REMARK VINA RESULT:     -10.9      3.148     11.919
REMARK  Name = 10297043
REMARK  6 active torsions:
REMARK  status: ('A' for Active; 'I' for Inactive)
REMARK    1  A    between atoms: N_2  and  C_30
REMARK    2  A    between atoms: C_5  and  C_16
REMARK    3  A    between atoms: C_13  and  C_19
REMARK    4  A    between atoms: C_19  and  N_20
REMARK    5  A    between atoms: N_21  and  C_28
REMARK    6  A    between atoms: C_30  and  C_32
REMARK                            x       y       z     vdW  Elec       q    Type
REMARK                         _______ _______ _______ _____ _____    ______ ____
ROOT
ATOM      1  N   UNL     1      34.672 -18.502 -23.904  0.00  0.00    -0.301 N 
ATOM      2  N   UNL     1      33.242 -14.080 -23.500  0.00  0.00    -0.319 N 
ATOM      3  N   UNL     1      34.355 -17.319 -25.980  0.00  0.00    -0.233 NA
ATOM      4  N   UNL     1      33.610 -15.023 -25.662  0.00  0.00    -0.233 NA
ATOM      5  C   UNL     1      34.542 -18.222 -22.568  0.00  0.00    +0.046 C 
ATOM      6  C   UNL     1      33.989 -16.383 -23.753  0.00  0.00    +0.131 C 
ATOM      7  C   UNL     1      34.120 -16.915 -22.445  0.00  0.00    +0.003 C 
ATOM      8  C   UNL     1      34.339 -17.395 -24.639  0.00  0.00    +0.117 C 
ATOM      9  C   UNL     1      33.614 -15.164 -24.315  0.00  0.00    +0.113 C 
ATOM     10  C   UNL     1      33.975 -16.095 -26.401  0.00  0.00    +0.252 C 
ATOM     11  H   UNL     1      34.961 -19.366 -24.277  0.00  0.00    +0.153 HD
ATOM     12  H   UNL     1      33.252 -14.203 -22.523  0.00  0.00    +0.148 HD
ENDROOT
BRANCH   5  16
ATOM     13  C   UNL     1      35.366 -21.097 -19.588  0.00  0.00    -0.043 C 
ATOM     14  C   UNL     1      36.415 -20.408 -20.188  0.00  0.00    -0.006 C 
ATOM     15  C   UNL     1      34.050 -20.850 -19.959  0.00  0.00    -0.006 C 
ATOM     16  C   UNL     1      34.823 -19.204 -21.550  0.00  0.00    +0.013 C 
ATOM     17  C   UNL     1      36.141 -19.458 -21.172  0.00  0.00    +0.001 C 
ATOM     18  C   UNL     1      33.778 -19.900 -20.943  0.00  0.00    +0.001 C 
BRANCH  13  19
ATOM     19  C   UNL     1      35.660 -22.121 -18.529  0.00  0.00    -0.050 C 
BRANCH  19  20
ATOM     20  N   UNL     1      34.543 -22.282 -17.601  0.00  0.00    +0.387 N 
ATOM     21  N   UNL     1      32.774 -23.865 -15.951  0.00  0.00    +0.384 N 
ATOM     22  C   UNL     1      33.488 -23.115 -18.194  0.00  0.00    -0.100 C 
ATOM     23  C   UNL     1      34.998 -22.859 -16.331  0.00  0.00    -0.100 C 
ATOM     24  C   UNL     1      32.317 -23.289 -17.222  0.00  0.00    -0.101 C 
ATOM     25  C   UNL     1      33.826 -23.032 -15.359  0.00  0.00    -0.101 C 
ATOM     26  H   UNL     1      34.154 -21.357 -17.413  0.00  0.00    -0.079 HD
ATOM     27  H   UNL     1      33.164 -24.789 -16.139  0.00  0.00    -0.080 HD
BRANCH  21  28
ATOM     28  C   UNL     1      31.656 -24.029 -15.023  0.00  0.00    -0.078 C 
ATOM     29  C   UNL     1      31.604 -22.888 -14.021  0.00  0.00    -0.025 C 
ENDBRANCH  21  28
ENDBRANCH  19  20
ENDBRANCH  13  19
ENDBRANCH   5  16
BRANCH   2  30
ATOM     30  C   UNL     1      32.849 -12.807 -24.024  0.00  0.00    +0.093 C 
ATOM     31  C   UNL     1      34.032 -12.179 -24.757  0.00  0.00    +0.026 C 
BRANCH  30  32
ATOM     32  C   UNL     1      32.303 -11.930 -22.918  0.00  0.00    -0.005 C 
ATOM     33  C   UNL     1      32.213 -10.564 -23.121  0.00  0.00    -0.003 C 
ATOM     34  C   UNL     1      31.906 -12.512 -21.726  0.00  0.00    -0.003 C 
ATOM     35  C   UNL     1      31.710  -9.755 -22.103  0.00  0.00    -0.000 C 
ATOM     36  C   UNL     1      31.403 -11.704 -20.708  0.00  0.00    -0.000 C 
ATOM     37  C   UNL     1      31.306 -10.325 -20.895  0.00  0.00    -0.000 C 
ENDBRANCH  30  32
ENDBRANCH   2  30
TORSDOF 6
ENDMDL
