MODEL 1
REMARK VINA RESULT:     -12.4      0.000      0.000
REMARK  Name = 10224181
REMARK  7 active torsions:
REMARK  status: ('A' for Active; 'I' for Inactive)
REMARK    1  A    between atoms: N_3  and  C_23
REMARK    2  A    between atoms: C_12  and  C_14
REMARK    3  A    between atoms: C_15  and  C_16
REMARK    4  A    between atoms: C_16  and  C_17
REMARK    5  A    between atoms: C_23  and  C_24
REMARK    6  A    between atoms: C_29  and  C_31
REMARK    7  A    between atoms: C_31  and  O_32
REMARK                            x       y       z     vdW  Elec       q    Type
REMARK                         _______ _______ _______ _____ _____    ______ ____
ROOT
ATOM      1  O   UNL     1      35.446 -16.144 -21.378  0.00  0.00    -0.267 OA
ATOM      2  O   UNL     1      35.183 -19.965 -24.012  0.00  0.00    -0.246 OA
ATOM      3  N   UNL     1      35.330 -18.078 -22.680  0.00  0.00    -0.244 N 
ATOM      4  N   UNL     1      34.174 -18.021 -24.768  0.00  0.00    -0.279 N 
ATOM      5  C   UNL     1      33.864 -16.644 -24.563  0.00  0.00    +0.069 A 
ATOM      6  C   UNL     1      34.297 -15.997 -23.404  0.00  0.00    +0.073 A 
ATOM      7  C   UNL     1      35.074 -16.731 -22.392  0.00  0.00    +0.266 A 
ATOM      8  C   UNL     1      34.912 -18.771 -23.838  0.00  0.00    +0.334 A 
ATOM      9  C   UNL     1      34.002 -14.641 -23.185  0.00  0.00    +0.014 C 
ATOM     10  C   UNL     1      33.125 -15.899 -25.500  0.00  0.00    +0.018 C 
ATOM     11  C   UNL     1      33.707 -18.674 -25.990  0.00  0.00    +0.135 C 
ATOM     12  C   UNL     1      33.269 -13.922 -24.124  0.00  0.00    +0.042 C 
ATOM     13  C   UNL     1      32.831 -14.551 -25.282  0.00  0.00    +0.010 C 
ENDROOT
BRANCH  12  14
ATOM     14  C   UNL     1      32.971 -12.543 -23.898  0.00  0.00    -0.064 C 
ATOM     15  C   UNL     1      32.721 -11.381 -23.705  0.00  0.00    -0.082 C 
BRANCH  15  16
ATOM     16  C   UNL     1      32.416  -9.966 -23.465  0.00  0.00    +0.103 C 
BRANCH  16  17
ATOM     17  C   UNL     1      31.935  -9.723 -22.057  0.00  0.00    -0.009 C 
ATOM     18  C   UNL     1      31.098 -10.650 -21.453  0.00  0.00    -0.003 C 
ATOM     19  C   UNL     1      32.337  -8.577 -21.387  0.00  0.00    -0.003 C 
ATOM     20  C   UNL     1      30.654 -10.426 -20.150  0.00  0.00    -0.000 C 
ATOM     21  C   UNL     1      31.892  -8.353 -20.085  0.00  0.00    -0.000 C 
ATOM     22  C   UNL     1      31.051  -9.277 -19.466  0.00  0.00    -0.000 C 
ENDBRANCH  16  17
ENDBRANCH  15  16
ENDBRANCH  12  14
BRANCH   3  23
ATOM     23  C   UNL     1      36.100 -18.833 -21.694  0.00  0.00    +0.140 C 
BRANCH  23  24
ATOM     24  C   UNL     1      35.231 -19.777 -20.908  0.00  0.00    +0.001 C 
ATOM     25  C   UNL     1      35.822 -20.789 -20.163  0.00  0.00    -0.002 C 
ATOM     26  C   UNL     1      33.852 -19.623 -20.937  0.00  0.00    -0.002 C 
ATOM     27  C   UNL     1      35.017 -21.664 -19.434  0.00  0.00    +0.006 C 
ATOM     28  C   UNL     1      33.048 -20.498 -20.207  0.00  0.00    +0.006 C 
ATOM     29  C   UNL     1      33.630 -21.519 -19.456  0.00  0.00    +0.075 C 
BRANCH  29  31
ATOM     30  O   UNL     1      31.715 -22.138 -18.162  0.00  0.00    -0.245 OA
ATOM     31  C   UNL     1      32.790 -22.431 -18.695  0.00  0.00    +0.338 C 
BRANCH  31  32
ATOM     32  O   UNL     1      33.318 -23.684 -18.619  0.00  0.00    -0.477 OA
ATOM     33  H   UNL     1      32.755 -24.422 -18.493  0.00  0.00    +0.295 HD
ENDBRANCH  31  32
ENDBRANCH  29  31
ENDBRANCH  23  24
ENDBRANCH   3  23
TORSDOF 7
ENDMDL
MODEL 2
REMARK VINA RESULT:     -12.3      5.120      9.371
REMARK  Name = 10224181
REMARK  7 active torsions:
REMARK  status: ('A' for Active; 'I' for Inactive)
REMARK    1  A    between atoms: N_3  and  C_23
REMARK    2  A    between atoms: C_12  and  C_14
REMARK    3  A    between atoms: C_15  and  C_16
REMARK    4  A    between atoms: C_16  and  C_17
REMARK    5  A    between atoms: C_23  and  C_24
REMARK    6  A    between atoms: C_29  and  C_31
REMARK    7  A    between atoms: C_31  and  O_32
REMARK                            x       y       z     vdW  Elec       q    Type
REMARK                         _______ _______ _______ _____ _____    ______ ____
ROOT
ATOM      1  O   UNL     1      31.991 -23.677 -17.012  0.00  0.00    -0.267 OA
ATOM      2  O   UNL     1      34.290 -24.624 -13.085  0.00  0.00    -0.246 OA
ATOM      3  N   UNL     1      33.121 -24.167 -15.030  0.00  0.00    -0.244 N 
ATOM      4  N   UNL     1      35.368 -23.415 -14.741  0.00  0.00    -0.279 N 
ATOM      5  C   UNL     1      35.338 -22.815 -16.034  0.00  0.00    +0.069 A 
ATOM      6  C   UNL     1      34.184 -22.902 -16.815  0.00  0.00    +0.073 A 
ATOM      7  C   UNL     1      32.997 -23.611 -16.309  0.00  0.00    +0.266 A 
ATOM      8  C   UNL     1      34.267 -24.103 -14.206  0.00  0.00    +0.334 A 
ATOM      9  C   UNL     1      34.134 -22.317 -18.091  0.00  0.00    +0.014 C 
ATOM     10  C   UNL     1      36.445 -22.127 -16.563  0.00  0.00    +0.018 C 
ATOM     11  C   UNL     1      36.590 -23.310 -13.944  0.00  0.00    +0.135 C 
ATOM     12  C   UNL     1      35.241 -21.641 -18.597  0.00  0.00    +0.042 C 
ATOM     13  C   UNL     1      36.396 -21.545 -17.832  0.00  0.00    +0.010 C 
ENDROOT
BRANCH  12  14
ATOM     14  C   UNL     1      35.187 -21.046 -19.895  0.00  0.00    -0.064 C 
ATOM     15  C   UNL     1      35.139 -20.543 -20.988  0.00  0.00    -0.082 C 
BRANCH  15  16
ATOM     16  C   UNL     1      35.077 -19.930 -22.320  0.00  0.00    +0.103 C 
BRANCH  16  17
ATOM     17  C   UNL     1      34.918 -18.432 -22.243  0.00  0.00    -0.009 C 
ATOM     18  C   UNL     1      34.950 -17.805 -21.006  0.00  0.00    -0.003 C 
ATOM     19  C   UNL     1      34.744 -17.705 -23.411  0.00  0.00    -0.003 C 
ATOM     20  C   UNL     1      34.805 -16.420 -20.936  0.00  0.00    -0.000 C 
ATOM     21  C   UNL     1      34.598 -16.320 -23.341  0.00  0.00    -0.000 C 
ATOM     22  C   UNL     1      34.628 -15.677 -22.103  0.00  0.00    -0.000 C 
ENDBRANCH  16  17
ENDBRANCH  15  16
ENDBRANCH  12  14
BRANCH   3  23
ATOM     23  C   UNL     1      31.960 -24.877 -14.499  0.00  0.00    +0.140 C 
BRANCH  23  24
ATOM     24  C   UNL     1      30.667 -24.228 -14.915  0.00  0.00    +0.001 C 
ATOM     25  C   UNL     1      29.707 -24.981 -15.577  0.00  0.00    -0.002 C 
ATOM     26  C   UNL     1      30.452 -22.887 -14.630  0.00  0.00    -0.002 C 
ATOM     27  C   UNL     1      28.509 -24.381 -15.963  0.00  0.00    +0.006 C 
ATOM     28  C   UNL     1      29.254 -22.286 -15.016  0.00  0.00    +0.006 C 
ATOM     29  C   UNL     1      28.282 -23.033 -15.683  0.00  0.00    +0.075 C 
BRANCH  29  31
ATOM     30  O   UNL     1      25.972 -22.455 -15.452  0.00  0.00    -0.245 OA
ATOM     31  C   UNL     1      27.032 -22.406 -16.084  0.00  0.00    +0.338 C 
BRANCH  31  32
ATOM     32  O   UNL     1      27.141 -21.738 -17.265  0.00  0.00    -0.477 OA
ATOM     33  H   UNL     1      26.604 -20.988 -17.429  0.00  0.00    +0.295 HD
ENDBRANCH  31  32
ENDBRANCH  29  31
ENDBRANCH  23  24
ENDBRANCH   3  23
TORSDOF 7
ENDMDL
MODEL 3
REMARK VINA RESULT:     -11.9      1.429      2.539
REMARK  Name = 10224181
REMARK  7 active torsions:
REMARK  status: ('A' for Active; 'I' for Inactive)
REMARK    1  A    between atoms: N_3  and  C_23
REMARK    2  A    between atoms: C_12  and  C_14
REMARK    3  A    between atoms: C_15  and  C_16
REMARK    4  A    between atoms: C_16  and  C_17
REMARK    5  A    between atoms: C_23  and  C_24
REMARK    6  A    between atoms: C_29  and  C_31
REMARK    7  A    between atoms: C_31  and  O_32
REMARK                            x       y       z     vdW  Elec       q    Type
REMARK                         _______ _______ _______ _____ _____    ______ ____
ROOT
ATOM      1  O   UNL     1      35.454 -16.104 -21.365  0.00  0.00    -0.267 OA
ATOM      2  O   UNL     1      35.119 -19.961 -23.936  0.00  0.00    -0.246 OA
ATOM      3  N   UNL     1      35.302 -18.055 -22.634  0.00  0.00    -0.244 N 
ATOM      4  N   UNL     1      34.129 -18.016 -24.713  0.00  0.00    -0.279 N 
ATOM      5  C   UNL     1      33.838 -16.632 -24.528  0.00  0.00    +0.069 A 
ATOM      6  C   UNL     1      34.289 -15.973 -23.383  0.00  0.00    +0.073 A 
ATOM      7  C   UNL     1      35.066 -16.701 -22.366  0.00  0.00    +0.266 A 
ATOM      8  C   UNL     1      34.865 -18.761 -23.778  0.00  0.00    +0.334 A 
ATOM      9  C   UNL     1      34.014 -14.611 -23.182  0.00  0.00    +0.014 C 
ATOM     10  C   UNL     1      33.101 -15.893 -25.471  0.00  0.00    +0.018 C 
ATOM     11  C   UNL     1      33.643 -18.683 -25.922  0.00  0.00    +0.135 C 
ATOM     12  C   UNL     1      33.282 -13.897 -24.127  0.00  0.00    +0.042 C 
ATOM     13  C   UNL     1      32.826 -14.538 -25.271  0.00  0.00    +0.010 C 
ENDROOT
BRANCH  12  14
ATOM     14  C   UNL     1      33.004 -12.511 -23.921  0.00  0.00    -0.064 C 
ATOM     15  C   UNL     1      32.765 -11.342 -23.748  0.00  0.00    -0.082 C 
BRANCH  15  16
ATOM     16  C   UNL     1      32.471  -9.920 -23.539  0.00  0.00    +0.103 C 
BRANCH  16  17
ATOM     17  C   UNL     1      33.270  -9.038 -24.464  0.00  0.00    -0.009 C 
ATOM     18  C   UNL     1      32.891  -7.716 -24.643  0.00  0.00    -0.003 C 
ATOM     19  C   UNL     1      34.374  -9.562 -25.122  0.00  0.00    -0.003 C 
ATOM     20  C   UNL     1      33.632  -6.900 -25.498  0.00  0.00    -0.000 C 
ATOM     21  C   UNL     1      35.114  -8.747 -25.977  0.00  0.00    -0.000 C 
ATOM     22  C   UNL     1      34.743  -7.416 -26.165  0.00  0.00    -0.000 C 
ENDBRANCH  16  17
ENDBRANCH  15  16
ENDBRANCH  12  14
BRANCH   3  23
ATOM     23  C   UNL     1      36.070 -18.805 -21.644  0.00  0.00    +0.140 C 
BRANCH  23  24
ATOM     24  C   UNL     1      35.204 -19.761 -20.868  0.00  0.00    +0.001 C 
ATOM     25  C   UNL     1      35.798 -20.774 -20.127  0.00  0.00    -0.002 C 
ATOM     26  C   UNL     1      33.824 -19.615 -20.902  0.00  0.00    -0.002 C 
ATOM     27  C   UNL     1      34.996 -21.659 -19.408  0.00  0.00    +0.006 C 
ATOM     28  C   UNL     1      33.022 -20.500 -20.183  0.00  0.00    +0.006 C 
ATOM     29  C   UNL     1      33.608 -21.523 -19.436  0.00  0.00    +0.075 C 
BRANCH  29  31
ATOM     30  O   UNL     1      31.698 -22.160 -18.143  0.00  0.00    -0.245 OA
ATOM     31  C   UNL     1      32.770 -22.446 -18.685  0.00  0.00    +0.338 C 
BRANCH  31  32
ATOM     32  O   UNL     1      33.297 -23.700 -18.630  0.00  0.00    -0.477 OA
ATOM     33  H   UNL     1      34.188 -23.844 -18.881  0.00  0.00    +0.295 HD
ENDBRANCH  31  32
ENDBRANCH  29  31
ENDBRANCH  23  24
ENDBRANCH   3  23
TORSDOF 7
ENDMDL
MODEL 4
REMARK VINA RESULT:     -11.7      3.904     10.457
REMARK  Name = 10224181
REMARK  7 active torsions:
REMARK  status: ('A' for Active; 'I' for Inactive)
REMARK    1  A    between atoms: N_3  and  C_23
REMARK    2  A    between atoms: C_12  and  C_14
REMARK    3  A    between atoms: C_15  and  C_16
REMARK    4  A    between atoms: C_16  and  C_17
REMARK    5  A    between atoms: C_23  and  C_24
REMARK    6  A    between atoms: C_29  and  C_31
REMARK    7  A    between atoms: C_31  and  O_32
REMARK                            x       y       z     vdW  Elec       q    Type
REMARK                         _______ _______ _______ _____ _____    ______ ____
ROOT
ATOM      1  O   UNL     1      33.749 -13.113 -22.456  0.00  0.00    -0.267 OA
ATOM      2  O   UNL     1      32.235 -12.132 -26.739  0.00  0.00    -0.246 OA
ATOM      3  N   UNL     1      32.982 -12.592 -24.597  0.00  0.00    -0.244 N 
ATOM      4  N   UNL     1      33.046 -14.258 -26.306  0.00  0.00    -0.279 N 
ATOM      5  C   UNL     1      33.606 -15.190 -25.382  0.00  0.00    +0.069 A 
ATOM      6  C   UNL     1      33.848 -14.803 -24.063  0.00  0.00    +0.073 A 
ATOM      7  C   UNL     1      33.528 -13.435 -23.621  0.00  0.00    +0.266 A 
ATOM      8  C   UNL     1      32.720 -12.942 -25.941  0.00  0.00    +0.334 A 
ATOM      9  C   UNL     1      34.398 -15.705 -23.138  0.00  0.00    +0.014 C 
ATOM     10  C   UNL     1      33.929 -16.507 -25.755  0.00  0.00    +0.018 C 
ATOM     11  C   UNL     1      32.803 -14.690 -27.682  0.00  0.00    +0.135 C 
ATOM     12  C   UNL     1      34.711 -17.004 -23.527  0.00  0.00    +0.042 C 
ATOM     13  C   UNL     1      34.476 -17.405 -24.836  0.00  0.00    +0.010 C 
ENDROOT
BRANCH  12  14
ATOM     14  C   UNL     1      35.270 -17.921 -22.585  0.00  0.00    -0.064 C 
ATOM     15  C   UNL     1      35.739 -18.697 -21.791  0.00  0.00    -0.082 C 
BRANCH  15  16
ATOM     16  C   UNL     1      36.307 -19.643 -20.825  0.00  0.00    +0.103 C 
BRANCH  16  17
ATOM     17  C   UNL     1      35.245 -20.500 -20.184  0.00  0.00    -0.009 C 
ATOM     18  C   UNL     1      35.619 -21.519 -19.320  0.00  0.00    -0.003 C 
ATOM     19  C   UNL     1      33.909 -20.256 -20.467  0.00  0.00    -0.003 C 
ATOM     20  C   UNL     1      34.637 -22.311 -18.727  0.00  0.00    -0.000 C 
ATOM     21  C   UNL     1      32.927 -21.048 -19.875  0.00  0.00    -0.000 C 
ATOM     22  C   UNL     1      33.290 -22.075 -19.005  0.00  0.00    -0.000 C 
ENDBRANCH  16  17
ENDBRANCH  15  16
ENDBRANCH  12  14
BRANCH   3  23
ATOM     23  C   UNL     1      32.653 -11.229 -24.189  0.00  0.00    +0.140 C 
BRANCH  23  24
ATOM     24  C   UNL     1      33.359 -10.204 -25.035  0.00  0.00    +0.001 C 
ATOM     25  C   UNL     1      32.630  -9.168 -25.604  0.00  0.00    -0.002 C 
ATOM     26  C   UNL     1      34.728 -10.307 -25.234  0.00  0.00    -0.002 C 
ATOM     27  C   UNL     1      33.284  -8.218 -26.388  0.00  0.00    +0.006 C 
ATOM     28  C   UNL     1      35.383  -9.357 -26.017  0.00  0.00    +0.006 C 
ATOM     29  C   UNL     1      34.660  -8.312 -26.595  0.00  0.00    +0.075 C 
BRANCH  29  31
ATOM     30  O   UNL     1      36.123  -7.570 -28.337  0.00  0.00    -0.245 OA
ATOM     31  C   UNL     1      35.343  -7.321 -27.412  0.00  0.00    +0.338 C 
BRANCH  31  32
ATOM     32  O   UNL     1      35.033  -6.046 -27.050  0.00  0.00    -0.477 OA
ATOM     33  H   UNL     1      35.217  -5.336 -27.634  0.00  0.00    +0.295 HD
ENDBRANCH  31  32
ENDBRANCH  29  31
ENDBRANCH  23  24
ENDBRANCH   3  23
TORSDOF 7
ENDMDL
MODEL 5
REMARK VINA RESULT:     -11.3      3.608      9.259
REMARK  Name = 10224181
REMARK  7 active torsions:
REMARK  status: ('A' for Active; 'I' for Inactive)
REMARK    1  A    between atoms: N_3  and  C_23
REMARK    2  A    between atoms: C_12  and  C_14
REMARK    3  A    between atoms: C_15  and  C_16
REMARK    4  A    between atoms: C_16  and  C_17
REMARK    5  A    between atoms: C_23  and  C_24
REMARK    6  A    between atoms: C_29  and  C_31
REMARK    7  A    between atoms: C_31  and  O_32
REMARK                            x       y       z     vdW  Elec       q    Type
REMARK                         _______ _______ _______ _____ _____    ______ ____
ROOT
ATOM      1  O   UNL     1      34.410 -12.689 -23.226  0.00  0.00    -0.267 OA
ATOM      2  O   UNL     1      32.020 -11.932 -27.140  0.00  0.00    -0.246 OA
ATOM      3  N   UNL     1      33.211 -12.279 -25.186  0.00  0.00    -0.244 N 
ATOM      4  N   UNL     1      32.498 -14.116 -26.533  0.00  0.00    -0.279 N 
ATOM      5  C   UNL     1      33.096 -15.028 -25.614  0.00  0.00    +0.069 A 
ATOM      6  C   UNL     1      33.752 -14.545 -24.480  0.00  0.00    +0.073 A 
ATOM      7  C   UNL     1      33.828 -13.096 -24.229  0.00  0.00    +0.266 A 
ATOM      8  C   UNL     1      32.538 -12.726 -26.345  0.00  0.00    +0.334 A 
ATOM      9  C   UNL     1      34.347 -15.426 -23.563  0.00  0.00    +0.014 C 
ATOM     10  C   UNL     1      33.051 -16.420 -25.809  0.00  0.00    +0.018 C 
ATOM     11  C   UNL     1      31.818 -14.650 -27.713  0.00  0.00    +0.135 C 
ATOM     12  C   UNL     1      34.292 -16.800 -23.774  0.00  0.00    +0.042 C 
ATOM     13  C   UNL     1      33.643 -17.297 -24.897  0.00  0.00    +0.010 C 
ENDROOT
BRANCH  12  14
ATOM     14  C   UNL     1      34.898 -17.695 -22.840  0.00  0.00    -0.064 C 
ATOM     15  C   UNL     1      35.412 -18.450 -22.054  0.00  0.00    -0.082 C 
BRANCH  15  16
ATOM     16  C   UNL     1      36.041 -19.370 -21.100  0.00  0.00    +0.103 C 
BRANCH  16  17
ATOM     17  C   UNL     1      35.029 -20.260 -20.425  0.00  0.00    -0.009 C 
ATOM     18  C   UNL     1      35.465 -21.285 -19.598  0.00  0.00    -0.003 C 
ATOM     19  C   UNL     1      33.676 -20.040 -20.640  0.00  0.00    -0.003 C 
ATOM     20  C   UNL     1      34.529 -22.107 -18.973  0.00  0.00    -0.000 C 
ATOM     21  C   UNL     1      32.740 -20.863 -20.016  0.00  0.00    -0.000 C 
ATOM     22  C   UNL     1      33.165 -21.896 -19.182  0.00  0.00    -0.000 C 
ENDBRANCH  16  17
ENDBRANCH  15  16
ENDBRANCH  12  14
BRANCH   3  23
ATOM     23  C   UNL     1      33.269 -10.837 -24.964  0.00  0.00    +0.140 C 
BRANCH  23  24
ATOM     24  C   UNL     1      32.693 -10.451 -23.629  0.00  0.00    +0.001 C 
ATOM     25  C   UNL     1      31.841 -11.328 -22.972  0.00  0.00    -0.002 C 
ATOM     26  C   UNL     1      33.024  -9.224 -23.070  0.00  0.00    -0.002 C 
ATOM     27  C   UNL     1      31.308 -10.971 -21.734  0.00  0.00    +0.006 C 
ATOM     28  C   UNL     1      32.491  -8.866 -21.832  0.00  0.00    +0.006 C 
ATOM     29  C   UNL     1      31.632  -9.740 -21.164  0.00  0.00    +0.075 C 
BRANCH  29  31
ATOM     30  O   UNL     1      30.197  -9.987 -19.266  0.00  0.00    -0.245 OA
ATOM     31  C   UNL     1      31.077  -9.367 -19.872  0.00  0.00    +0.338 C 
BRANCH  31  32
ATOM     32  O   UNL     1      31.635  -8.231 -19.373  0.00  0.00    -0.477 OA
ATOM     33  H   UNL     1      32.445  -7.914 -19.724  0.00  0.00    +0.295 HD
ENDBRANCH  31  32
ENDBRANCH  29  31
ENDBRANCH  23  24
ENDBRANCH   3  23
TORSDOF 7
ENDMDL
MODEL 6
REMARK VINA RESULT:     -11.2      3.873     10.705
REMARK  Name = 10224181
REMARK  7 active torsions:
REMARK  status: ('A' for Active; 'I' for Inactive)
REMARK    1  A    between atoms: N_3  and  C_23
REMARK    2  A    between atoms: C_12  and  C_14
REMARK    3  A    between atoms: C_15  and  C_16
REMARK    4  A    between atoms: C_16  and  C_17
REMARK    5  A    between atoms: C_23  and  C_24
REMARK    6  A    between atoms: C_29  and  C_31
REMARK    7  A    between atoms: C_31  and  O_32
REMARK                            x       y       z     vdW  Elec       q    Type
REMARK                         _______ _______ _______ _____ _____    ______ ____
ROOT
ATOM      1  O   UNL     1      37.306 -19.268 -20.775  0.00  0.00    -0.267 OA
ATOM      2  O   UNL     1      33.194 -18.804 -22.892  0.00  0.00    -0.246 OA
ATOM      3  N   UNL     1      35.254 -19.015 -21.858  0.00  0.00    -0.244 N 
ATOM      4  N   UNL     1      33.350 -20.216 -21.062  0.00  0.00    -0.279 N 
ATOM      5  C   UNL     1      34.144 -20.800 -20.030  0.00  0.00    +0.069 A 
ATOM      6  C   UNL     1      35.499 -20.478 -19.928  0.00  0.00    +0.073 A 
ATOM      7  C   UNL     1      36.112 -19.537 -20.881  0.00  0.00    +0.266 A 
ATOM      8  C   UNL     1      33.879 -19.313 -21.997  0.00  0.00    +0.334 A 
ATOM      9  C   UNL     1      36.298 -21.042 -18.920  0.00  0.00    +0.014 C 
ATOM     10  C   UNL     1      33.606 -21.703 -19.096  0.00  0.00    +0.018 C 
ATOM     11  C   UNL     1      31.934 -20.571 -21.146  0.00  0.00    +0.135 C 
ATOM     12  C   UNL     1      35.746 -21.934 -18.005  0.00  0.00    +0.042 C 
ATOM     13  C   UNL     1      34.400 -22.264 -18.094  0.00  0.00    +0.010 C 
ENDROOT
BRANCH  12  14
ATOM     14  C   UNL     1      36.560 -22.507 -16.981  0.00  0.00    -0.064 C 
ATOM     15  C   UNL     1      37.248 -22.992 -16.119  0.00  0.00    -0.082 C 
BRANCH  15  16
ATOM     16  C   UNL     1      38.085 -23.587 -15.070  0.00  0.00    +0.103 C 
BRANCH  16  17
ATOM     17  C   UNL     1      37.263 -24.095 -13.913  0.00  0.00    -0.009 C 
ATOM     18  C   UNL     1      37.684 -25.219 -13.219  0.00  0.00    -0.003 C 
ATOM     19  C   UNL     1      36.099 -23.429 -13.560  0.00  0.00    -0.003 C 
ATOM     20  C   UNL     1      36.925 -25.688 -12.148  0.00  0.00    -0.000 C 
ATOM     21  C   UNL     1      35.339 -23.898 -12.489  0.00  0.00    -0.000 C 
ATOM     22  C   UNL     1      35.751 -25.027 -11.783  0.00  0.00    -0.000 C 
ENDBRANCH  16  17
ENDBRANCH  15  16
ENDBRANCH  12  14
BRANCH   3  23
ATOM     23  C   UNL     1      35.832 -18.078 -22.817  0.00  0.00    +0.140 C 
BRANCH  23  24
ATOM     24  C   UNL     1      35.116 -16.755 -22.811  0.00  0.00    +0.001 C 
ATOM     25  C   UNL     1      34.906 -16.097 -21.606  0.00  0.00    -0.002 C 
ATOM     26  C   UNL     1      34.676 -16.209 -24.009  0.00  0.00    -0.002 C 
ATOM     27  C   UNL     1      34.242 -14.871 -21.600  0.00  0.00    +0.006 C 
ATOM     28  C   UNL     1      34.012 -14.983 -24.002  0.00  0.00    +0.006 C 
ATOM     29  C   UNL     1      33.795 -14.313 -22.797  0.00  0.00    +0.075 C 
BRANCH  29  31
ATOM     30  O   UNL     1      32.229 -12.697 -21.986  0.00  0.00    -0.245 OA
ATOM     31  C   UNL     1      33.103 -13.033 -22.791  0.00  0.00    +0.338 C 
BRANCH  31  32
ATOM     32  O   UNL     1      33.522 -12.210 -23.791  0.00  0.00    -0.477 OA
ATOM     33  H   UNL     1      33.465 -11.281 -23.687  0.00  0.00    +0.295 HD
ENDBRANCH  31  32
ENDBRANCH  29  31
ENDBRANCH  23  24
ENDBRANCH   3  23
TORSDOF 7
ENDMDL
MODEL 7
REMARK VINA RESULT:     -11.2      5.495      9.666
REMARK  Name = 10224181
REMARK  7 active torsions:
REMARK  status: ('A' for Active; 'I' for Inactive)
REMARK    1  A    between atoms: N_3  and  C_23
REMARK    2  A    between atoms: C_12  and  C_14
REMARK    3  A    between atoms: C_15  and  C_16
REMARK    4  A    between atoms: C_16  and  C_17
REMARK    5  A    between atoms: C_23  and  C_24
REMARK    6  A    between atoms: C_29  and  C_31
REMARK    7  A    between atoms: C_31  and  O_32
REMARK                            x       y       z     vdW  Elec       q    Type
REMARK                         _______ _______ _______ _____ _____    ______ ____
ROOT
ATOM      1  O   UNL     1      35.976 -23.078 -15.469  0.00  0.00    -0.267 OA
ATOM      2  O   UNL     1      31.964 -24.880 -13.966  0.00  0.00    -0.246 OA
ATOM      3  N   UNL     1      33.976 -23.993 -14.690  0.00  0.00    -0.244 N 
ATOM      4  N   UNL     1      31.984 -23.735 -15.980  0.00  0.00    -0.279 N 
ATOM      5  C   UNL     1      32.712 -23.006 -16.966  0.00  0.00    +0.069 A 
ATOM      6  C   UNL     1      34.079 -22.778 -16.795  0.00  0.00    +0.073 A 
ATOM      7  C   UNL     1      34.772 -23.289 -15.601  0.00  0.00    +0.266 A 
ATOM      8  C   UNL     1      32.592 -24.247 -14.823  0.00  0.00    +0.334 A 
ATOM      9  C   UNL     1      34.814 -22.062 -17.754  0.00  0.00    +0.014 C 
ATOM     10  C   UNL     1      32.096 -22.498 -18.124  0.00  0.00    +0.018 C 
ATOM     11  C   UNL     1      30.553 -23.959 -16.184  0.00  0.00    +0.135 C 
ATOM     12  C   UNL     1      34.185 -21.567 -18.893  0.00  0.00    +0.042 C 
ATOM     13  C   UNL     1      32.826 -21.786 -19.078  0.00  0.00    +0.010 C 
ENDROOT
BRANCH  12  14
ATOM     14  C   UNL     1      34.935 -20.840 -19.867  0.00  0.00    -0.064 C 
ATOM     15  C   UNL     1      35.570 -20.225 -20.686  0.00  0.00    -0.082 C 
BRANCH  15  16
ATOM     16  C   UNL     1      36.345 -19.475 -21.681  0.00  0.00    +0.103 C 
BRANCH  16  17
ATOM     17  C   UNL     1      35.455 -18.719 -22.635  0.00  0.00    -0.009 C 
ATOM     18  C   UNL     1      34.768 -19.412 -23.621  0.00  0.00    -0.003 C 
ATOM     19  C   UNL     1      35.337 -17.343 -22.512  0.00  0.00    -0.003 C 
ATOM     20  C   UNL     1      33.944 -18.713 -24.503  0.00  0.00    -0.000 C 
ATOM     21  C   UNL     1      34.514 -16.643 -23.394  0.00  0.00    -0.000 C 
ATOM     22  C   UNL     1      33.817 -17.328 -24.390  0.00  0.00    -0.000 C 
ENDBRANCH  16  17
ENDBRANCH  15  16
ENDBRANCH  12  14
BRANCH   3  23
ATOM     23  C   UNL     1      34.635 -24.514 -13.495  0.00  0.00    +0.140 C 
BRANCH  23  24
ATOM     24  C   UNL     1      36.056 -24.923 -13.771  0.00  0.00    +0.001 C 
ATOM     25  C   UNL     1      36.316 -25.875 -14.748  0.00  0.00    -0.002 C 
ATOM     26  C   UNL     1      37.088 -24.342 -13.047  0.00  0.00    -0.002 C 
ATOM     27  C   UNL     1      37.633 -26.254 -15.005  0.00  0.00    +0.006 C 
ATOM     28  C   UNL     1      38.406 -24.721 -13.304  0.00  0.00    +0.006 C 
ATOM     29  C   UNL     1      38.678 -25.677 -14.283  0.00  0.00    +0.075 C 
BRANCH  29  31
ATOM     30  O   UNL     1      40.457 -27.235 -14.651  0.00  0.00    -0.245 OA
ATOM     31  C   UNL     1      40.053 -26.072 -14.551  0.00  0.00    +0.338 C 
BRANCH  31  32
ATOM     32  O   UNL     1      40.885 -25.003 -14.686  0.00  0.00    -0.477 OA
ATOM     33  H   UNL     1      41.758 -25.045 -14.350  0.00  0.00    +0.295 HD
ENDBRANCH  31  32
ENDBRANCH  29  31
ENDBRANCH  23  24
ENDBRANCH   3  23
TORSDOF 7
ENDMDL
MODEL 8
REMARK VINA RESULT:     -11.0      3.161      9.174
REMARK  Name = 10224181
REMARK  7 active torsions:
REMARK  status: ('A' for Active; 'I' for Inactive)
REMARK    1  A    between atoms: N_3  and  C_23
REMARK    2  A    between atoms: C_12  and  C_14
REMARK    3  A    between atoms: C_15  and  C_16
REMARK    4  A    between atoms: C_16  and  C_17
REMARK    5  A    between atoms: C_23  and  C_24
REMARK    6  A    between atoms: C_29  and  C_31
REMARK    7  A    between atoms: C_31  and  O_32
REMARK                            x       y       z     vdW  Elec       q    Type
REMARK                         _______ _______ _______ _____ _____    ______ ____
ROOT
ATOM      1  O   UNL     1      34.758 -14.078 -23.190  0.00  0.00    -0.267 OA
ATOM      2  O   UNL     1      32.264 -13.712 -27.095  0.00  0.00    -0.246 OA
ATOM      3  N   UNL     1      33.509 -13.864 -25.149  0.00  0.00    -0.244 N 
ATOM      4  N   UNL     1      32.643 -15.820 -26.211  0.00  0.00    -0.279 N 
ATOM      5  C   UNL     1      33.226 -16.634 -25.194  0.00  0.00    +0.069 A 
ATOM      6  C   UNL     1      33.951 -16.042 -24.158  0.00  0.00    +0.073 A 
ATOM      7  C   UNL     1      34.116 -14.580 -24.110  0.00  0.00    +0.266 A 
ATOM      8  C   UNL     1      32.767 -14.421 -26.216  0.00  0.00    +0.334 A 
ATOM      9  C   UNL     1      34.531 -16.826 -23.148  0.00  0.00    +0.014 C 
ATOM     10  C   UNL     1      33.096 -18.034 -25.196  0.00  0.00    +0.018 C 
ATOM     11  C   UNL     1      31.890 -16.466 -27.285  0.00  0.00    +0.135 C 
ATOM     12  C   UNL     1      34.392 -18.211 -23.168  0.00  0.00    +0.042 C 
ATOM     13  C   UNL     1      33.673 -18.815 -24.192  0.00  0.00    +0.010 C 
ENDROOT
BRANCH  12  14
ATOM     14  C   UNL     1      34.983 -19.006 -22.139  0.00  0.00    -0.064 C 
ATOM     15  C   UNL     1      35.479 -19.680 -21.271  0.00  0.00    -0.082 C 
BRANCH  15  16
ATOM     16  C   UNL     1      36.079 -20.501 -20.214  0.00  0.00    +0.103 C 
BRANCH  16  17
ATOM     17  C   UNL     1      35.039 -21.262 -19.433  0.00  0.00    -0.009 C 
ATOM     18  C   UNL     1      35.425 -22.011 -18.331  0.00  0.00    -0.003 C 
ATOM     19  C   UNL     1      33.710 -21.202 -19.827  0.00  0.00    -0.003 C 
ATOM     20  C   UNL     1      34.463 -22.714 -17.607  0.00  0.00    -0.000 C 
ATOM     21  C   UNL     1      32.748 -21.905 -19.104  0.00  0.00    -0.000 C 
ATOM     22  C   UNL     1      33.123 -22.661 -17.994  0.00  0.00    -0.000 C 
ENDBRANCH  16  17
ENDBRANCH  15  16
ENDBRANCH  12  14
BRANCH   3  23
ATOM     23  C   UNL     1      33.654 -12.411 -25.129  0.00  0.00    +0.140 C 
BRANCH  23  24
ATOM     24  C   UNL     1      32.915 -11.789 -23.975  0.00  0.00    +0.001 C 
ATOM     25  C   UNL     1      32.221 -12.604 -23.089  0.00  0.00    -0.002 C 
ATOM     26  C   UNL     1      32.938 -10.411 -23.810  0.00  0.00    -0.002 C 
ATOM     27  C   UNL     1      31.536 -12.028 -22.020  0.00  0.00    +0.006 C 
ATOM     28  C   UNL     1      32.253  -9.836 -22.740  0.00  0.00    +0.006 C 
ATOM     29  C   UNL     1      31.552 -10.644 -21.845  0.00  0.00    +0.075 C 
BRANCH  29  31
ATOM     30  O   UNL     1      29.908 -10.569 -20.108  0.00  0.00    -0.245 OA
ATOM     31  C   UNL     1      30.838 -10.043 -20.729  0.00  0.00    +0.338 C 
BRANCH  31  32
ATOM     32  O   UNL     1      31.305  -8.802 -20.420  0.00  0.00    -0.477 OA
ATOM     33  H   UNL     1      32.150  -8.704 -20.028  0.00  0.00    +0.295 HD
ENDBRANCH  31  32
ENDBRANCH  29  31
ENDBRANCH  23  24
ENDBRANCH   3  23
TORSDOF 7
ENDMDL
MODEL 9
REMARK VINA RESULT:      -9.9      5.461     11.707
REMARK  Name = 10224181
REMARK  7 active torsions:
REMARK  status: ('A' for Active; 'I' for Inactive)
REMARK    1  A    between atoms: N_3  and  C_23
REMARK    2  A    between atoms: C_12  and  C_14
REMARK    3  A    between atoms: C_15  and  C_16
REMARK    4  A    between atoms: C_16  and  C_17
REMARK    5  A    between atoms: C_23  and  C_24
REMARK    6  A    between atoms: C_29  and  C_31
REMARK    7  A    between atoms: C_31  and  O_32
REMARK                            x       y       z     vdW  Elec       q    Type
REMARK                         _______ _______ _______ _____ _____    ______ ____
ROOT
ATOM      1  O   UNL     1      35.157 -10.448 -25.511  0.00  0.00    -0.267 OA
ATOM      2  O   UNL     1      32.627  -7.376 -23.110  0.00  0.00    -0.246 OA
ATOM      3  N   UNL     1      33.900  -8.883 -24.321  0.00  0.00    -0.244 N 
ATOM      4  N   UNL     1      32.354  -9.632 -22.663  0.00  0.00    -0.279 N 
ATOM      5  C   UNL     1      32.713 -10.986 -22.935  0.00  0.00    +0.069 A 
ATOM      6  C   UNL     1      33.672 -11.270 -23.909  0.00  0.00    +0.073 A 
ATOM      7  C   UNL     1      34.316 -10.177 -24.657  0.00  0.00    +0.266 A 
ATOM      8  C   UNL     1      32.935  -8.550 -23.343  0.00  0.00    +0.334 A 
ATOM      9  C   UNL     1      34.039 -12.596 -24.191  0.00  0.00    +0.014 C 
ATOM     10  C   UNL     1      32.127 -12.065 -22.248  0.00  0.00    +0.018 C 
ATOM     11  C   UNL     1      31.346  -9.363 -21.638  0.00  0.00    +0.135 C 
ATOM     12  C   UNL     1      33.447 -13.650 -23.501  0.00  0.00    +0.042 C 
ATOM     13  C   UNL     1      32.492 -13.383 -22.529  0.00  0.00    +0.010 C 
ENDROOT
BRANCH  12  14
ATOM     14  C   UNL     1      33.822 -14.997 -23.790  0.00  0.00    -0.064 C 
ATOM     15  C   UNL     1      34.142 -16.133 -24.034  0.00  0.00    -0.082 C 
BRANCH  15  16
ATOM     16  C   UNL     1      34.535 -17.515 -24.332  0.00  0.00    +0.103 C 
BRANCH  16  17
ATOM     17  C   UNL     1      34.772 -18.316 -23.078  0.00  0.00    -0.009 C 
ATOM     18  C   UNL     1      33.731 -19.052 -22.531  0.00  0.00    -0.003 C 
ATOM     19  C   UNL     1      36.029 -18.307 -22.490  0.00  0.00    -0.003 C 
ATOM     20  C   UNL     1      33.951 -19.795 -21.371  0.00  0.00    -0.000 C 
ATOM     21  C   UNL     1      36.248 -19.049 -21.329  0.00  0.00    -0.000 C 
ATOM     22  C   UNL     1      35.210 -19.792 -20.770  0.00  0.00    -0.000 C 
ENDBRANCH  16  17
ENDBRANCH  15  16
ENDBRANCH  12  14
BRANCH   3  23
ATOM     23  C   UNL     1      34.521  -7.776 -25.045  0.00  0.00    +0.140 C 
BRANCH  23  24
ATOM     24  C   UNL     1      33.581  -7.163 -26.047  0.00  0.00    +0.001 C 
ATOM     25  C   UNL     1      33.873  -5.918 -26.586  0.00  0.00    -0.002 C 
ATOM     26  C   UNL     1      32.435  -7.852 -26.419  0.00  0.00    -0.002 C 
ATOM     27  C   UNL     1      33.002  -5.350 -27.515  0.00  0.00    +0.006 C 
ATOM     28  C   UNL     1      31.563  -7.284 -27.349  0.00  0.00    +0.006 C 
ATOM     29  C   UNL     1      31.847  -6.032 -27.896  0.00  0.00    +0.075 C 
BRANCH  29  31
ATOM     30  O   UNL     1      30.324  -4.379 -28.715  0.00  0.00    -0.245 OA
ATOM     31  C   UNL     1      30.938  -5.440 -28.866  0.00  0.00    +0.338 C 
BRANCH  31  32
ATOM     32  O   UNL     1      30.821  -6.190 -29.995  0.00  0.00    -0.477 OA
ATOM     33  H   UNL     1      30.100  -6.050 -30.577  0.00  0.00    +0.295 HD
ENDBRANCH  31  32
ENDBRANCH  29  31
ENDBRANCH  23  24
ENDBRANCH   3  23
TORSDOF 7
ENDMDL
