MODEL 1
REMARK VINA RESULT:     -13.3      0.000      0.000
REMARK  Name = 57336276
REMARK  5 active torsions:
REMARK  status: ('A' for Active; 'I' for Inactive)
REMARK    1  A    between atoms: C_2  and  C_16
REMARK    2  A    between atoms: C_6  and  O_17
REMARK    3  A    between atoms: O_17  and  C_18
REMARK    4  A    between atoms: C_18  and  C_21
REMARK    5  A    between atoms: C_22  and  C_26
REMARK                            x       y       z     vdW  Elec       q    Type
REMARK                         _______ _______ _______ _____ _____    ______ ____
ROOT
ATOM      1  N   UNL     1      35.986 -20.765 -19.745  0.00  0.00    -0.210 NA
ATOM      2  C   UNL     1      34.824 -18.986 -20.898  0.00  0.00    +0.073 C 
ATOM      3  C   UNL     1      33.612 -19.633 -20.690  0.00  0.00    +0.011 C 
ATOM      4  C   UNL     1      35.973 -19.588 -20.409  0.00  0.00    +0.107 C 
ATOM      5  C   UNL     1      33.585 -20.846 -20.010  0.00  0.00    +0.058 C 
ATOM      6  C   UNL     1      34.788 -21.365 -19.562  0.00  0.00    +0.225 C 
ENDROOT
BRANCH   2  16
ATOM      7  S   UNL     1      33.154 -17.608 -25.567  0.00  0.00    -0.007 S 
ATOM      8  O   UNL     1      31.738 -17.568 -25.876  0.00  0.00    -0.173 OA
ATOM      9  O   UNL     1      34.146 -17.588 -26.625  0.00  0.00    -0.173 OA
ATOM     10  O   UNL     1      34.944 -16.696 -20.911  0.00  0.00    -0.270 OA
ATOM     11  N   UNL     1      34.868 -17.729 -23.009  0.00  0.00    -0.272 N 
ATOM     12  C   UNL     1      33.509 -16.265 -24.445  0.00  0.00    +0.172 C 
ATOM     13  C   UNL     1      33.454 -19.041 -24.546  0.00  0.00    +0.172 C 
ATOM     14  C   UNL     1      34.847 -16.465 -23.749  0.00  0.00    +0.119 C 
ATOM     15  C   UNL     1      34.798 -18.942 -23.839  0.00  0.00    +0.119 C 
ATOM     16  C   UNL     1      34.886 -17.705 -21.612  0.00  0.00    +0.251 C 
ENDBRANCH   2  16
BRANCH   6  17
ATOM     17  O   UNL     1      34.788 -22.558 -18.889  0.00  0.00    -0.455 OA
BRANCH  17  18
ATOM     18  C   UNL     1      33.707 -22.788 -17.993  0.00  0.00    +0.238 C 
BRANCH  18  21
ATOM     19  O   UNL     1      35.625 -23.071 -14.855  0.00  0.00    -0.358 OA
ATOM     20  N   UNL     1      34.379 -23.469 -14.387  0.00  0.00    -0.078 NA
ATOM     21  C   UNL     1      34.251 -22.983 -16.608  0.00  0.00    +0.075 A 
ATOM     22  C   UNL     1      33.574 -23.409 -15.452  0.00  0.00    +0.122 A 
ATOM     23  C   UNL     1      35.537 -22.785 -16.179  0.00  0.00    +0.154 A 
ATOM     24  C   UNL     1      36.775 -22.346 -16.836  0.00  0.00    +0.075 C 
BRANCH  22  26
ATOM     25  F   UNL     1      28.193 -24.763 -14.989  0.00  0.00    -0.204 F 
ATOM     26  C   UNL     1      32.184 -23.758 -15.332  0.00  0.00    +0.021 C 
ATOM     27  C   UNL     1      31.780 -24.696 -14.382  0.00  0.00    +0.004 C 
ATOM     28  C   UNL     1      31.239 -23.161 -16.167  0.00  0.00    +0.004 C 
ATOM     29  C   UNL     1      30.432 -25.035 -14.265  0.00  0.00    +0.030 C 
ATOM     30  C   UNL     1      29.891 -23.500 -16.050  0.00  0.00    +0.030 C 
ATOM     31  C   UNL     1      29.488 -24.437 -15.100  0.00  0.00    +0.140 C 
ENDBRANCH  22  26
ENDBRANCH  18  21
ENDBRANCH  17  18
ENDBRANCH   6  17
TORSDOF 5
ENDMDL
MODEL 2
REMARK VINA RESULT:     -13.0      2.660      3.730
REMARK  Name = 57336276
REMARK  5 active torsions:
REMARK  status: ('A' for Active; 'I' for Inactive)
REMARK    1  A    between atoms: C_2  and  C_16
REMARK    2  A    between atoms: C_6  and  O_17
REMARK    3  A    between atoms: O_17  and  C_18
REMARK    4  A    between atoms: C_18  and  C_21
REMARK    5  A    between atoms: C_22  and  C_26
REMARK                            x       y       z     vdW  Elec       q    Type
REMARK                         _______ _______ _______ _____ _____    ______ ____
ROOT
ATOM      1  N   UNL     1      35.607 -21.135 -19.556  0.00  0.00    -0.210 NA
ATOM      2  C   UNL     1      34.647 -19.297 -20.801  0.00  0.00    +0.073 C 
ATOM      3  C   UNL     1      33.373 -19.814 -20.594  0.00  0.00    +0.011 C 
ATOM      4  C   UNL     1      35.723 -19.990 -20.266  0.00  0.00    +0.107 C 
ATOM      5  C   UNL     1      33.214 -20.990 -19.868  0.00  0.00    +0.058 C 
ATOM      6  C   UNL     1      34.353 -21.606 -19.376  0.00  0.00    +0.225 C 
ENDROOT
BRANCH   2  16
ATOM      7  S   UNL     1      33.135 -17.923 -25.525  0.00  0.00    -0.007 S 
ATOM      8  O   UNL     1      31.732 -17.742 -25.840  0.00  0.00    -0.173 OA
ATOM      9  O   UNL     1      34.123 -18.051 -26.580  0.00  0.00    -0.173 OA
ATOM     10  O   UNL     1      35.015 -17.037 -20.899  0.00  0.00    -0.270 OA
ATOM     11  N   UNL     1      34.826 -18.134 -22.957  0.00  0.00    -0.272 N 
ATOM     12  C   UNL     1      33.634 -16.586 -24.453  0.00  0.00    +0.172 C 
ATOM     13  C   UNL     1      33.278 -19.341 -24.450  0.00  0.00    +0.172 C 
ATOM     14  C   UNL     1      34.943 -16.903 -23.745  0.00  0.00    +0.119 C 
ATOM     15  C   UNL     1      34.625 -19.362 -23.742  0.00  0.00    +0.119 C 
ATOM     16  C   UNL     1      34.848 -18.059 -21.563  0.00  0.00    +0.251 C 
ENDBRANCH   2  16
BRANCH   6  17
ATOM     17  O   UNL     1      34.223 -22.765 -18.657  0.00  0.00    -0.455 OA
BRANCH  17  18
ATOM     18  C   UNL     1      34.808 -22.785 -17.361  0.00  0.00    +0.238 C 
BRANCH  18  21
ATOM     19  O   UNL     1      31.962 -24.004 -15.356  0.00  0.00    -0.358 OA
ATOM     20  N   UNL     1      33.000 -24.598 -14.648  0.00  0.00    -0.078 NA
ATOM     21  C   UNL     1      33.841 -23.404 -16.395  0.00  0.00    +0.075 A 
ATOM     22  C   UNL     1      34.112 -24.225 -15.287  0.00  0.00    +0.122 A 
ATOM     23  C   UNL     1      32.475 -23.295 -16.394  0.00  0.00    +0.154 A 
ATOM     24  C   UNL     1      31.507 -22.598 -17.252  0.00  0.00    +0.075 C 
BRANCH  22  26
ATOM     25  F   UNL     1      39.095 -25.929 -13.480  0.00  0.00    -0.204 F 
ATOM     26  C   UNL     1      35.399 -24.665 -14.820  0.00  0.00    +0.021 C 
ATOM     27  C   UNL     1      36.172 -23.830 -14.013  0.00  0.00    +0.004 C 
ATOM     28  C   UNL     1      35.876 -25.928 -15.174  0.00  0.00    +0.004 C 
ATOM     29  C   UNL     1      37.420 -24.257 -13.560  0.00  0.00    +0.030 C 
ATOM     30  C   UNL     1      37.125 -26.355 -14.722  0.00  0.00    +0.030 C 
ATOM     31  C   UNL     1      37.897 -25.519 -13.915  0.00  0.00    +0.140 C 
ENDBRANCH  22  26
ENDBRANCH  18  21
ENDBRANCH  17  18
ENDBRANCH   6  17
TORSDOF 5
ENDMDL
MODEL 3
REMARK VINA RESULT:     -12.4      1.121      1.586
REMARK  Name = 57336276
REMARK  5 active torsions:
REMARK  status: ('A' for Active; 'I' for Inactive)
REMARK    1  A    between atoms: C_2  and  C_16
REMARK    2  A    between atoms: C_6  and  O_17
REMARK    3  A    between atoms: O_17  and  C_18
REMARK    4  A    between atoms: C_18  and  C_21
REMARK    5  A    between atoms: C_22  and  C_26
REMARK                            x       y       z     vdW  Elec       q    Type
REMARK                         _______ _______ _______ _____ _____    ______ ____
ROOT
ATOM      1  N   UNL     1      32.332 -20.682 -19.959  0.00  0.00    -0.210 NA
ATOM      2  C   UNL     1      34.264 -19.464 -20.751  0.00  0.00    +0.073 C 
ATOM      3  C   UNL     1      35.104 -20.425 -20.201  0.00  0.00    +0.011 C 
ATOM      4  C   UNL     1      32.896 -19.637 -20.604  0.00  0.00    +0.107 C 
ATOM      5  C   UNL     1      34.560 -21.515 -19.530  0.00  0.00    +0.058 C 
ATOM      6  C   UNL     1      33.180 -21.596 -19.437  0.00  0.00    +0.225 C 
ENDROOT
BRANCH   2  16
ATOM      7  S   UNL     1      33.300 -17.602 -25.452  0.00  0.00    -0.007 S 
ATOM      8  O   UNL     1      32.004 -17.045 -25.786  0.00  0.00    -0.173 OA
ATOM      9  O   UNL     1      34.247 -17.959 -26.492  0.00  0.00    -0.173 OA
ATOM     10  O   UNL     1      35.221 -17.381 -20.764  0.00  0.00    -0.270 OA
ATOM     11  N   UNL     1      34.804 -18.328 -22.862  0.00  0.00    -0.272 N 
ATOM     12  C   UNL     1      34.107 -16.477 -24.325  0.00  0.00    +0.172 C 
ATOM     13  C   UNL     1      33.032 -19.037 -24.424  0.00  0.00    +0.172 C 
ATOM     14  C   UNL     1      35.265 -17.151 -23.604  0.00  0.00    +0.119 C 
ATOM     15  C   UNL     1      34.306 -19.436 -23.692  0.00  0.00    +0.119 C 
ATOM     16  C   UNL     1      34.807 -18.302 -21.465  0.00  0.00    +0.251 C 
ENDBRANCH   2  16
BRANCH   6  17
ATOM     17  O   UNL     1      32.620 -22.660 -18.781  0.00  0.00    -0.455 OA
BRANCH  17  18
ATOM     18  C   UNL     1      33.518 -23.606 -18.213  0.00  0.00    +0.238 C 
BRANCH  18  21
ATOM     19  O   UNL     1      34.604 -22.743 -14.795  0.00  0.00    -0.358 OA
ATOM     20  N   UNL     1      33.257 -22.975 -14.545  0.00  0.00    -0.078 NA
ATOM     21  C   UNL     1      33.699 -23.297 -16.756  0.00  0.00    +0.075 A 
ATOM     22  C   UNL     1      32.737 -23.305 -15.731  0.00  0.00    +0.122 A 
ATOM     23  C   UNL     1      34.855 -22.938 -16.115  0.00  0.00    +0.154 A 
ATOM     24  C   UNL     1      36.243 -22.732 -16.553  0.00  0.00    +0.075 C 
BRANCH  22  26
ATOM     25  F   UNL     1      27.321 -24.511 -16.184  0.00  0.00    -0.204 F 
ATOM     26  C   UNL     1      31.338 -23.617 -15.848  0.00  0.00    +0.021 C 
ATOM     27  C   UNL     1      30.483 -22.745 -16.523  0.00  0.00    +0.004 C 
ATOM     28  C   UNL     1      30.834 -24.791 -15.286  0.00  0.00    +0.004 C 
ATOM     29  C   UNL     1      29.126 -23.048 -16.637  0.00  0.00    +0.030 C 
ATOM     30  C   UNL     1      29.477 -25.093 -15.400  0.00  0.00    +0.030 C 
ATOM     31  C   UNL     1      28.623 -24.221 -16.075  0.00  0.00    +0.140 C 
ENDBRANCH  22  26
ENDBRANCH  18  21
ENDBRANCH  17  18
ENDBRANCH   6  17
TORSDOF 5
ENDMDL
MODEL 4
REMARK VINA RESULT:     -11.6      6.635     10.397
REMARK  Name = 57336276
REMARK  5 active torsions:
REMARK  status: ('A' for Active; 'I' for Inactive)
REMARK    1  A    between atoms: C_2  and  C_16
REMARK    2  A    between atoms: C_6  and  O_17
REMARK    3  A    between atoms: O_17  and  C_18
REMARK    4  A    between atoms: C_18  and  C_21
REMARK    5  A    between atoms: C_22  and  C_26
REMARK                            x       y       z     vdW  Elec       q    Type
REMARK                         _______ _______ _______ _____ _____    ______ ____
ROOT
ATOM      1  N   UNL     1      33.544 -13.138 -23.895  0.00  0.00    -0.210 NA
ATOM      2  C   UNL     1      33.882 -10.801 -24.413  0.00  0.00    +0.073 C 
ATOM      3  C   UNL     1      33.665 -11.062 -25.761  0.00  0.00    +0.011 C 
ATOM      4  C   UNL     1      33.811 -11.865 -23.527  0.00  0.00    +0.107 C 
ATOM      5  C   UNL     1      33.386 -12.359 -26.178  0.00  0.00    +0.058 C 
ATOM      6  C   UNL     1      33.338 -13.352 -25.213  0.00  0.00    +0.225 C 
ENDROOT
BRANCH   2  16
ATOM      7  S   UNL     1      31.639  -7.881 -20.818  0.00  0.00    -0.007 S 
ATOM      8  O   UNL     1      31.692  -8.245 -19.415  0.00  0.00    -0.173 OA
ATOM      9  O   UNL     1      30.692  -6.890 -21.292  0.00  0.00    -0.173 OA
ATOM     10  O   UNL     1      35.342  -9.066 -24.073  0.00  0.00    -0.270 OA
ATOM     11  N   UNL     1      33.136  -8.699 -23.384  0.00  0.00    -0.272 N 
ATOM     12  C   UNL     1      33.276  -7.373 -21.316  0.00  0.00    +0.172 C 
ATOM     13  C   UNL     1      31.404  -9.376 -21.764  0.00  0.00    +0.172 C 
ATOM     14  C   UNL     1      33.417  -7.371 -22.831  0.00  0.00    +0.119 C 
ATOM     15  C   UNL     1      31.747  -9.160 -23.231  0.00  0.00    +0.119 C 
ATOM     16  C   UNL     1      34.178  -9.443 -23.942  0.00  0.00    +0.251 C 
ENDBRANCH   2  16
BRANCH   6  17
ATOM     17  O   UNL     1      33.065 -14.639 -25.599  0.00  0.00    -0.455 OA
BRANCH  17  18
ATOM     18  C   UNL     1      33.406 -15.669 -24.679  0.00  0.00    +0.238 C 
BRANCH  18  21
ATOM     19  O   UNL     1      32.323 -18.581 -26.667  0.00  0.00    -0.358 OA
ATOM     20  N   UNL     1      32.969 -19.249 -25.633  0.00  0.00    -0.078 NA
ATOM     21  C   UNL     1      33.088 -17.000 -25.294  0.00  0.00    +0.075 A 
ATOM     22  C   UNL     1      33.417 -18.284 -24.825  0.00  0.00    +0.122 A 
ATOM     23  C   UNL     1      32.400 -17.243 -26.453  0.00  0.00    +0.154 A 
ATOM     24  C   UNL     1      31.763 -16.383 -27.460  0.00  0.00    +0.075 C 
BRANCH  22  26
ATOM     25  F   UNL     1      36.242 -19.578 -20.205  0.00  0.00    -0.204 F 
ATOM     26  C   UNL     1      34.147 -18.618 -23.631  0.00  0.00    +0.021 C 
ATOM     27  C   UNL     1      35.504 -18.311 -23.534  0.00  0.00    +0.004 C 
ATOM     28  C   UNL     1      33.498 -19.250 -22.570  0.00  0.00    +0.004 C 
ATOM     29  C   UNL     1      36.212 -18.634 -22.377  0.00  0.00    +0.030 C 
ATOM     30  C   UNL     1      34.206 -19.574 -21.413  0.00  0.00    +0.030 C 
ATOM     31  C   UNL     1      35.563 -19.267 -21.316  0.00  0.00    +0.140 C 
ENDBRANCH  22  26
ENDBRANCH  18  21
ENDBRANCH  17  18
ENDBRANCH   6  17
TORSDOF 5
ENDMDL
MODEL 5
REMARK VINA RESULT:     -11.4      7.291     11.491
REMARK  Name = 57336276
REMARK  5 active torsions:
REMARK  status: ('A' for Active; 'I' for Inactive)
REMARK    1  A    between atoms: C_2  and  C_16
REMARK    2  A    between atoms: C_6  and  O_17
REMARK    3  A    between atoms: O_17  and  C_18
REMARK    4  A    between atoms: C_18  and  C_21
REMARK    5  A    between atoms: C_22  and  C_26
REMARK                            x       y       z     vdW  Elec       q    Type
REMARK                         _______ _______ _______ _____ _____    ______ ____
ROOT
ATOM      1  N   UNL     1      32.659 -11.669 -23.294  0.00  0.00    -0.210 NA
ATOM      2  C   UNL     1      32.941  -9.346 -23.904  0.00  0.00    +0.073 C 
ATOM      3  C   UNL     1      34.087  -9.668 -24.622  0.00  0.00    +0.011 C 
ATOM      4  C   UNL     1      32.268 -10.375 -23.263  0.00  0.00    +0.107 C 
ATOM      5  C   UNL     1      34.520 -10.988 -24.678  0.00  0.00    +0.058 C 
ATOM      6  C   UNL     1      33.777 -11.942 -24.002  0.00  0.00    +0.225 C 
ENDROOT
BRANCH   2  16
ATOM      7  S   UNL     1      31.825  -6.352 -19.869  0.00  0.00    -0.007 S 
ATOM      8  O   UNL     1      32.860  -5.911 -18.954  0.00  0.00    -0.173 OA
ATOM      9  O   UNL     1      30.423  -6.252 -19.510  0.00  0.00    -0.173 OA
ATOM     10  O   UNL     1      32.742  -7.237 -24.778  0.00  0.00    -0.270 OA
ATOM     11  N   UNL     1      31.735  -7.581 -22.694  0.00  0.00    -0.272 N 
ATOM     12  C   UNL     1      32.066  -5.502 -21.420  0.00  0.00    +0.172 C 
ATOM     13  C   UNL     1      32.170  -8.047 -20.312  0.00  0.00    +0.172 C 
ATOM     14  C   UNL     1      31.310  -6.186 -22.550  0.00  0.00    +0.119 C 
ATOM     15  C   UNL     1      31.402  -8.458 -21.561  0.00  0.00    +0.119 C 
ATOM     16  C   UNL     1      32.459  -7.963 -23.826  0.00  0.00    +0.251 C 
ENDBRANCH   2  16
BRANCH   6  17
ATOM     17  O   UNL     1      34.182 -13.251 -24.042  0.00  0.00    -0.455 OA
BRANCH  17  18
ATOM     18  C   UNL     1      33.159 -14.239 -24.046  0.00  0.00    +0.238 C 
BRANCH  18  21
ATOM     19  O   UNL     1      33.551 -16.077 -27.220  0.00  0.00    -0.358 OA
ATOM     20  N   UNL     1      33.966 -17.068 -26.339  0.00  0.00    -0.078 NA
ATOM     21  C   UNL     1      33.402 -15.192 -25.179  0.00  0.00    +0.075 A 
ATOM     22  C   UNL     1      33.868 -16.517 -25.127  0.00  0.00    +0.122 A 
ATOM     23  C   UNL     1      33.217 -14.965 -26.518  0.00  0.00    +0.154 A 
ATOM     24  C   UNL     1      32.753 -13.812 -27.302  0.00  0.00    +0.075 C 
BRANCH  22  26
ATOM     25  F   UNL     1      35.246 -19.440 -20.592  0.00  0.00    -0.204 F 
ATOM     26  C   UNL     1      34.224 -17.272 -23.955  0.00  0.00    +0.021 C 
ATOM     27  C   UNL     1      34.934 -16.662 -22.920  0.00  0.00    +0.004 C 
ATOM     28  C   UNL     1      33.861 -18.615 -23.853  0.00  0.00    +0.004 C 
ATOM     29  C   UNL     1      35.278 -17.394 -21.784  0.00  0.00    +0.030 C 
ATOM     30  C   UNL     1      34.206 -19.348 -22.717  0.00  0.00    +0.030 C 
ATOM     31  C   UNL     1      34.915 -18.737 -21.683  0.00  0.00    +0.140 C 
ENDBRANCH  22  26
ENDBRANCH  18  21
ENDBRANCH  17  18
ENDBRANCH   6  17
TORSDOF 5
ENDMDL
MODEL 6
REMARK VINA RESULT:     -11.3      9.199     12.783
REMARK  Name = 57336276
REMARK  5 active torsions:
REMARK  status: ('A' for Active; 'I' for Inactive)
REMARK    1  A    between atoms: C_2  and  C_16
REMARK    2  A    between atoms: C_6  and  O_17
REMARK    3  A    between atoms: O_17  and  C_18
REMARK    4  A    between atoms: C_18  and  C_21
REMARK    5  A    between atoms: C_22  and  C_26
REMARK                            x       y       z     vdW  Elec       q    Type
REMARK                         _______ _______ _______ _____ _____    ______ ____
ROOT
ATOM      1  N   UNL     1      34.509 -11.121 -26.966  0.00  0.00    -0.210 NA
ATOM      2  C   UNL     1      32.989 -12.945 -26.509  0.00  0.00    +0.073 C 
ATOM      3  C   UNL     1      33.069 -12.679 -25.147  0.00  0.00    +0.011 C 
ATOM      4  C   UNL     1      33.722 -12.143 -27.371  0.00  0.00    +0.107 C 
ATOM      5  C   UNL     1      33.868 -11.635 -24.693  0.00  0.00    +0.058 C 
ATOM      6  C   UNL     1      34.561 -10.893 -25.636  0.00  0.00    +0.225 C 
ENDROOT
BRANCH   2  16
ATOM      7  S   UNL     1      33.080 -18.008 -25.587  0.00  0.00    -0.007 S 
ATOM      8  O   UNL     1      32.754 -18.537 -24.278  0.00  0.00    -0.173 OA
ATOM      9  O   UNL     1      33.753 -18.830 -26.575  0.00  0.00    -0.173 OA
ATOM     10  O   UNL     1      31.018 -13.733 -27.376  0.00  0.00    -0.270 OA
ATOM     11  N   UNL     1      32.704 -15.323 -27.054  0.00  0.00    -0.272 N 
ATOM     12  C   UNL     1      31.575 -17.381 -26.315  0.00  0.00    +0.172 C 
ATOM     13  C   UNL     1      34.035 -16.517 -25.355  0.00  0.00    +0.172 C 
ATOM     14  C   UNL     1      31.871 -16.450 -27.482  0.00  0.00    +0.119 C 
ATOM     15  C   UNL     1      34.066 -15.679 -26.625  0.00  0.00    +0.119 C 
ATOM     16  C   UNL     1      32.155 -14.040 -27.020  0.00  0.00    +0.251 C 
ENDBRANCH   2  16
BRANCH   6  17
ATOM     17  O   UNL     1      35.355  -9.858 -25.213  0.00  0.00    -0.455 OA
BRANCH  17  18
ATOM     18  C   UNL     1      34.960  -9.195 -24.019  0.00  0.00    +0.238 C 
BRANCH  18  21
ATOM     19  O   UNL     1      32.557  -6.722 -25.328  0.00  0.00    -0.358 OA
ATOM     20  N   UNL     1      31.877  -7.100 -24.177  0.00  0.00    -0.078 NA
ATOM     21  C   UNL     1      33.836  -8.251 -24.330  0.00  0.00    +0.075 A 
ATOM     22  C   UNL     1      32.661  -8.014 -23.597  0.00  0.00    +0.122 A 
ATOM     23  C   UNL     1      33.721  -7.413 -25.409  0.00  0.00    +0.154 A 
ATOM     24  C   UNL     1      34.569  -7.132 -26.576  0.00  0.00    +0.075 C 
BRANCH  22  26
ATOM     25  F   UNL     1      31.119 -10.410 -18.813  0.00  0.00    -0.204 F 
ATOM     26  C   UNL     1      32.262  -8.633 -22.361  0.00  0.00    +0.021 C 
ATOM     27  C   UNL     1      32.694  -8.104 -21.145  0.00  0.00    +0.004 C 
ATOM     28  C   UNL     1      31.444  -9.763 -22.378  0.00  0.00    +0.004 C 
ATOM     29  C   UNL     1      32.307  -8.704 -19.947  0.00  0.00    +0.030 C 
ATOM     30  C   UNL     1      31.058 -10.363 -21.179  0.00  0.00    +0.030 C 
ATOM     31  C   UNL     1      31.490  -9.834 -19.964  0.00  0.00    +0.140 C 
ENDBRANCH  22  26
ENDBRANCH  18  21
ENDBRANCH  17  18
ENDBRANCH   6  17
TORSDOF 5
ENDMDL
MODEL 7
REMARK VINA RESULT:     -11.3      5.971      9.589
REMARK  Name = 57336276
REMARK  5 active torsions:
REMARK  status: ('A' for Active; 'I' for Inactive)
REMARK    1  A    between atoms: C_2  and  C_16
REMARK    2  A    between atoms: C_6  and  O_17
REMARK    3  A    between atoms: O_17  and  C_18
REMARK    4  A    between atoms: C_18  and  C_21
REMARK    5  A    between atoms: C_22  and  C_26
REMARK                            x       y       z     vdW  Elec       q    Type
REMARK                         _______ _______ _______ _____ _____    ______ ____
ROOT
ATOM      1  N   UNL     1      33.057 -13.789 -21.000  0.00  0.00    -0.210 NA
ATOM      2  C   UNL     1      31.992 -11.846 -21.967  0.00  0.00    +0.073 C 
ATOM      3  C   UNL     1      32.453 -12.212 -23.226  0.00  0.00    +0.011 C 
ATOM      4  C   UNL     1      32.319 -12.662 -20.894  0.00  0.00    +0.107 C 
ATOM      5  C   UNL     1      33.215 -13.366 -23.374  0.00  0.00    +0.058 C 
ATOM      6  C   UNL     1      33.487 -14.113 -22.240  0.00  0.00    +0.225 C 
ENDROOT
BRANCH   2  16
ATOM      7  S   UNL     1      31.906  -7.381 -24.524  0.00  0.00    -0.007 S 
ATOM      8  O   UNL     1      31.457  -7.314 -25.901  0.00  0.00    -0.173 OA
ATOM      9  O   UNL     1      32.648  -6.285 -23.930  0.00  0.00    -0.173 OA
ATOM     10  O   UNL     1      30.090 -10.792 -21.240  0.00  0.00    -0.270 OA
ATOM     11  N   UNL     1      31.711  -9.419 -22.221  0.00  0.00    -0.272 N 
ATOM     12  C   UNL     1      30.483  -7.712 -23.498  0.00  0.00    +0.172 C 
ATOM     13  C   UNL     1      32.865  -8.874 -24.331  0.00  0.00    +0.172 C 
ATOM     14  C   UNL     1      30.897  -8.204 -22.120  0.00  0.00    +0.119 C 
ATOM     15  C   UNL     1      33.023  -9.242 -22.862  0.00  0.00    +0.119 C 
ATOM     16  C   UNL     1      31.186 -10.635 -21.777  0.00  0.00    +0.251 C 
ENDBRANCH   2  16
BRANCH   6  17
ATOM     17  O   UNL     1      34.236 -15.254 -22.360  0.00  0.00    -0.455 OA
BRANCH  17  18
ATOM     18  C   UNL     1      34.803 -15.516 -23.637  0.00  0.00    +0.238 C 
BRANCH  18  21
ATOM     19  O   UNL     1      32.722 -17.744 -25.713  0.00  0.00    -0.358 OA
ATOM     20  N   UNL     1      33.135 -18.660 -24.754  0.00  0.00    -0.078 NA
ATOM     21  C   UNL     1      34.028 -16.615 -24.303  0.00  0.00    +0.075 A 
ATOM     22  C   UNL     1      33.914 -17.963 -23.922  0.00  0.00    +0.122 A 
ATOM     23  C   UNL     1      33.259 -16.530 -25.434  0.00  0.00    +0.154 A 
ATOM     24  C   UNL     1      32.921 -15.437 -26.357  0.00  0.00    +0.075 C 
BRANCH  22  26
ATOM     25  F   UNL     1      36.281 -20.451 -19.539  0.00  0.00    -0.204 F 
ATOM     26  C   UNL     1      34.525 -18.606 -22.790  0.00  0.00    +0.021 C 
ATOM     27  C   UNL     1      33.749 -19.365 -21.915  0.00  0.00    +0.004 C 
ATOM     28  C   UNL     1      35.896 -18.470 -22.566  0.00  0.00    +0.004 C 
ATOM     29  C   UNL     1      34.342 -19.989 -20.817  0.00  0.00    +0.030 C 
ATOM     30  C   UNL     1      36.489 -19.094 -21.467  0.00  0.00    +0.030 C 
ATOM     31  C   UNL     1      35.712 -19.852 -20.594  0.00  0.00    +0.140 C 
ENDBRANCH  22  26
ENDBRANCH  18  21
ENDBRANCH  17  18
ENDBRANCH   6  17
TORSDOF 5
ENDMDL
MODEL 8
REMARK VINA RESULT:     -11.1      5.416     11.774
REMARK  Name = 57336276
REMARK  5 active torsions:
REMARK  status: ('A' for Active; 'I' for Inactive)
REMARK    1  A    between atoms: C_2  and  C_16
REMARK    2  A    between atoms: C_6  and  O_17
REMARK    3  A    between atoms: O_17  and  C_18
REMARK    4  A    between atoms: C_18  and  C_21
REMARK    5  A    between atoms: C_22  and  C_26
REMARK                            x       y       z     vdW  Elec       q    Type
REMARK                         _______ _______ _______ _____ _____    ______ ____
ROOT
ATOM      1  N   UNL     1      34.531 -16.117 -23.166  0.00  0.00    -0.210 NA
ATOM      2  C   UNL     1      35.460 -18.233 -22.455  0.00  0.00    +0.073 C 
ATOM      3  C   UNL     1      34.967 -18.842 -23.603  0.00  0.00    +0.011 C 
ATOM      4  C   UNL     1      35.217 -16.878 -22.285  0.00  0.00    +0.107 C 
ATOM      5  C   UNL     1      34.257 -18.091 -24.533  0.00  0.00    +0.058 C 
ATOM      6  C   UNL     1      34.068 -16.744 -24.270  0.00  0.00    +0.225 C 
ENDROOT
BRANCH   2  16
ATOM      7  S   UNL     1      34.133 -22.267 -19.548  0.00  0.00    -0.007 S 
ATOM      8  O   UNL     1      33.851 -23.559 -20.142  0.00  0.00    -0.173 OA
ATOM      9  O   UNL     1      33.736 -21.974 -18.184  0.00  0.00    -0.173 OA
ATOM     10  O   UNL     1      37.436 -19.004 -21.586  0.00  0.00    -0.270 OA
ATOM     11  N   UNL     1      35.496 -19.655 -20.453  0.00  0.00    -0.272 N 
ATOM     12  C   UNL     1      35.886 -21.964 -19.697  0.00  0.00    +0.172 C 
ATOM     13  C   UNL     1      33.442 -21.011 -20.612  0.00  0.00    +0.172 C 
ATOM     14  C   UNL     1      36.213 -20.493 -19.487  0.00  0.00    +0.119 C 
ATOM     15  C   UNL     1      34.032 -19.642 -20.305  0.00  0.00    +0.119 C 
ATOM     16  C   UNL     1      36.213 -18.998 -21.455  0.00  0.00    +0.251 C 
ENDBRANCH   2  16
BRANCH   6  17
ATOM     17  O   UNL     1      33.371 -15.982 -25.171  0.00  0.00    -0.455 OA
BRANCH  17  18
ATOM     18  C   UNL     1      33.379 -14.576 -24.962  0.00  0.00    +0.238 C 
BRANCH  18  21
ATOM     19  O   UNL     1      32.024 -13.497 -28.218  0.00  0.00    -0.358 OA
ATOM     20  N   UNL     1      32.525 -12.279 -27.775  0.00  0.00    -0.078 NA
ATOM     21  C   UNL     1      32.920 -13.891 -26.215  0.00  0.00    +0.075 A 
ATOM     22  C   UNL     1      33.055 -12.539 -26.577  0.00  0.00    +0.122 A 
ATOM     23  C   UNL     1      32.265 -14.449 -27.282  0.00  0.00    +0.154 A 
ATOM     24  C   UNL     1      31.797 -15.806 -27.594  0.00  0.00    +0.075 C 
BRANCH  22  26
ATOM     25  F   UNL     1      35.452  -8.472 -23.624  0.00  0.00    -0.204 F 
ATOM     26  C   UNL     1      33.675 -11.489 -25.814  0.00  0.00    +0.021 C 
ATOM     27  C   UNL     1      33.058 -11.008 -24.659  0.00  0.00    +0.004 C 
ATOM     28  C   UNL     1      34.893 -10.949 -26.229  0.00  0.00    +0.004 C 
ATOM     29  C   UNL     1      33.659  -9.990 -23.919  0.00  0.00    +0.030 C 
ATOM     30  C   UNL     1      35.493  -9.930 -25.489  0.00  0.00    +0.030 C 
ATOM     31  C   UNL     1      34.876  -9.450 -24.335  0.00  0.00    +0.140 C 
ENDBRANCH  22  26
ENDBRANCH  18  21
ENDBRANCH  17  18
ENDBRANCH   6  17
TORSDOF 5
ENDMDL
MODEL 9
REMARK VINA RESULT:     -11.1      7.686     11.863
REMARK  Name = 57336276
REMARK  5 active torsions:
REMARK  status: ('A' for Active; 'I' for Inactive)
REMARK    1  A    between atoms: C_2  and  C_16
REMARK    2  A    between atoms: C_6  and  O_17
REMARK    3  A    between atoms: O_17  and  C_18
REMARK    4  A    between atoms: C_18  and  C_21
REMARK    5  A    between atoms: C_22  and  C_26
REMARK                            x       y       z     vdW  Elec       q    Type
REMARK                         _______ _______ _______ _____ _____    ______ ____
ROOT
ATOM      1  N   UNL     1      32.710 -11.194 -23.600  0.00  0.00    -0.210 NA
ATOM      2  C   UNL     1      33.315  -8.854 -23.531  0.00  0.00    +0.073 C 
ATOM      3  C   UNL     1      34.544  -9.149 -24.113  0.00  0.00    +0.011 C 
ATOM      4  C   UNL     1      32.441  -9.904 -23.297  0.00  0.00    +0.107 C 
ATOM      5  C   UNL     1      34.856 -10.464 -24.439  0.00  0.00    +0.058 C 
ATOM      6  C   UNL     1      33.913 -11.441 -24.163  0.00  0.00    +0.225 C 
ENDROOT
BRANCH   2  16
ATOM      7  S   UNL     1      30.645  -5.269 -26.081  0.00  0.00    -0.007 S 
ATOM      8  O   UNL     1      29.230  -5.437 -26.349  0.00  0.00    -0.173 OA
ATOM      9  O   UNL     1      31.423  -4.271 -26.792  0.00  0.00    -0.173 OA
ATOM     10  O   UNL     1      32.882  -7.230 -21.974  0.00  0.00    -0.270 OA
ATOM     11  N   UNL     1      32.722  -6.570 -24.213  0.00  0.00    -0.272 N 
ATOM     12  C   UNL     1      30.843  -4.986 -24.330  0.00  0.00    +0.172 C 
ATOM     13  C   UNL     1      31.437  -6.854 -26.298  0.00  0.00    +0.172 C 
ATOM     14  C   UNL     1      32.283  -5.209 -23.892  0.00  0.00    +0.119 C 
ATOM     15  C   UNL     1      32.813  -6.876 -25.649  0.00  0.00    +0.119 C 
ATOM     16  C   UNL     1      32.956  -7.477 -23.176  0.00  0.00    +0.251 C 
ENDBRANCH   2  16
BRANCH   6  17
ATOM     17  O   UNL     1      34.197 -12.745 -24.475  0.00  0.00    -0.455 OA
BRANCH  17  18
ATOM     18  C   UNL     1      33.121 -13.671 -24.399  0.00  0.00    +0.238 C 
BRANCH  18  21
ATOM     19  O   UNL     1      33.241 -15.622 -27.527  0.00  0.00    -0.358 OA
ATOM     20  N   UNL     1      33.656 -16.606 -26.638  0.00  0.00    -0.078 NA
ATOM     21  C   UNL     1      33.252 -14.669 -25.511  0.00  0.00    +0.075 A 
ATOM     22  C   UNL     1      33.655 -16.014 -25.441  0.00  0.00    +0.122 A 
ATOM     23  C   UNL     1      33.003 -14.473 -26.844  0.00  0.00    +0.154 A 
ATOM     24  C   UNL     1      32.552 -13.322 -27.639  0.00  0.00    +0.075 C 
BRANCH  22  26
ATOM     25  F   UNL     1      35.143 -18.864 -20.895  0.00  0.00    -0.204 F 
ATOM     26  C   UNL     1      34.040 -16.750 -24.266  0.00  0.00    +0.021 C 
ATOM     27  C   UNL     1      33.760 -18.114 -24.175  0.00  0.00    +0.004 C 
ATOM     28  C   UNL     1      34.692 -16.101 -23.217  0.00  0.00    +0.004 C 
ATOM     29  C   UNL     1      34.134 -18.828 -23.037  0.00  0.00    +0.030 C 
ATOM     30  C   UNL     1      35.064 -16.815 -22.078  0.00  0.00    +0.030 C 
ATOM     31  C   UNL     1      34.785 -18.178 -21.988  0.00  0.00    +0.140 C 
ENDBRANCH  22  26
ENDBRANCH  18  21
ENDBRANCH  17  18
ENDBRANCH   6  17
TORSDOF 5
ENDMDL
