MODEL 1
REMARK VINA RESULT:     -12.9      0.000      0.000
REMARK  Name = 24996872
REMARK  6 active torsions:
REMARK  status: ('A' for Active; 'I' for Inactive)
REMARK    1  A    between atoms: O_1  and  C_3
REMARK    2  A    between atoms: O_1  and  C_18
REMARK    3  A    between atoms: C_7  and  C_8
REMARK    4  A    between atoms: C_11  and  S_14
REMARK    5  A    between atoms: C_18  and  C_23
REMARK    6  A    between atoms: C_29  and  C_30
REMARK                            x       y       z     vdW  Elec       q    Type
REMARK                         _______ _______ _______ _____ _____    ______ ____
ROOT
ATOM      1  O   UNL     1      35.221 -20.344 -21.119  0.00  0.00    -0.474 OA
ENDROOT
BRANCH   1   3
ATOM      2  N   UNL     1      36.493 -21.414 -17.857  0.00  0.00    -0.241 NA
ATOM      3  C   UNL     1      35.270 -20.960 -19.892  0.00  0.00    +0.158 C 
ATOM      4  C   UNL     1      34.207 -21.729 -19.434  0.00  0.00    +0.040 C 
ATOM      5  C   UNL     1      36.381 -20.834 -19.073  0.00  0.00    +0.136 C 
ATOM      6  C   UNL     1      34.285 -22.342 -18.188  0.00  0.00    +0.022 C 
ATOM      7  C   UNL     1      35.440 -22.154 -17.445  0.00  0.00    +0.082 C 
BRANCH   7   8
ATOM      8  C   UNL     1      35.591 -22.759 -16.143  0.00  0.00    +0.018 C 
ATOM      9  C   UNL     1      36.859 -22.878 -15.572  0.00  0.00    +0.003 C 
ATOM     10  C   UNL     1      34.471 -23.223 -15.455  0.00  0.00    +0.003 C 
ATOM     11  C   UNL     1      35.884 -23.927 -13.626  0.00  0.00    +0.106 C 
ATOM     12  C   UNL     1      37.004 -23.463 -14.314  0.00  0.00    +0.018 C 
ATOM     13  C   UNL     1      34.616 -23.807 -14.197  0.00  0.00    +0.018 C 
BRANCH  11  14
ATOM     14  S   UNL     1      36.066 -24.658 -12.052  0.00  0.00    +0.010 S 
ATOM     15  O   UNL     1      36.987 -23.835 -11.279  0.00  0.00    -0.169 OA
ATOM     16  O   UNL     1      34.746 -24.963 -11.516  0.00  0.00    -0.169 OA
ATOM     17  C   UNL     1      36.865 -26.214 -12.376  0.00  0.00    +0.182 C 
ENDBRANCH  11  14
ENDBRANCH   7   8
ENDBRANCH   1   3
BRANCH   1  18
ATOM     18  C   UNL     1      35.797 -19.054 -21.214  0.00  0.00    +0.205 C 
BRANCH  18  23
ATOM     19  O   UNL     1      32.197 -17.886 -26.381  0.00  0.00    -0.296 OA
ATOM     20  N   UNL     1      33.756 -17.503 -24.676  0.00  0.00    -0.251 N 
ATOM     21  N   UNL     1      32.827 -15.752 -26.121  0.00  0.00    -0.300 NA
ATOM     22  N   UNL     1      31.493 -17.151 -27.345  0.00  0.00    -0.010 NA
ATOM     23  C   UNL     1      35.521 -18.502 -22.611  0.00  0.00    +0.047 C 
ATOM     24  C   UNL     1      34.902 -17.103 -22.532  0.00  0.00    +0.025 C 
ATOM     25  C   UNL     1      34.586 -19.432 -23.390  0.00  0.00    +0.025 C 
ATOM     26  C   UNL     1      34.586 -16.553 -23.922  0.00  0.00    +0.096 C 
ATOM     27  C   UNL     1      34.264 -18.874 -24.777  0.00  0.00    +0.096 C 
ATOM     28  C   UNL     1      32.957 -16.986 -25.704  0.00  0.00    +0.379 C 
ATOM     29  C   UNL     1      31.919 -15.903 -27.127  0.00  0.00    +0.104 C 
BRANCH  29  30
ATOM     30  C   UNL     1      31.437 -14.769 -27.923  0.00  0.00    +0.101 C 
ATOM     31  C   UNL     1      29.892 -14.721 -28.049  0.00  0.00    +0.017 C 
ATOM     32  C   UNL     1      31.939 -13.398 -27.404  0.00  0.00    +0.017 C 
ENDBRANCH  29  30
ENDBRANCH  18  23
ENDBRANCH   1  18
TORSDOF 6
ENDMDL
MODEL 2
REMARK VINA RESULT:     -12.3      2.414      3.197
REMARK  Name = 24996872
REMARK  6 active torsions:
REMARK  status: ('A' for Active; 'I' for Inactive)
REMARK    1  A    between atoms: O_1  and  C_3
REMARK    2  A    between atoms: O_1  and  C_18
REMARK    3  A    between atoms: C_7  and  C_8
REMARK    4  A    between atoms: C_11  and  S_14
REMARK    5  A    between atoms: C_18  and  C_23
REMARK    6  A    between atoms: C_29  and  C_30
REMARK                            x       y       z     vdW  Elec       q    Type
REMARK                         _______ _______ _______ _____ _____    ______ ____
ROOT
ATOM      1  O   UNL     1      33.698 -19.440 -22.170  0.00  0.00    -0.474 OA
ENDROOT
BRANCH   1   3
ATOM      2  N   UNL     1      35.767 -20.810 -19.478  0.00  0.00    -0.241 NA
ATOM      3  C   UNL     1      34.047 -20.132 -21.036  0.00  0.00    +0.158 C 
ATOM      4  C   UNL     1      33.097 -20.837 -20.306  0.00  0.00    +0.040 C 
ATOM      5  C   UNL     1      35.357 -20.150 -20.584  0.00  0.00    +0.136 C 
ATOM      6  C   UNL     1      33.480 -21.530 -19.162  0.00  0.00    +0.022 C 
ATOM      7  C   UNL     1      34.815 -21.484 -18.794  0.00  0.00    +0.082 C 
BRANCH   7   8
ATOM      8  C   UNL     1      35.285 -22.178 -17.619  0.00  0.00    +0.018 C 
ATOM      9  C   UNL     1      34.412 -22.989 -16.891  0.00  0.00    +0.003 C 
ATOM     10  C   UNL     1      36.611 -22.040 -17.210  0.00  0.00    +0.003 C 
ATOM     11  C   UNL     1      36.193 -23.520 -15.347  0.00  0.00    +0.106 C 
ATOM     12  C   UNL     1      34.867 -23.659 -15.756  0.00  0.00    +0.018 C 
ATOM     13  C   UNL     1      37.066 -22.710 -16.075  0.00  0.00    +0.018 C 
BRANCH  11  14
ATOM     14  S   UNL     1      36.762 -24.359 -13.927  0.00  0.00    +0.010 S 
ATOM     15  O   UNL     1      36.105 -25.659 -13.880  0.00  0.00    -0.169 OA
ATOM     16  O   UNL     1      38.216 -24.283 -13.883  0.00  0.00    -0.169 OA
ATOM     17  C   UNL     1      36.152 -23.389 -12.566  0.00  0.00    +0.182 C 
ENDBRANCH  11  14
ENDBRANCH   7   8
ENDBRANCH   1   3
BRANCH   1  18
ATOM     18  C   UNL     1      34.599 -19.497 -23.261  0.00  0.00    +0.205 C 
BRANCH  18  23
ATOM     19  O   UNL     1      32.797 -13.897 -25.795  0.00  0.00    -0.296 OA
ATOM     20  N   UNL     1      33.923 -15.395 -24.390  0.00  0.00    -0.251 N 
ATOM     21  N   UNL     1      33.833 -12.969 -24.039  0.00  0.00    -0.300 NA
ATOM     22  N   UNL     1      32.555 -12.520 -25.882  0.00  0.00    -0.010 NA
ATOM     23  C   UNL     1      34.823 -18.078 -23.778  0.00  0.00    +0.047 C 
ATOM     24  C   UNL     1      34.556 -17.047 -22.676  0.00  0.00    +0.025 C 
ATOM     25  C   UNL     1      33.918 -17.786 -24.980  0.00  0.00    +0.025 C 
ATOM     26  C   UNL     1      34.740 -15.619 -23.189  0.00  0.00    +0.096 C 
ATOM     27  C   UNL     1      34.098 -16.354 -25.485  0.00  0.00    +0.096 C 
ATOM     28  C   UNL     1      33.555 -14.075 -24.682  0.00  0.00    +0.379 C 
ATOM     29  C   UNL     1      33.197 -12.042 -24.812  0.00  0.00    +0.104 C 
BRANCH  29  30
ATOM     30  C   UNL     1      33.216 -10.612 -24.492  0.00  0.00    +0.101 C 
ATOM     31  C   UNL     1      32.418 -10.259 -23.210  0.00  0.00    +0.017 C 
ATOM     32  C   UNL     1      34.646 -10.029 -24.365  0.00  0.00    +0.017 C 
ENDBRANCH  29  30
ENDBRANCH  18  23
ENDBRANCH   1  18
TORSDOF 6
ENDMDL
MODEL 3
REMARK VINA RESULT:     -12.2      4.246     13.167
REMARK  Name = 24996872
REMARK  6 active torsions:
REMARK  status: ('A' for Active; 'I' for Inactive)
REMARK    1  A    between atoms: O_1  and  C_3
REMARK    2  A    between atoms: O_1  and  C_18
REMARK    3  A    between atoms: C_7  and  C_8
REMARK    4  A    between atoms: C_11  and  S_14
REMARK    5  A    between atoms: C_18  and  C_23
REMARK    6  A    between atoms: C_29  and  C_30
REMARK                            x       y       z     vdW  Elec       q    Type
REMARK                         _______ _______ _______ _____ _____    ______ ____
ROOT
ATOM      1  O   UNL     1      35.351 -20.060 -20.793  0.00  0.00    -0.474 OA
ENDROOT
BRANCH   1   3
ATOM      2  N   UNL     1      34.799 -16.756 -22.270  0.00  0.00    -0.241 NA
ATOM      3  C   UNL     1      34.973 -19.099 -21.698  0.00  0.00    +0.158 C 
ATOM      4  C   UNL     1      34.404 -19.446 -22.917  0.00  0.00    +0.040 C 
ATOM      5  C   UNL     1      35.148 -17.751 -21.424  0.00  0.00    +0.136 C 
ATOM      6  C   UNL     1      34.031 -18.451 -23.814  0.00  0.00    +0.022 C 
ATOM      7  C   UNL     1      34.249 -17.133 -23.446  0.00  0.00    +0.082 C 
BRANCH   7   8
ATOM      8  C   UNL     1      33.887 -16.047 -24.326  0.00  0.00    +0.018 C 
ATOM      9  C   UNL     1      33.716 -16.282 -25.690  0.00  0.00    +0.003 C 
ATOM     10  C   UNL     1      33.708 -14.763 -23.812  0.00  0.00    +0.003 C 
ATOM     11  C   UNL     1      33.188 -13.948 -26.026  0.00  0.00    +0.106 C 
ATOM     12  C   UNL     1      33.367 -15.232 -26.540  0.00  0.00    +0.018 C 
ATOM     13  C   UNL     1      33.359 -13.713 -24.661  0.00  0.00    +0.018 C 
BRANCH  11  14
ATOM     14  S   UNL     1      32.750 -12.635 -27.089  0.00  0.00    +0.010 S 
ATOM     15  O   UNL     1      33.757 -12.553 -28.139  0.00  0.00    -0.169 OA
ATOM     16  O   UNL     1      31.344 -12.763 -27.446  0.00  0.00    -0.169 OA
ATOM     17  C   UNL     1      32.897 -11.179 -26.077  0.00  0.00    +0.182 C 
ENDBRANCH  11  14
ENDBRANCH   7   8
ENDBRANCH   1   3
BRANCH   1  18
ATOM     18  C   UNL     1      34.348 -20.957 -20.352  0.00  0.00    +0.205 C 
BRANCH  18  23
ATOM     19  O   UNL     1      35.184 -24.934 -15.401  0.00  0.00    -0.296 OA
ATOM     20  N   UNL     1      35.539 -23.094 -16.806  0.00  0.00    -0.251 N 
ATOM     21  N   UNL     1      37.092 -23.815 -15.050  0.00  0.00    -0.300 NA
ATOM     22  N   UNL     1      35.834 -25.591 -14.348  0.00  0.00    -0.010 NA
ATOM     23  C   UNL     1      34.621 -21.307 -18.891  0.00  0.00    +0.047 C 
ATOM     24  C   UNL     1      36.111 -21.582 -18.665  0.00  0.00    +0.025 C 
ATOM     25  C   UNL     1      33.805 -22.531 -18.461  0.00  0.00    +0.025 C 
ATOM     26  C   UNL     1      36.394 -21.971 -17.214  0.00  0.00    +0.096 C 
ATOM     27  C   UNL     1      34.097 -22.923 -17.012  0.00  0.00    +0.096 C 
ATOM     28  C   UNL     1      35.992 -23.901 -15.755  0.00  0.00    +0.379 C 
ATOM     29  C   UNL     1      36.951 -24.873 -14.201  0.00  0.00    +0.104 C 
BRANCH  29  30
ATOM     30  C   UNL     1      37.959 -25.203 -13.189  0.00  0.00    +0.101 C 
ATOM     31  C   UNL     1      39.385 -25.372 -13.776  0.00  0.00    +0.017 C 
ATOM     32  C   UNL     1      38.017 -24.184 -12.023  0.00  0.00    +0.017 C 
ENDBRANCH  29  30
ENDBRANCH  18  23
ENDBRANCH   1  18
TORSDOF 6
ENDMDL
MODEL 4
REMARK VINA RESULT:     -12.0      1.880      2.542
REMARK  Name = 24996872
REMARK  6 active torsions:
REMARK  status: ('A' for Active; 'I' for Inactive)
REMARK    1  A    between atoms: O_1  and  C_3
REMARK    2  A    between atoms: O_1  and  C_18
REMARK    3  A    between atoms: C_7  and  C_8
REMARK    4  A    between atoms: C_11  and  S_14
REMARK    5  A    between atoms: C_18  and  C_23
REMARK    6  A    between atoms: C_29  and  C_30
REMARK                            x       y       z     vdW  Elec       q    Type
REMARK                         _______ _______ _______ _____ _____    ______ ____
ROOT
ATOM      1  O   UNL     1      34.980 -20.432 -21.174  0.00  0.00    -0.474 OA
ENDROOT
BRANCH   1   3
ATOM      2  N   UNL     1      36.368 -21.488 -17.955  0.00  0.00    -0.241 NA
ATOM      3  C   UNL     1      35.066 -21.029 -19.940  0.00  0.00    +0.158 C 
ATOM      4  C   UNL     1      34.003 -21.756 -19.420  0.00  0.00    +0.040 C 
ATOM      5  C   UNL     1      36.217 -20.926 -19.175  0.00  0.00    +0.136 C 
ATOM      6  C   UNL     1      34.119 -22.350 -18.167  0.00  0.00    +0.022 C 
ATOM      7  C   UNL     1      35.312 -22.187 -17.482  0.00  0.00    +0.082 C 
BRANCH   7   8
ATOM      8  C   UNL     1      35.505 -22.774 -16.177  0.00  0.00    +0.018 C 
ATOM      9  C   UNL     1      34.406 -23.217 -15.441  0.00  0.00    +0.003 C 
ATOM     10  C   UNL     1      36.791 -22.901 -15.652  0.00  0.00    +0.003 C 
ATOM     11  C   UNL     1      35.879 -23.911 -13.656  0.00  0.00    +0.106 C 
ATOM     12  C   UNL     1      34.593 -23.785 -14.181  0.00  0.00    +0.018 C 
ATOM     13  C   UNL     1      36.979 -23.468 -14.392  0.00  0.00    +0.018 C 
BRANCH  11  14
ATOM     14  S   UNL     1      36.113 -24.621 -12.080  0.00  0.00    +0.010 S 
ATOM     15  O   UNL     1      37.002 -23.750 -11.322  0.00  0.00    -0.169 OA
ATOM     16  O   UNL     1      34.815 -24.984 -11.527  0.00  0.00    -0.169 OA
ATOM     17  C   UNL     1      36.982 -26.139 -12.403  0.00  0.00    +0.182 C 
ENDBRANCH  11  14
ENDBRANCH   7   8
ENDBRANCH   1   3
BRANCH   1  18
ATOM     18  C   UNL     1      35.726 -19.245 -21.368  0.00  0.00    +0.205 C 
BRANCH  18  23
ATOM     19  O   UNL     1      34.191 -13.324 -23.265  0.00  0.00    -0.296 OA
ATOM     20  N   UNL     1      34.232 -15.665 -23.241  0.00  0.00    -0.251 N 
ATOM     21  N   UNL     1      33.343 -14.316 -25.086  0.00  0.00    -0.300 NA
ATOM     22  N   UNL     1      33.777 -12.290 -24.116  0.00  0.00    -0.010 NA
ATOM     23  C   UNL     1      34.782 -18.156 -21.873  0.00  0.00    +0.047 C 
ATOM     24  C   UNL     1      34.845 -18.046 -23.400  0.00  0.00    +0.025 C 
ATOM     25  C   UNL     1      35.127 -16.801 -21.248  0.00  0.00    +0.025 C 
ATOM     26  C   UNL     1      33.933 -16.934 -23.918  0.00  0.00    +0.096 C 
ATOM     27  C   UNL     1      34.218 -15.690 -21.774  0.00  0.00    +0.096 C 
ATOM     28  C   UNL     1      33.899 -14.482 -23.912  0.00  0.00    +0.379 C 
ATOM     29  C   UNL     1      33.289 -12.955 -25.167  0.00  0.00    +0.104 C 
BRANCH  29  30
ATOM     30  C   UNL     1      32.731 -12.263 -26.333  0.00  0.00    +0.101 C 
ATOM     31  C   UNL     1      32.792 -10.718 -26.217  0.00  0.00    +0.017 C 
ATOM     32  C   UNL     1      33.386 -12.689 -27.672  0.00  0.00    +0.017 C 
ENDBRANCH  29  30
ENDBRANCH  18  23
ENDBRANCH   1  18
TORSDOF 6
ENDMDL
MODEL 5
REMARK VINA RESULT:     -12.0      5.016      7.269
REMARK  Name = 24996872
REMARK  6 active torsions:
REMARK  status: ('A' for Active; 'I' for Inactive)
REMARK    1  A    between atoms: O_1  and  C_3
REMARK    2  A    between atoms: O_1  and  C_18
REMARK    3  A    between atoms: C_7  and  C_8
REMARK    4  A    between atoms: C_11  and  S_14
REMARK    5  A    between atoms: C_18  and  C_23
REMARK    6  A    between atoms: C_29  and  C_30
REMARK                            x       y       z     vdW  Elec       q    Type
REMARK                         _______ _______ _______ _____ _____    ______ ____
ROOT
ATOM      1  O   UNL     1      34.481 -15.776 -24.882  0.00  0.00    -0.474 OA
ENDROOT
BRANCH   1   3
ATOM      2  N   UNL     1      33.602 -18.924 -23.233  0.00  0.00    -0.241 NA
ATOM      3  C   UNL     1      34.380 -16.736 -23.905  0.00  0.00    +0.158 C 
ATOM      4  C   UNL     1      34.921 -16.532 -22.641  0.00  0.00    +0.040 C 
ATOM      5  C   UNL     1      33.736 -17.938 -24.149  0.00  0.00    +0.136 C 
ATOM      6  C   UNL     1      34.803 -17.522 -21.672  0.00  0.00    +0.022 C 
ATOM      7  C   UNL     1      34.141 -18.690 -22.016  0.00  0.00    +0.082 C 
BRANCH   7   8
ATOM      8  C   UNL     1      33.980 -19.761 -21.061  0.00  0.00    +0.018 C 
ATOM      9  C   UNL     1      35.100 -20.436 -20.575  0.00  0.00    +0.003 C 
ATOM     10  C   UNL     1      32.706 -20.121 -20.625  0.00  0.00    +0.003 C 
ATOM     11  C   UNL     1      33.670 -21.831 -19.216  0.00  0.00    +0.106 C 
ATOM     12  C   UNL     1      34.944 -21.471 -19.653  0.00  0.00    +0.018 C 
ATOM     13  C   UNL     1      32.550 -21.156 -19.703  0.00  0.00    +0.018 C 
BRANCH  11  14
ATOM     14  S   UNL     1      33.475 -23.126 -18.062  0.00  0.00    +0.010 S 
ATOM     15  O   UNL     1      33.288 -24.365 -18.806  0.00  0.00    -0.169 OA
ATOM     16  O   UNL     1      34.534 -23.034 -17.066  0.00  0.00    -0.169 OA
ATOM     17  C   UNL     1      31.947 -22.752 -17.231  0.00  0.00    +0.182 C 
ENDBRANCH  11  14
ENDBRANCH   7   8
ENDBRANCH   1   3
BRANCH   1  18
ATOM     18  C   UNL     1      33.328 -14.994 -25.137  0.00  0.00    +0.205 C 
BRANCH  18  23
ATOM     19  O   UNL     1      32.066  -8.760 -24.392  0.00  0.00    -0.296 OA
ATOM     20  N   UNL     1      32.645 -10.953 -23.811  0.00  0.00    -0.251 N 
ATOM     21  N   UNL     1      32.056  -9.203 -22.197  0.00  0.00    -0.300 NA
ATOM     22  N   UNL     1      31.692  -7.569 -23.755  0.00  0.00    -0.010 NA
ATOM     23  C   UNL     1      33.552 -13.598 -24.562  0.00  0.00    +0.047 C 
ATOM     24  C   UNL     1      32.673 -13.369 -23.328  0.00  0.00    +0.025 C 
ATOM     25  C   UNL     1      33.252 -12.521 -25.610  0.00  0.00    +0.025 C 
ATOM     26  C   UNL     1      32.858 -11.961 -22.763  0.00  0.00    +0.096 C 
ATOM     27  C   UNL     1      33.430 -11.114 -25.039  0.00  0.00    +0.096 C 
ATOM     28  C   UNL     1      32.260  -9.670 -23.403  0.00  0.00    +0.379 C 
ATOM     29  C   UNL     1      31.709  -7.912 -22.463  0.00  0.00    +0.104 C 
BRANCH  29  30
ATOM     30  C   UNL     1      31.374  -6.957 -21.402  0.00  0.00    +0.101 C 
ATOM     31  C   UNL     1      31.613  -7.516 -19.976  0.00  0.00    +0.017 C 
ATOM     32  C   UNL     1      32.116  -5.603 -21.538  0.00  0.00    +0.017 C 
ENDBRANCH  29  30
ENDBRANCH  18  23
ENDBRANCH   1  18
TORSDOF 6
ENDMDL
MODEL 6
REMARK VINA RESULT:     -11.8      2.134      2.521
REMARK  Name = 24996872
REMARK  6 active torsions:
REMARK  status: ('A' for Active; 'I' for Inactive)
REMARK    1  A    between atoms: O_1  and  C_3
REMARK    2  A    between atoms: O_1  and  C_18
REMARK    3  A    between atoms: C_7  and  C_8
REMARK    4  A    between atoms: C_11  and  S_14
REMARK    5  A    between atoms: C_18  and  C_23
REMARK    6  A    between atoms: C_29  and  C_30
REMARK                            x       y       z     vdW  Elec       q    Type
REMARK                         _______ _______ _______ _____ _____    ______ ____
ROOT
ATOM      1  O   UNL     1      35.354 -20.451 -21.158  0.00  0.00    -0.474 OA
ENDROOT
BRANCH   1   3
ATOM      2  N   UNL     1      36.547 -21.473 -17.851  0.00  0.00    -0.241 NA
ATOM      3  C   UNL     1      35.370 -21.043 -19.919  0.00  0.00    +0.158 C 
ATOM      4  C   UNL     1      34.288 -21.788 -19.466  0.00  0.00    +0.040 C 
ATOM      5  C   UNL     1      36.467 -20.916 -19.081  0.00  0.00    +0.136 C 
ATOM      6  C   UNL     1      34.333 -22.377 -18.206  0.00  0.00    +0.022 C 
ATOM      7  C   UNL     1      35.476 -22.190 -17.445  0.00  0.00    +0.082 C 
BRANCH   7   8
ATOM      8  C   UNL     1      35.594 -22.770 -16.128  0.00  0.00    +0.018 C 
ATOM      9  C   UNL     1      36.804 -22.695 -15.438  0.00  0.00    +0.003 C 
ATOM     10  C   UNL     1      34.497 -23.405 -15.545  0.00  0.00    +0.003 C 
ATOM     11  C   UNL     1      35.821 -23.891 -13.583  0.00  0.00    +0.106 C 
ATOM     12  C   UNL     1      36.917 -23.256 -14.166  0.00  0.00    +0.018 C 
ATOM     13  C   UNL     1      34.610 -23.966 -14.273  0.00  0.00    +0.018 C 
BRANCH  11  14
ATOM     14  S   UNL     1      35.962 -24.593 -11.992  0.00  0.00    +0.010 S 
ATOM     15  O   UNL     1      36.818 -23.725 -11.193  0.00  0.00    -0.169 OA
ATOM     16  O   UNL     1      34.633 -24.939 -11.507  0.00  0.00    -0.169 OA
ATOM     17  C   UNL     1      36.831 -26.122 -12.258  0.00  0.00    +0.182 C 
ENDBRANCH  11  14
ENDBRANCH   7   8
ENDBRANCH   1   3
BRANCH   1  18
ATOM     18  C   UNL     1      34.183 -19.740 -21.515  0.00  0.00    +0.205 C 
BRANCH  18  23
ATOM     19  O   UNL     1      33.185 -14.499 -25.060  0.00  0.00    -0.296 OA
ATOM     20  N   UNL     1      34.042 -15.841 -23.342  0.00  0.00    -0.251 N 
ATOM     21  N   UNL     1      34.196 -13.394 -23.394  0.00  0.00    -0.300 NA
ATOM     22  N   UNL     1      33.103 -13.139 -25.387  0.00  0.00    -0.010 NA
ATOM     23  C   UNL     1      34.597 -18.457 -22.233  0.00  0.00    +0.047 C 
ATOM     24  C   UNL     1      34.372 -17.234 -21.337  0.00  0.00    +0.025 C 
ATOM     25  C   UNL     1      33.813 -18.285 -23.538  0.00  0.00    +0.025 C 
ATOM     26  C   UNL     1      34.746 -15.938 -22.056  0.00  0.00    +0.096 C 
ATOM     27  C   UNL     1      34.183 -16.983 -24.250  0.00  0.00    +0.096 C 
ATOM     28  C   UNL     1      33.842 -14.560 -23.872  0.00  0.00    +0.379 C 
ATOM     29  C   UNL     1      33.720 -12.553 -24.357  0.00  0.00    +0.104 C 
BRANCH  29  30
ATOM     30  C   UNL     1      33.875 -11.098 -24.271  0.00  0.00    +0.101 C 
ATOM     31  C   UNL     1      34.067 -10.418 -25.651  0.00  0.00    +0.017 C 
ATOM     32  C   UNL     1      32.708 -10.399 -23.528  0.00  0.00    +0.017 C 
ENDBRANCH  29  30
ENDBRANCH  18  23
ENDBRANCH   1  18
TORSDOF 6
ENDMDL
MODEL 7
REMARK VINA RESULT:     -11.6      4.337      6.883
REMARK  Name = 24996872
REMARK  6 active torsions:
REMARK  status: ('A' for Active; 'I' for Inactive)
REMARK    1  A    between atoms: O_1  and  C_3
REMARK    2  A    between atoms: O_1  and  C_18
REMARK    3  A    between atoms: C_7  and  C_8
REMARK    4  A    between atoms: C_11  and  S_14
REMARK    5  A    between atoms: C_18  and  C_23
REMARK    6  A    between atoms: C_29  and  C_30
REMARK                            x       y       z     vdW  Elec       q    Type
REMARK                         _______ _______ _______ _____ _____    ______ ____
ROOT
ATOM      1  O   UNL     1      34.569 -15.906 -24.892  0.00  0.00    -0.474 OA
ENDROOT
BRANCH   1   3
ATOM      2  N   UNL     1      33.610 -19.000 -23.184  0.00  0.00    -0.241 NA
ATOM      3  C   UNL     1      34.455 -16.851 -23.901  0.00  0.00    +0.158 C 
ATOM      4  C   UNL     1      35.032 -16.653 -22.653  0.00  0.00    +0.040 C 
ATOM      5  C   UNL     1      33.760 -18.030 -24.115  0.00  0.00    +0.136 C 
ATOM      6  C   UNL     1      34.900 -17.627 -21.668  0.00  0.00    +0.022 C 
ATOM      7  C   UNL     1      34.186 -18.772 -21.982  0.00  0.00    +0.082 C 
BRANCH   7   8
ATOM      8  C   UNL     1      34.008 -19.825 -21.011  0.00  0.00    +0.018 C 
ATOM      9  C   UNL     1      32.724 -20.183 -20.597  0.00  0.00    +0.003 C 
ATOM     10  C   UNL     1      35.118 -20.486 -20.488  0.00  0.00    +0.003 C 
ATOM     11  C   UNL     1      33.664 -21.862 -19.135  0.00  0.00    +0.106 C 
ATOM     12  C   UNL     1      32.553 -21.200 -19.659  0.00  0.00    +0.018 C 
ATOM     13  C   UNL     1      34.947 -21.504 -19.549  0.00  0.00    +0.018 C 
BRANCH  11  14
ATOM     14  S   UNL     1      33.449 -23.135 -17.962  0.00  0.00    +0.010 S 
ATOM     15  O   UNL     1      33.268 -24.387 -18.685  0.00  0.00    -0.169 OA
ATOM     16  O   UNL     1      34.494 -23.030 -16.953  0.00  0.00    -0.169 OA
ATOM     17  C   UNL     1      31.911 -22.742 -17.158  0.00  0.00    +0.182 C 
ENDBRANCH  11  14
ENDBRANCH   7   8
ENDBRANCH   1   3
BRANCH   1  18
ATOM     18  C   UNL     1      33.437 -15.701 -25.718  0.00  0.00    +0.205 C 
BRANCH  18  23
ATOM     19  O   UNL     1      33.955  -9.588 -23.877  0.00  0.00    -0.296 OA
ATOM     20  N   UNL     1      33.357 -11.425 -25.202  0.00  0.00    -0.251 N 
ATOM     21  N   UNL     1      33.241  -9.090 -25.941  0.00  0.00    -0.300 NA
ATOM     22  N   UNL     1      34.009  -8.192 -23.982  0.00  0.00    -0.010 NA
ATOM     23  C   UNL     1      32.938 -14.273 -25.510  0.00  0.00    +0.047 C 
ATOM     24  C   UNL     1      33.324 -13.383 -26.697  0.00  0.00    +0.025 C 
ATOM     25  C   UNL     1      33.508 -13.678 -24.219  0.00  0.00    +0.025 C 
ATOM     26  C   UNL     1      32.864 -11.941 -26.486  0.00  0.00    +0.096 C 
ATOM     27  C   UNL     1      33.053 -12.232 -24.016  0.00  0.00    +0.096 C 
ATOM     28  C   UNL     1      33.493 -10.037 -25.074  0.00  0.00    +0.379 C 
ATOM     29  C   UNL     1      33.573  -7.976 -25.227  0.00  0.00    +0.104 C 
BRANCH  29  30
ATOM     30  C   UNL     1      33.460  -6.625 -25.786  0.00  0.00    +0.101 C 
ATOM     31  C   UNL     1      32.794  -6.595 -27.187  0.00  0.00    +0.017 C 
ATOM     32  C   UNL     1      32.713  -5.636 -24.857  0.00  0.00    +0.017 C 
ENDBRANCH  29  30
ENDBRANCH  18  23
ENDBRANCH   1  18
TORSDOF 6
ENDMDL
MODEL 8
REMARK VINA RESULT:     -11.6      2.233      2.819
REMARK  Name = 24996872
REMARK  6 active torsions:
REMARK  status: ('A' for Active; 'I' for Inactive)
REMARK    1  A    between atoms: O_1  and  C_3
REMARK    2  A    between atoms: O_1  and  C_18
REMARK    3  A    between atoms: C_7  and  C_8
REMARK    4  A    between atoms: C_11  and  S_14
REMARK    5  A    between atoms: C_18  and  C_23
REMARK    6  A    between atoms: C_29  and  C_30
REMARK                            x       y       z     vdW  Elec       q    Type
REMARK                         _______ _______ _______ _____ _____    ______ ____
ROOT
ATOM      1  O   UNL     1      35.924 -20.221 -21.364  0.00  0.00    -0.474 OA
ENDROOT
BRANCH   1   3
ATOM      2  N   UNL     1      33.247 -21.483 -19.209  0.00  0.00    -0.241 NA
ATOM      3  C   UNL     1      35.302 -20.839 -20.307  0.00  0.00    +0.158 C 
ATOM      4  C   UNL     1      36.040 -21.431 -19.289  0.00  0.00    +0.040 C 
ATOM      5  C   UNL     1      33.920 -20.891 -20.221  0.00  0.00    +0.136 C 
ATOM      6  C   UNL     1      35.384 -22.049 -18.230  0.00  0.00    +0.022 C 
ATOM      7  C   UNL     1      33.998 -22.048 -18.238  0.00  0.00    +0.082 C 
BRANCH   7   8
ATOM      8  C   UNL     1      33.249 -22.671 -17.172  0.00  0.00    +0.018 C 
ATOM      9  C   UNL     1      33.915 -23.189 -16.062  0.00  0.00    +0.003 C 
ATOM     10  C   UNL     1      31.859 -22.753 -17.252  0.00  0.00    +0.003 C 
ATOM     11  C   UNL     1      31.801 -23.873 -15.112  0.00  0.00    +0.106 C 
ATOM     12  C   UNL     1      33.191 -23.791 -15.033  0.00  0.00    +0.018 C 
ATOM     13  C   UNL     1      31.135 -23.354 -16.223  0.00  0.00    +0.018 C 
BRANCH  11  14
ATOM     14  S   UNL     1      30.895 -24.625 -13.824  0.00  0.00    +0.010 S 
ATOM     15  O   UNL     1      31.676 -25.748 -13.323  0.00  0.00    -0.169 OA
ATOM     16  O   UNL     1      30.439 -23.594 -12.902  0.00  0.00    -0.169 OA
ATOM     17  C   UNL     1      29.448 -25.281 -14.626  0.00  0.00    +0.182 C 
ENDBRANCH  11  14
ENDBRANCH   7   8
ENDBRANCH   1   3
BRANCH   1  18
ATOM     18  C   UNL     1      36.014 -18.809 -21.322  0.00  0.00    +0.205 C 
BRANCH  18  23
ATOM     19  O   UNL     1      32.347 -17.841 -26.483  0.00  0.00    -0.296 OA
ATOM     20  N   UNL     1      33.871 -17.366 -24.768  0.00  0.00    -0.251 N 
ATOM     21  N   UNL     1      32.819 -15.670 -26.194  0.00  0.00    -0.300 NA
ATOM     22  N   UNL     1      31.594 -17.147 -27.439  0.00  0.00    -0.010 NA
ATOM     23  C   UNL     1      35.701 -18.261 -22.712  0.00  0.00    +0.047 C 
ATOM     24  C   UNL     1      34.981 -16.912 -22.617  0.00  0.00    +0.025 C 
ATOM     25  C   UNL     1      34.838 -19.246 -23.506  0.00  0.00    +0.025 C 
ATOM     26  C   UNL     1      34.628 -16.368 -24.001  0.00  0.00    +0.096 C 
ATOM     27  C   UNL     1      34.478 -18.696 -24.886  0.00  0.00    +0.096 C 
ATOM     28  C   UNL     1      33.038 -16.897 -25.792  0.00  0.00    +0.379 C 
ATOM     29  C   UNL     1      31.926 -15.874 -27.205  0.00  0.00    +0.104 C 
BRANCH  29  30
ATOM     30  C   UNL     1      31.364 -14.768 -27.987  0.00  0.00    +0.101 C 
ATOM     31  C   UNL     1      29.814 -14.723 -27.960  0.00  0.00    +0.017 C 
ATOM     32  C   UNL     1      31.911 -13.380 -27.569  0.00  0.00    +0.017 C 
ENDBRANCH  29  30
ENDBRANCH  18  23
ENDBRANCH   1  18
TORSDOF 6
ENDMDL
MODEL 9
REMARK VINA RESULT:     -11.5      2.822      3.758
REMARK  Name = 24996872
REMARK  6 active torsions:
REMARK  status: ('A' for Active; 'I' for Inactive)
REMARK    1  A    between atoms: O_1  and  C_3
REMARK    2  A    between atoms: O_1  and  C_18
REMARK    3  A    between atoms: C_7  and  C_8
REMARK    4  A    between atoms: C_11  and  S_14
REMARK    5  A    between atoms: C_18  and  C_23
REMARK    6  A    between atoms: C_29  and  C_30
REMARK                            x       y       z     vdW  Elec       q    Type
REMARK                         _______ _______ _______ _____ _____    ______ ____
ROOT
ATOM      1  O   UNL     1      35.336 -19.737 -22.060  0.00  0.00    -0.474 OA
ENDROOT
BRANCH   1   3
ATOM      2  N   UNL     1      35.002 -21.788 -19.046  0.00  0.00    -0.241 NA
ATOM      3  C   UNL     1      34.752 -20.384 -20.999  0.00  0.00    +0.158 C 
ATOM      4  C   UNL     1      33.381 -20.316 -20.784  0.00  0.00    +0.040 C 
ATOM      5  C   UNL     1      35.512 -21.127 -20.109  0.00  0.00    +0.136 C 
ATOM      6  C   UNL     1      32.818 -20.983 -19.701  0.00  0.00    +0.022 C 
ATOM      7  C   UNL     1      33.664 -21.697 -18.869  0.00  0.00    +0.082 C 
BRANCH   7   8
ATOM      8  C   UNL     1      33.151 -22.414 -17.726  0.00  0.00    +0.018 C 
ATOM      9  C   UNL     1      34.032 -23.008 -16.821  0.00  0.00    +0.003 C 
ATOM     10  C   UNL     1      31.774 -22.511 -17.524  0.00  0.00    +0.003 C 
ATOM     11  C   UNL     1      32.158 -23.797 -15.515  0.00  0.00    +0.106 C 
ATOM     12  C   UNL     1      33.534 -23.700 -15.717  0.00  0.00    +0.018 C 
ATOM     13  C   UNL     1      31.277 -23.203 -16.420  0.00  0.00    +0.018 C 
BRANCH  11  14
ATOM     14  S   UNL     1      31.536 -24.662 -14.133  0.00  0.00    +0.010 S 
ATOM     15  O   UNL     1      30.712 -25.759 -14.624  0.00  0.00    -0.169 OA
ATOM     16  O   UNL     1      32.633 -24.939 -13.216  0.00  0.00    -0.169 OA
ATOM     17  C   UNL     1      30.466 -23.494 -13.324  0.00  0.00    +0.182 C 
ENDBRANCH  11  14
ENDBRANCH   7   8
ENDBRANCH   1   3
BRANCH   1  18
ATOM     18  C   UNL     1      34.542 -19.553 -23.218  0.00  0.00    +0.205 C 
BRANCH  18  23
ATOM     19  O   UNL     1      32.813 -13.990 -25.879  0.00  0.00    -0.296 OA
ATOM     20  N   UNL     1      33.901 -15.468 -24.424  0.00  0.00    -0.251 N 
ATOM     21  N   UNL     1      33.806 -13.037 -24.112  0.00  0.00    -0.300 NA
ATOM     22  N   UNL     1      32.575 -12.614 -25.993  0.00  0.00    -0.010 NA
ATOM     23  C   UNL     1      34.781 -18.143 -23.751  0.00  0.00    +0.047 C 
ATOM     24  C   UNL     1      34.489 -17.095 -22.671  0.00  0.00    +0.025 C 
ATOM     25  C   UNL     1      33.907 -17.867 -24.978  0.00  0.00    +0.025 C 
ATOM     26  C   UNL     1      34.687 -15.676 -23.201  0.00  0.00    +0.096 C 
ATOM     27  C   UNL     1      34.101 -16.444 -25.501  0.00  0.00    +0.096 C 
ATOM     28  C   UNL     1      33.543 -14.153 -24.745  0.00  0.00    +0.379 C 
ATOM     29  C   UNL     1      33.192 -12.121 -24.914  0.00  0.00    +0.104 C 
BRANCH  29  30
ATOM     30  C   UNL     1      33.205 -10.686 -24.615  0.00  0.00    +0.101 C 
ATOM     31  C   UNL     1      32.542 -10.336 -23.258  0.00  0.00    +0.017 C 
ATOM     32  C   UNL     1      34.624 -10.063 -24.654  0.00  0.00    +0.017 C 
ENDBRANCH  29  30
ENDBRANCH  18  23
ENDBRANCH   1  18
TORSDOF 6
ENDMDL
