MODEL 1
REMARK VINA RESULT:     -11.6      0.000      0.000
REMARK  Name = 176407
REMARK  5 active torsions:
REMARK  status: ('A' for Active; 'I' for Inactive)
REMARK    1  A    between atoms: N_1  and  C_20
REMARK    2  A    between atoms: C_11  and  C_16
REMARK    3  A    between atoms: C_20  and  C_21
REMARK    4  A    between atoms: C_21  and  C_22
REMARK    5  A    between atoms: C_27  and  O_28
REMARK                            x       y       z     vdW  Elec       q    Type
REMARK                         _______ _______ _______ _____ _____    ______ ____
ROOT
ATOM      1  N   UNL     1      35.151 -24.029 -13.932  0.00  0.00    -0.258 N 
ATOM      2  N   UNL     1      32.154 -23.158 -16.425  0.00  0.00    -0.059 N 
ATOM      3  N   UNL     1      32.877 -23.712 -14.262  0.00  0.00    -0.245 NA
ATOM      4  N   UNL     1      34.391 -23.471 -16.097  0.00  0.00    -0.294 NA
ATOM      5  N   UNL     1      31.054 -22.882 -17.140  0.00  0.00    -0.090 NA
ATOM      6  N   UNL     1      30.564 -23.313 -14.946  0.00  0.00    -0.267 NA
ATOM      7  N   UNL     1      33.608 -22.910 -18.264  0.00  0.00    -0.318 N 
ATOM      8  C   UNL     1      34.094 -23.733 -14.760  0.00  0.00    +0.213 C 
ATOM      9  C   UNL     1      31.867 -23.415 -15.115  0.00  0.00    +0.251 C 
ATOM     10  C   UNL     1      33.439 -23.184 -16.935  0.00  0.00    +0.282 C 
ATOM     11  C   UNL     1      30.115 -22.990 -16.196  0.00  0.00    +0.153 C 
ATOM     12  H   UNL     1      36.061 -24.044 -14.308  0.00  0.00    +0.160 HD
ATOM     13  H   UNL     1      32.827 -22.701 -18.828  0.00  0.00    +0.146 HD
ATOM     14  H   UNL     1      34.510 -22.920 -18.658  0.00  0.00    +0.146 HD
ENDROOT
BRANCH  11  16
ATOM     15  O   UNL     1      28.119 -22.928 -17.709  0.00  0.00    -0.439 OA
ATOM     16  C   UNL     1      28.686 -22.772 -16.485  0.00  0.00    +0.221 C 
ATOM     17  C   UNL     1      27.743 -22.383 -15.562  0.00  0.00    +0.052 C 
ATOM     18  C   UNL     1      26.517 -22.295 -16.265  0.00  0.00    +0.045 C 
ATOM     19  C   UNL     1      26.800 -22.636 -17.567  0.00  0.00    +0.181 C 
ENDBRANCH  11  16
BRANCH   1  20
ATOM     20  C   UNL     1      34.971 -24.315 -12.544  0.00  0.00    +0.103 C 
BRANCH  20  21
ATOM     21  C   UNL     1      36.046 -25.276 -12.040  0.00  0.00    +0.048 C 
BRANCH  21  22
ATOM     22  C   UNL     1      37.142 -25.521 -13.048  0.00  0.00    -0.020 C 
ATOM     23  C   UNL     1      38.333 -24.820 -12.942  0.00  0.00    -0.001 C 
ATOM     24  C   UNL     1      36.938 -26.443 -14.063  0.00  0.00    -0.001 C 
ATOM     25  C   UNL     1      39.345 -25.046 -13.874  0.00  0.00    +0.036 C 
ATOM     26  C   UNL     1      37.950 -26.669 -14.995  0.00  0.00    +0.036 C 
ATOM     27  C   UNL     1      39.154 -25.971 -14.901  0.00  0.00    +0.134 C 
BRANCH  27  28
ATOM     28  O   UNL     1      40.143 -26.191 -15.810  0.00  0.00    -0.506 OA
ATOM     29  H   UNL     1      40.045 -25.890 -16.691  0.00  0.00    +0.292 HD
ENDBRANCH  27  28
ENDBRANCH  21  22
ENDBRANCH  20  21
ENDBRANCH   1  20
TORSDOF 5
ENDMDL
MODEL 2
REMARK VINA RESULT:     -11.4      4.051      8.072
REMARK  Name = 176407
REMARK  5 active torsions:
REMARK  status: ('A' for Active; 'I' for Inactive)
REMARK    1  A    between atoms: N_1  and  C_20
REMARK    2  A    between atoms: C_11  and  C_16
REMARK    3  A    between atoms: C_20  and  C_21
REMARK    4  A    between atoms: C_21  and  C_22
REMARK    5  A    between atoms: C_27  and  O_28
REMARK                            x       y       z     vdW  Elec       q    Type
REMARK                         _______ _______ _______ _____ _____    ______ ____
ROOT
ATOM      1  N   UNL     1      32.076 -22.158 -18.764  0.00  0.00    -0.258 N 
ATOM      2  N   UNL     1      33.305 -23.755 -15.315  0.00  0.00    -0.059 N 
ATOM      3  N   UNL     1      33.808 -23.028 -17.489  0.00  0.00    -0.245 NA
ATOM      4  N   UNL     1      31.604 -22.898 -16.572  0.00  0.00    -0.294 NA
ATOM      5  N   UNL     1      33.860 -24.297 -14.221  0.00  0.00    -0.090 NA
ATOM      6  N   UNL     1      35.391 -23.989 -15.894  0.00  0.00    -0.267 NA
ATOM      7  N   UNL     1      31.149 -23.648 -14.368  0.00  0.00    -0.318 N 
ATOM      8  C   UNL     1      32.536 -22.709 -17.592  0.00  0.00    +0.213 C 
ATOM      9  C   UNL     1      34.216 -23.569 -16.315  0.00  0.00    +0.251 C 
ATOM     10  C   UNL     1      31.971 -23.416 -15.437  0.00  0.00    +0.282 C 
ATOM     11  C   UNL     1      35.127 -24.421 -14.623  0.00  0.00    +0.153 C 
ATOM     12  H   UNL     1      31.124 -21.921 -18.838  0.00  0.00    +0.160 HD
ATOM     13  H   UNL     1      31.513 -24.045 -13.543  0.00  0.00    +0.146 HD
ATOM     14  H   UNL     1      30.193 -23.417 -14.423  0.00  0.00    +0.146 HD
ENDROOT
BRANCH  11  16
ATOM     15  O   UNL     1      35.929 -25.680 -12.611  0.00  0.00    -0.439 OA
ATOM     16  C   UNL     1      36.173 -24.984 -13.752  0.00  0.00    +0.221 C 
ATOM     17  C   UNL     1      37.528 -24.882 -13.974  0.00  0.00    +0.052 C 
ATOM     18  C   UNL     1      38.154 -25.558 -12.900  0.00  0.00    +0.045 C 
ATOM     19  C   UNL     1      37.139 -26.025 -12.099  0.00  0.00    +0.181 C 
ENDBRANCH  11  16
BRANCH   1  20
ATOM     20  C   UNL     1      32.937 -21.916 -19.878  0.00  0.00    +0.103 C 
BRANCH  20  21
ATOM     21  C   UNL     1      32.891 -20.448 -20.296  0.00  0.00    +0.048 C 
BRANCH  21  22
ATOM     22  C   UNL     1      34.220 -19.929 -20.788  0.00  0.00    -0.020 C 
ATOM     23  C   UNL     1      35.387 -20.373 -20.187  0.00  0.00    -0.001 C 
ATOM     24  C   UNL     1      34.249 -19.019 -21.833  0.00  0.00    -0.001 C 
ATOM     25  C   UNL     1      36.615 -19.893 -20.641  0.00  0.00    +0.036 C 
ATOM     26  C   UNL     1      35.477 -18.539 -22.287  0.00  0.00    +0.036 C 
ATOM     27  C   UNL     1      36.660 -18.976 -21.692  0.00  0.00    +0.134 C 
BRANCH  27  28
ATOM     28  O   UNL     1      37.859 -18.509 -22.135  0.00  0.00    -0.506 OA
ATOM     29  H   UNL     1      37.896 -17.730 -22.654  0.00  0.00    +0.292 HD
ENDBRANCH  27  28
ENDBRANCH  21  22
ENDBRANCH  20  21
ENDBRANCH   1  20
TORSDOF 5
ENDMDL
MODEL 3
REMARK VINA RESULT:     -11.3      5.637      9.715
REMARK  Name = 176407
REMARK  5 active torsions:
REMARK  status: ('A' for Active; 'I' for Inactive)
REMARK    1  A    between atoms: N_1  and  C_20
REMARK    2  A    between atoms: C_11  and  C_16
REMARK    3  A    between atoms: C_20  and  C_21
REMARK    4  A    between atoms: C_21  and  C_22
REMARK    5  A    between atoms: C_27  and  O_28
REMARK                            x       y       z     vdW  Elec       q    Type
REMARK                         _______ _______ _______ _____ _____    ______ ____
ROOT
ATOM      1  N   UNL     1      34.723 -20.511 -20.385  0.00  0.00    -0.258 N 
ATOM      2  N   UNL     1      34.910 -22.812 -17.125  0.00  0.00    -0.059 N 
ATOM      3  N   UNL     1      35.960 -21.311 -18.592  0.00  0.00    -0.245 NA
ATOM      4  N   UNL     1      33.696 -22.023 -18.889  0.00  0.00    -0.294 NA
ATOM      5  N   UNL     1      35.120 -23.535 -16.015  0.00  0.00    -0.090 NA
ATOM      6  N   UNL     1      36.973 -22.335 -16.618  0.00  0.00    -0.267 NA
ATOM      7  N   UNL     1      32.683 -23.543 -17.376  0.00  0.00    -0.318 N 
ATOM      8  C   UNL     1      34.825 -21.291 -19.257  0.00  0.00    +0.213 C 
ATOM      9  C   UNL     1      36.014 -22.094 -17.487  0.00  0.00    +0.251 C 
ATOM     10  C   UNL     1      33.724 -22.782 -17.833  0.00  0.00    +0.282 C 
ATOM     11  C   UNL     1      36.387 -23.211 -15.746  0.00  0.00    +0.153 C 
ATOM     12  H   UNL     1      33.873 -20.499 -20.880  0.00  0.00    +0.160 HD
ATOM     13  H   UNL     1      32.792 -24.090 -16.564  0.00  0.00    +0.146 HD
ATOM     14  H   UNL     1      31.824 -23.543 -17.858  0.00  0.00    +0.146 HD
ENDROOT
BRANCH  11  16
ATOM     15  O   UNL     1      37.140 -23.181 -13.357  0.00  0.00    -0.439 OA
ATOM     16  C   UNL     1      37.107 -23.762 -14.584  0.00  0.00    +0.221 C 
ATOM     17  C   UNL     1      37.837 -24.929 -14.586  0.00  0.00    +0.052 C 
ATOM     18  C   UNL     1      38.352 -25.072 -13.275  0.00  0.00    +0.045 C 
ATOM     19  C   UNL     1      37.899 -23.984 -12.566  0.00  0.00    +0.181 C 
ENDBRANCH  11  16
BRANCH   1  20
ATOM     20  C   UNL     1      35.812 -19.718 -20.859  0.00  0.00    +0.103 C 
BRANCH  20  21
ATOM     21  C   UNL     1      35.366 -18.279 -21.120  0.00  0.00    +0.048 C 
BRANCH  21  22
ATOM     22  C   UNL     1      34.973 -18.032 -22.555  0.00  0.00    -0.020 C 
ATOM     23  C   UNL     1      34.979 -16.736 -23.048  0.00  0.00    -0.001 C 
ATOM     24  C   UNL     1      34.613 -19.105 -23.355  0.00  0.00    -0.001 C 
ATOM     25  C   UNL     1      34.615 -16.508 -24.374  0.00  0.00    +0.036 C 
ATOM     26  C   UNL     1      34.249 -18.876 -24.682  0.00  0.00    +0.036 C 
ATOM     27  C   UNL     1      34.251 -17.577 -25.192  0.00  0.00    +0.134 C 
BRANCH  27  28
ATOM     28  O   UNL     1      33.896 -17.353 -26.487  0.00  0.00    -0.506 OA
ATOM     29  H   UNL     1      33.401 -17.995 -26.955  0.00  0.00    +0.292 HD
ENDBRANCH  27  28
ENDBRANCH  21  22
ENDBRANCH  20  21
ENDBRANCH   1  20
TORSDOF 5
ENDMDL
MODEL 4
REMARK VINA RESULT:     -11.1     10.385     12.272
REMARK  Name = 176407
REMARK  5 active torsions:
REMARK  status: ('A' for Active; 'I' for Inactive)
REMARK    1  A    between atoms: N_1  and  C_20
REMARK    2  A    between atoms: C_11  and  C_16
REMARK    3  A    between atoms: C_20  and  C_21
REMARK    4  A    between atoms: C_21  and  C_22
REMARK    5  A    between atoms: C_27  and  O_28
REMARK                            x       y       z     vdW  Elec       q    Type
REMARK                         _______ _______ _______ _____ _____    ______ ____
ROOT
ATOM      1  N   UNL     1      34.776 -17.620 -23.287  0.00  0.00    -0.258 N 
ATOM      2  N   UNL     1      33.362 -14.291 -24.984  0.00  0.00    -0.059 N 
ATOM      3  N   UNL     1      34.317 -15.352 -23.121  0.00  0.00    -0.245 NA
ATOM      4  N   UNL     1      33.816 -16.523 -25.145  0.00  0.00    -0.294 NA
ATOM      5  N   UNL     1      32.923 -13.102 -25.420  0.00  0.00    -0.090 NA
ATOM      6  N   UNL     1      33.713 -12.988 -23.275  0.00  0.00    -0.267 NA
ATOM      7  N   UNL     1      32.851 -15.402 -26.999  0.00  0.00    -0.318 N 
ATOM      8  C   UNL     1      34.298 -16.454 -23.838  0.00  0.00    +0.213 C 
ATOM      9  C   UNL     1      33.836 -14.228 -23.704  0.00  0.00    +0.251 C 
ATOM     10  C   UNL     1      33.348 -15.457 -25.726  0.00  0.00    +0.282 C 
ATOM     11  C   UNL     1      33.157 -12.345 -24.345  0.00  0.00    +0.153 C 
ATOM     12  H   UNL     1      34.761 -18.443 -23.827  0.00  0.00    +0.160 HD
ATOM     13  H   UNL     1      32.517 -14.549 -27.361  0.00  0.00    +0.146 HD
ATOM     14  H   UNL     1      32.827 -16.215 -27.554  0.00  0.00    +0.146 HD
ENDROOT
BRANCH  11  16
ATOM     15  O   UNL     1      32.877 -10.090 -25.402  0.00  0.00    -0.439 OA
ATOM     16  C   UNL     1      32.837 -10.906 -24.316  0.00  0.00    +0.221 C 
ATOM     17  C   UNL     1      32.459 -10.201 -23.196  0.00  0.00    +0.052 C 
ATOM     18  C   UNL     1      32.255  -8.867 -23.622  0.00  0.00    +0.045 C 
ATOM     19  C   UNL     1      32.522  -8.851 -24.970  0.00  0.00    +0.181 C 
ENDBRANCH  11  16
BRANCH   1  20
ATOM     20  C   UNL     1      35.296 -17.674 -21.958  0.00  0.00    +0.103 C 
BRANCH  20  21
ATOM     21  C   UNL     1      35.882 -19.052 -21.656  0.00  0.00    +0.048 C 
BRANCH  21  22
ATOM     22  C   UNL     1      34.948 -19.932 -20.862  0.00  0.00    -0.020 C 
ATOM     23  C   UNL     1      35.477 -20.893 -20.014  0.00  0.00    -0.001 C 
ATOM     24  C   UNL     1      33.579 -19.764 -20.995  0.00  0.00    -0.001 C 
ATOM     25  C   UNL     1      34.614 -21.706 -19.281  0.00  0.00    +0.036 C 
ATOM     26  C   UNL     1      32.716 -20.578 -20.262  0.00  0.00    +0.036 C 
ATOM     27  C   UNL     1      33.233 -21.549 -19.405  0.00  0.00    +0.134 C 
BRANCH  27  28
ATOM     28  O   UNL     1      32.391 -22.343 -18.688  0.00  0.00    -0.506 OA
ATOM     29  H   UNL     1      31.553 -22.020 -18.423  0.00  0.00    +0.292 HD
ENDBRANCH  27  28
ENDBRANCH  21  22
ENDBRANCH  20  21
ENDBRANCH   1  20
TORSDOF 5
ENDMDL
MODEL 5
REMARK VINA RESULT:     -11.1      4.649      6.298
REMARK  Name = 176407
REMARK  5 active torsions:
REMARK  status: ('A' for Active; 'I' for Inactive)
REMARK    1  A    between atoms: N_1  and  C_20
REMARK    2  A    between atoms: C_11  and  C_16
REMARK    3  A    between atoms: C_20  and  C_21
REMARK    4  A    between atoms: C_21  and  C_22
REMARK    5  A    between atoms: C_27  and  O_28
REMARK                            x       y       z     vdW  Elec       q    Type
REMARK                         _______ _______ _______ _____ _____    ______ ____
ROOT
ATOM      1  N   UNL     1      36.128 -23.041 -16.351  0.00  0.00    -0.258 N 
ATOM      2  N   UNL     1      34.359 -21.229 -19.440  0.00  0.00    -0.059 N 
ATOM      3  N   UNL     1      36.273 -21.547 -18.120  0.00  0.00    -0.245 NA
ATOM      4  N   UNL     1      34.220 -22.698 -17.699  0.00  0.00    -0.294 NA
ATOM      5  N   UNL     1      33.901 -20.548 -20.501  0.00  0.00    -0.090 NA
ATOM      6  N   UNL     1      36.090 -20.054 -20.047  0.00  0.00    -0.267 NA
ATOM      7  N   UNL     1      32.314 -22.339 -19.064  0.00  0.00    -0.318 N 
ATOM      8  C   UNL     1      35.553 -22.398 -17.422  0.00  0.00    +0.213 C 
ATOM      9  C   UNL     1      35.665 -20.937 -19.166  0.00  0.00    +0.251 C 
ATOM     10  C   UNL     1      33.615 -22.125 -18.697  0.00  0.00    +0.282 C 
ATOM     11  C   UNL     1      34.989 -19.849 -20.833  0.00  0.00    +0.153 C 
ATOM     12  H   UNL     1      35.586 -23.677 -15.830  0.00  0.00    +0.160 HD
ATOM     13  H   UNL     1      31.935 -21.861 -19.838  0.00  0.00    +0.146 HD
ATOM     14  H   UNL     1      31.756 -22.972 -18.556  0.00  0.00    +0.146 HD
ENDROOT
BRANCH  11  16
ATOM     15  O   UNL     1      35.232 -17.582 -21.871  0.00  0.00    -0.439 OA
ATOM     16  C   UNL     1      35.003 -18.917 -21.974  0.00  0.00    +0.221 C 
ATOM     17  C   UNL     1      34.787 -19.270 -23.287  0.00  0.00    +0.052 C 
ATOM     18  C   UNL     1      34.889 -18.074 -24.037  0.00  0.00    +0.045 C 
ATOM     19  C   UNL     1      35.161 -17.076 -23.130  0.00  0.00    +0.181 C 
ENDBRANCH  11  16
BRANCH   1  20
ATOM     20  C   UNL     1      37.486 -22.816 -15.971  0.00  0.00    +0.103 C 
BRANCH  20  21
ATOM     21  C   UNL     1      38.043 -24.011 -15.198  0.00  0.00    +0.048 C 
BRANCH  21  22
ATOM     22  C   UNL     1      37.277 -24.307 -13.932  0.00  0.00    -0.020 C 
ATOM     23  C   UNL     1      36.589 -23.284 -13.300  0.00  0.00    -0.001 C 
ATOM     24  C   UNL     1      37.276 -25.597 -13.425  0.00  0.00    -0.001 C 
ATOM     25  C   UNL     1      35.882 -23.557 -12.129  0.00  0.00    +0.036 C 
ATOM     26  C   UNL     1      36.569 -25.870 -12.254  0.00  0.00    +0.036 C 
ATOM     27  C   UNL     1      35.872 -24.850 -11.606  0.00  0.00    +0.134 C 
BRANCH  27  28
ATOM     28  O   UNL     1      35.181 -25.116 -10.464  0.00  0.00    -0.506 OA
ATOM     29  H   UNL     1      34.918 -25.994 -10.269  0.00  0.00    +0.292 HD
ENDBRANCH  27  28
ENDBRANCH  21  22
ENDBRANCH  20  21
ENDBRANCH   1  20
TORSDOF 5
ENDMDL
MODEL 6
REMARK VINA RESULT:     -11.0      5.486      8.252
REMARK  Name = 176407
REMARK  5 active torsions:
REMARK  status: ('A' for Active; 'I' for Inactive)
REMARK    1  A    between atoms: N_1  and  C_20
REMARK    2  A    between atoms: C_11  and  C_16
REMARK    3  A    between atoms: C_20  and  C_21
REMARK    4  A    between atoms: C_21  and  C_22
REMARK    5  A    between atoms: C_27  and  O_28
REMARK                            x       y       z     vdW  Elec       q    Type
REMARK                         _______ _______ _______ _____ _____    ______ ____
ROOT
ATOM      1  N   UNL     1      35.740 -21.016 -19.933  0.00  0.00    -0.258 N 
ATOM      2  N   UNL     1      33.870 -22.901 -16.949  0.00  0.00    -0.059 N 
ATOM      3  N   UNL     1      33.758 -21.806 -19.021  0.00  0.00    -0.245 NA
ATOM      4  N   UNL     1      35.818 -22.123 -17.848  0.00  0.00    -0.294 NA
ATOM      5  N   UNL     1      33.110 -23.511 -16.027  0.00  0.00    -0.090 NA
ATOM      6  N   UNL     1      31.868 -22.752 -17.794  0.00  0.00    -0.267 NA
ATOM      7  N   UNL     1      35.874 -23.236 -15.754  0.00  0.00    -0.318 N 
ATOM      8  C   UNL     1      35.062 -21.660 -18.925  0.00  0.00    +0.213 C 
ATOM      9  C   UNL     1      33.132 -22.447 -18.005  0.00  0.00    +0.251 C 
ATOM     10  C   UNL     1      35.239 -22.740 -16.860  0.00  0.00    +0.282 C 
ATOM     11  C   UNL     1      31.903 -23.394 -16.587  0.00  0.00    +0.153 C 
ATOM     12  H   UNL     1      36.716 -20.909 -19.857  0.00  0.00    +0.160 HD
ATOM     13  H   UNL     1      35.356 -23.692 -15.051  0.00  0.00    +0.146 HD
ATOM     14  H   UNL     1      36.849 -23.138 -15.661  0.00  0.00    +0.146 HD
ENDROOT
BRANCH  11  16
ATOM     15  O   UNL     1      30.681 -24.914 -15.014  0.00  0.00    -0.439 OA
ATOM     16  C   UNL     1      30.687 -23.924 -15.944  0.00  0.00    +0.221 C 
ATOM     17  C   UNL     1      29.405 -23.494 -16.199  0.00  0.00    +0.052 C 
ATOM     18  C   UNL     1      28.558 -24.269 -15.372  0.00  0.00    +0.045 C 
ATOM     19  C   UNL     1      29.382 -25.118 -14.671  0.00  0.00    +0.181 C 
ENDBRANCH  11  16
BRANCH   1  20
ATOM     20  C   UNL     1      35.075 -20.500 -21.086  0.00  0.00    +0.103 C 
BRANCH  20  21
ATOM     21  C   UNL     1      35.334 -19.002 -21.242  0.00  0.00    +0.048 C 
BRANCH  21  22
ATOM     22  C   UNL     1      34.981 -18.479 -22.613  0.00  0.00    -0.020 C 
ATOM     23  C   UNL     1      34.599 -19.371 -23.602  0.00  0.00    -0.001 C 
ATOM     24  C   UNL     1      35.044 -17.117 -22.856  0.00  0.00    -0.001 C 
ATOM     25  C   UNL     1      34.273 -18.888 -24.869  0.00  0.00    +0.036 C 
ATOM     26  C   UNL     1      34.718 -16.633 -24.123  0.00  0.00    +0.036 C 
ATOM     27  C   UNL     1      34.332 -17.519 -25.130  0.00  0.00    +0.134 C 
BRANCH  27  28
ATOM     28  O   UNL     1      34.014 -17.048 -26.367  0.00  0.00    -0.506 OA
ATOM     29  H   UNL     1      33.117 -17.002 -26.634  0.00  0.00    +0.292 HD
ENDBRANCH  27  28
ENDBRANCH  21  22
ENDBRANCH  20  21
ENDBRANCH   1  20
TORSDOF 5
ENDMDL
MODEL 7
REMARK VINA RESULT:     -10.6      6.340      9.645
REMARK  Name = 176407
REMARK  5 active torsions:
REMARK  status: ('A' for Active; 'I' for Inactive)
REMARK    1  A    between atoms: N_1  and  C_20
REMARK    2  A    between atoms: C_11  and  C_16
REMARK    3  A    between atoms: C_20  and  C_21
REMARK    4  A    between atoms: C_21  and  C_22
REMARK    5  A    between atoms: C_27  and  O_28
REMARK                            x       y       z     vdW  Elec       q    Type
REMARK                         _______ _______ _______ _____ _____    ______ ____
ROOT
ATOM      1  N   UNL     1      35.133 -19.927 -21.461  0.00  0.00    -0.258 N 
ATOM      2  N   UNL     1      34.368 -22.090 -18.191  0.00  0.00    -0.059 N 
ATOM      3  N   UNL     1      33.573 -20.953 -20.084  0.00  0.00    -0.245 NA
ATOM      4  N   UNL     1      35.900 -21.080 -19.548  0.00  0.00    -0.294 NA
ATOM      5  N   UNL     1      33.960 -22.805 -17.133  0.00  0.00    -0.090 NA
ATOM      6  N   UNL     1      32.205 -22.133 -18.438  0.00  0.00    -0.267 NA
ATOM      7  N   UNL     1      36.650 -22.242 -17.621  0.00  0.00    -0.318 N 
ATOM      8  C   UNL     1      34.831 -20.670 -20.344  0.00  0.00    +0.213 C 
ATOM      9  C   UNL     1      33.323 -21.687 -18.973  0.00  0.00    +0.251 C 
ATOM     10  C   UNL     1      35.685 -21.785 -18.476  0.00  0.00    +0.282 C 
ATOM     11  C   UNL     1      32.639 -22.802 -17.328  0.00  0.00    +0.153 C 
ATOM     12  H   UNL     1      36.076 -19.717 -21.653  0.00  0.00    +0.160 HD
ATOM     13  H   UNL     1      36.397 -22.772 -16.830  0.00  0.00    +0.146 HD
ATOM     14  H   UNL     1      37.598 -22.043 -17.797  0.00  0.00    +0.146 HD
ENDROOT
BRANCH  11  16
ATOM     15  O   UNL     1      32.097 -24.251 -15.357  0.00  0.00    -0.439 OA
ATOM     16  C   UNL     1      31.710 -23.479 -16.405  0.00  0.00    +0.221 C 
ATOM     17  C   UNL     1      30.338 -23.423 -16.482  0.00  0.00    +0.052 C 
ATOM     18  C   UNL     1      29.851 -24.211 -15.412  0.00  0.00    +0.045 C 
ATOM     19  C   UNL     1      30.960 -24.693 -14.758  0.00  0.00    +0.181 C 
ENDBRANCH  11  16
BRANCH   1  20
ATOM     20  C   UNL     1      34.124 -19.452 -22.352  0.00  0.00    +0.103 C 
BRANCH  20  21
ATOM     21  C   UNL     1      34.685 -19.258 -23.760  0.00  0.00    +0.048 C 
BRANCH  21  22
ATOM     22  C   UNL     1      33.809 -18.393 -24.633  0.00  0.00    -0.020 C 
ATOM     23  C   UNL     1      32.879 -18.993 -25.468  0.00  0.00    -0.001 C 
ATOM     24  C   UNL     1      33.950 -17.016 -24.584  0.00  0.00    -0.001 C 
ATOM     25  C   UNL     1      32.070 -18.193 -26.275  0.00  0.00    +0.036 C 
ATOM     26  C   UNL     1      33.141 -16.216 -25.391  0.00  0.00    +0.036 C 
ATOM     27  C   UNL     1      32.201 -16.805 -26.237  0.00  0.00    +0.134 C 
BRANCH  27  28
ATOM     28  O   UNL     1      31.410 -16.026 -27.024  0.00  0.00    -0.506 OA
ATOM     29  H   UNL     1      31.732 -15.209 -27.350  0.00  0.00    +0.292 HD
ENDBRANCH  27  28
ENDBRANCH  21  22
ENDBRANCH  20  21
ENDBRANCH   1  20
TORSDOF 5
ENDMDL
MODEL 8
REMARK VINA RESULT:     -10.5      7.477      9.029
REMARK  Name = 176407
REMARK  5 active torsions:
REMARK  status: ('A' for Active; 'I' for Inactive)
REMARK    1  A    between atoms: N_1  and  C_20
REMARK    2  A    between atoms: C_11  and  C_16
REMARK    3  A    between atoms: C_20  and  C_21
REMARK    4  A    between atoms: C_21  and  C_22
REMARK    5  A    between atoms: C_27  and  O_28
REMARK                            x       y       z     vdW  Elec       q    Type
REMARK                         _______ _______ _______ _____ _____    ______ ____
ROOT
ATOM      1  N   UNL     1      35.765 -19.782 -20.083  0.00  0.00    -0.258 N 
ATOM      2  N   UNL     1      34.319 -17.133 -22.701  0.00  0.00    -0.059 N 
ATOM      3  N   UNL     1      34.737 -19.369 -22.122  0.00  0.00    -0.245 NA
ATOM      4  N   UNL     1      35.331 -17.543 -20.697  0.00  0.00    -0.294 NA
ATOM      5  N   UNL     1      33.797 -16.367 -23.669  0.00  0.00    -0.090 NA
ATOM      6  N   UNL     1      33.675 -18.594 -24.182  0.00  0.00    -0.267 NA
ATOM      7  N   UNL     1      34.887 -15.301 -21.331  0.00  0.00    -0.318 N 
ATOM      8  C   UNL     1      35.257 -18.900 -21.008  0.00  0.00    +0.213 C 
ATOM      9  C   UNL     1      34.248 -18.463 -23.003  0.00  0.00    +0.251 C 
ATOM     10  C   UNL     1      34.870 -16.655 -21.528  0.00  0.00    +0.282 C 
ATOM     11  C   UNL     1      33.420 -17.301 -24.546  0.00  0.00    +0.153 C 
ATOM     12  H   UNL     1      36.154 -19.427 -19.251  0.00  0.00    +0.160 HD
ATOM     13  H   UNL     1      34.513 -14.699 -22.016  0.00  0.00    +0.146 HD
ATOM     14  H   UNL     1      35.271 -14.928 -20.505  0.00  0.00    +0.146 HD
ENDROOT
BRANCH  11  16
ATOM     15  O   UNL     1      33.214 -16.001 -26.678  0.00  0.00    -0.439 OA
ATOM     16  C   UNL     1      32.770 -16.959 -25.824  0.00  0.00    +0.221 C 
ATOM     17  C   UNL     1      31.633 -17.556 -26.318  0.00  0.00    +0.052 C 
ATOM     18  C   UNL     1      31.363 -16.925 -27.556  0.00  0.00    +0.045 C 
ATOM     19  C   UNL     1      32.353 -15.986 -27.729  0.00  0.00    +0.181 C 
ENDBRANCH  11  16
BRANCH   1  20
ATOM     20  C   UNL     1      35.745 -21.194 -20.291  0.00  0.00    +0.103 C 
BRANCH  20  21
ATOM     21  C   UNL     1      34.614 -21.847 -19.497  0.00  0.00    +0.048 C 
BRANCH  21  22
ATOM     22  C   UNL     1      35.014 -22.214 -18.089  0.00  0.00    -0.020 C 
ATOM     23  C   UNL     1      36.281 -21.883 -17.634  0.00  0.00    -0.001 C 
ATOM     24  C   UNL     1      34.106 -22.874 -17.276  0.00  0.00    -0.001 C 
ATOM     25  C   UNL     1      36.650 -22.223 -16.333  0.00  0.00    +0.036 C 
ATOM     26  C   UNL     1      34.475 -23.214 -15.975  0.00  0.00    +0.036 C 
ATOM     27  C   UNL     1      35.747 -22.888 -15.503  0.00  0.00    +0.134 C 
BRANCH  27  28
ATOM     28  O   UNL     1      36.108 -23.219 -14.233  0.00  0.00    -0.506 OA
ATOM     29  H   UNL     1      35.879 -24.057 -13.884  0.00  0.00    +0.292 HD
ENDBRANCH  27  28
ENDBRANCH  21  22
ENDBRANCH  20  21
ENDBRANCH   1  20
TORSDOF 5
ENDMDL
MODEL 9
REMARK VINA RESULT:     -10.5      6.746      8.785
REMARK  Name = 176407
REMARK  5 active torsions:
REMARK  status: ('A' for Active; 'I' for Inactive)
REMARK    1  A    between atoms: N_1  and  C_20
REMARK    2  A    between atoms: C_11  and  C_16
REMARK    3  A    between atoms: C_20  and  C_21
REMARK    4  A    between atoms: C_21  and  C_22
REMARK    5  A    between atoms: C_27  and  O_28
REMARK                            x       y       z     vdW  Elec       q    Type
REMARK                         _______ _______ _______ _____ _____    ______ ____
ROOT
ATOM      1  N   UNL     1      34.603 -21.165 -19.449  0.00  0.00    -0.258 N 
ATOM      2  N   UNL     1      35.193 -18.741 -22.569  0.00  0.00    -0.059 N 
ATOM      3  N   UNL     1      33.722 -20.024 -21.267  0.00  0.00    -0.245 NA
ATOM      4  N   UNL     1      36.057 -19.863 -20.780  0.00  0.00    -0.294 NA
ATOM      5  N   UNL     1      35.237 -17.940 -23.644  0.00  0.00    -0.090 NA
ATOM      6  N   UNL     1      33.120 -18.710 -23.238  0.00  0.00    -0.267 NA
ATOM      7  N   UNL     1      37.501 -18.552 -22.129  0.00  0.00    -0.318 N 
ATOM      8  C   UNL     1      34.767 -20.332 -20.531  0.00  0.00    +0.213 C 
ATOM      9  C   UNL     1      33.931 -19.202 -22.323  0.00  0.00    +0.251 C 
ATOM     10  C   UNL     1      36.283 -19.073 -21.788  0.00  0.00    +0.282 C 
ATOM     11  C   UNL     1      33.955 -17.954 -24.014  0.00  0.00    +0.153 C 
ATOM     12  H   UNL     1      35.389 -21.393 -18.901  0.00  0.00    +0.160 HD
ATOM     13  H   UNL     1      37.581 -17.958 -22.912  0.00  0.00    +0.146 HD
ATOM     14  H   UNL     1      38.297 -18.768 -21.593  0.00  0.00    +0.146 HD
ENDROOT
BRANCH  11  16
ATOM     15  O   UNL     1      33.954 -15.992 -25.573  0.00  0.00    -0.439 OA
ATOM     16  C   UNL     1      33.470 -17.201 -25.185  0.00  0.00    +0.221 C 
ATOM     17  C   UNL     1      32.468 -17.615 -26.033  0.00  0.00    +0.052 C 
ATOM     18  C   UNL     1      32.329 -16.595 -27.005  0.00  0.00    +0.045 C 
ATOM     19  C   UNL     1      33.255 -15.631 -26.681  0.00  0.00    +0.181 C 
ENDBRANCH  11  16
BRANCH   1  20
ATOM     20  C   UNL     1      33.331 -21.706 -19.095  0.00  0.00    +0.103 C 
BRANCH  20  21
ATOM     21  C   UNL     1      33.475 -23.123 -18.540  0.00  0.00    +0.048 C 
BRANCH  21  22
ATOM     22  C   UNL     1      33.097 -23.230 -17.083  0.00  0.00    -0.020 C 
ATOM     23  C   UNL     1      34.090 -23.422 -16.135  0.00  0.00    -0.001 C 
ATOM     24  C   UNL     1      31.763 -23.133 -16.719  0.00  0.00    -0.001 C 
ATOM     25  C   UNL     1      33.740 -23.521 -14.789  0.00  0.00    +0.036 C 
ATOM     26  C   UNL     1      31.413 -23.233 -15.373  0.00  0.00    +0.036 C 
ATOM     27  C   UNL     1      32.401 -23.426 -14.407  0.00  0.00    +0.134 C 
BRANCH  27  28
ATOM     28  O   UNL     1      32.061 -23.523 -13.093  0.00  0.00    -0.506 OA
ATOM     29  H   UNL     1      31.197 -23.793 -12.851  0.00  0.00    +0.292 HD
ENDBRANCH  27  28
ENDBRANCH  21  22
ENDBRANCH  20  21
ENDBRANCH   1  20
TORSDOF 5
ENDMDL
