MODEL 1
REMARK VINA RESULT:     -12.4      0.000      0.000
REMARK  Name = 66599893
REMARK  9 active torsions:
REMARK  status: ('A' for Active; 'I' for Inactive)
REMARK    1  A    between atoms: C_1  and  C_2
REMARK    2  A    between atoms: C_1  and  C_22
REMARK    3  A    between atoms: C_1  and  C_34
REMARK    4  A    between atoms: C_5  and  C_8
REMARK    5  A    between atoms: C_8  and  O_9
REMARK    6  A    between atoms: O_9  and  C_11
REMARK    7  A    between atoms: C_11  and  C_12
REMARK    8  A    between atoms: N_21  and  C_25
REMARK    9  A    between atoms: C_34  and  N_35
REMARK                            x       y       z     vdW  Elec       q    Type
REMARK                         _______ _______ _______ _____ _____    ______ ____
ROOT
ATOM      1  C   UNL     1      35.609 -19.082 -21.285  0.00  0.00    +0.077 C 
ENDROOT
BRANCH   1   2
ATOM      2  C   UNL     1      34.902 -20.126 -20.435  0.00  0.00    -0.016 C 
ATOM      3  C   UNL     1      33.508 -20.162 -20.390  0.00  0.00    -0.004 C 
ATOM      4  C   UNL     1      35.648 -21.048 -19.699  0.00  0.00    -0.004 C 
ATOM      5  C   UNL     1      33.605 -22.040 -18.875  0.00  0.00    +0.021 C 
ATOM      6  C   UNL     1      32.860 -21.119 -19.609  0.00  0.00    -0.001 C 
ATOM      7  C   UNL     1      34.999 -22.004 -18.919  0.00  0.00    -0.001 C 
BRANCH   5   8
ATOM      8  C   UNL     1      32.912 -23.064 -18.040  0.00  0.00    +0.235 C 
BRANCH   8   9
ATOM      9  O   UNL     1      33.880 -23.848 -17.354  0.00  0.00    -0.440 OA
BRANCH   9  11
ATOM     10  O   UNL     1      33.143 -23.080 -15.313  0.00  0.00    -0.245 OA
ATOM     11  C   UNL     1      33.973 -23.640 -16.012  0.00  0.00    +0.341 C 
BRANCH  11  12
ATOM     12  C   UNL     1      35.247 -24.191 -15.483  0.00  0.00    +0.072 C 
ATOM     13  C   UNL     1      36.420 -23.438 -15.499  0.00  0.00    -0.016 C 
ATOM     14  C   UNL     1      37.614 -25.273 -14.477  0.00  0.00    -0.022 C 
ATOM     15  C   UNL     1      37.604 -23.978 -14.997  0.00  0.00    -0.008 C 
ATOM     16  C   UNL     1      35.256 -25.486 -14.964  0.00  0.00    +0.006 C 
ATOM     17  C   UNL     1      36.440 -26.027 -14.461  0.00  0.00    -0.004 C 
ATOM     18  C   UNL     1      36.438 -22.048 -16.048  0.00  0.00    +0.031 C 
ATOM     19  C   UNL     1      38.878 -25.853 -13.940  0.00  0.00    +0.031 C 
ENDBRANCH  11  12
ENDBRANCH   9  11
ENDBRANCH   8   9
ENDBRANCH   5   8
ENDBRANCH   1   2
BRANCH   1  22
ATOM     20  O   UNL     1      35.005 -20.003 -23.437  0.00  0.00    -0.275 OA
ATOM     21  N   UNL     1      34.442 -17.767 -22.976  0.00  0.00    -0.284 N 
ATOM     22  C   UNL     1      34.987 -19.029 -22.688  0.00  0.00    +0.228 C 
ATOM     23  H   UNL     1      34.523 -17.092 -22.264  0.00  0.00    +0.155 HD
BRANCH  21  25
ATOM     24  N   UNL     1      31.836 -14.739 -28.008  0.00  0.00    -0.242 NA
ATOM     25  C   UNL     1      33.799 -17.349 -24.143  0.00  0.00    +0.050 C 
ATOM     26  C   UNL     1      33.783 -15.995 -24.482  0.00  0.00    +0.015 C 
ATOM     27  C   UNL     1      33.140 -15.559 -25.651  0.00  0.00    +0.004 C 
ATOM     28  C   UNL     1      33.175 -18.283 -24.965  0.00  0.00    +0.015 C 
ATOM     29  C   UNL     1      32.509 -16.509 -26.482  0.00  0.00    +0.019 C 
ATOM     30  C   UNL     1      32.532 -17.869 -26.131  0.00  0.00    +0.003 C 
ATOM     31  C   UNL     1      33.106 -14.208 -26.019  0.00  0.00    +0.021 C 
ATOM     32  C   UNL     1      31.880 -16.038 -27.637  0.00  0.00    +0.099 C 
ATOM     33  C   UNL     1      32.451 -13.858 -27.190  0.00  0.00    +0.099 C 
ENDBRANCH  21  25
ENDBRANCH   1  22
BRANCH   1  34
ATOM     34  C   UNL     1      37.130 -19.319 -21.383  0.00  0.00    -0.072 C 
BRANCH  34  35
ATOM     35  N   UNL     1      37.728 -18.571 -22.486  0.00  0.00    +0.381 N 
ATOM     36  H   UNL     1      37.003 -18.317 -23.157  0.00  0.00    -0.089 HD
ATOM     37  H   UNL     1      38.430 -19.149 -22.947  0.00  0.00    -0.089 HD
ATOM     38  H   UNL     1      38.169 -17.725 -22.124  0.00  0.00    -0.089 HD
ENDBRANCH  34  35
ENDBRANCH   1  34
TORSDOF 9
ENDMDL
MODEL 2
REMARK VINA RESULT:     -12.3      3.305      4.919
REMARK  Name = 66599893
REMARK  9 active torsions:
REMARK  status: ('A' for Active; 'I' for Inactive)
REMARK    1  A    between atoms: C_1  and  C_2
REMARK    2  A    between atoms: C_1  and  C_22
REMARK    3  A    between atoms: C_1  and  C_34
REMARK    4  A    between atoms: C_5  and  C_8
REMARK    5  A    between atoms: C_8  and  O_9
REMARK    6  A    between atoms: O_9  and  C_11
REMARK    7  A    between atoms: C_11  and  C_12
REMARK    8  A    between atoms: N_21  and  C_25
REMARK    9  A    between atoms: C_34  and  N_35
REMARK                            x       y       z     vdW  Elec       q    Type
REMARK                         _______ _______ _______ _____ _____    ______ ____
ROOT
ATOM      1  C   UNL     1      34.928 -17.219 -23.276  0.00  0.00    +0.077 C 
ENDROOT
BRANCH   1   2
ATOM      2  C   UNL     1      34.984 -18.341 -22.251  0.00  0.00    -0.016 C 
ATOM      3  C   UNL     1      36.195 -18.672 -21.644  0.00  0.00    -0.004 C 
ATOM      4  C   UNL     1      33.822 -19.039 -21.918  0.00  0.00    -0.004 C 
ATOM      5  C   UNL     1      35.085 -20.399 -20.372  0.00  0.00    +0.021 C 
ATOM      6  C   UNL     1      36.246 -19.702 -20.705  0.00  0.00    -0.001 C 
ATOM      7  C   UNL     1      33.874 -20.069 -20.978  0.00  0.00    -0.001 C 
BRANCH   5   8
ATOM      8  C   UNL     1      35.139 -21.500 -19.366  0.00  0.00    +0.235 C 
BRANCH   8   9
ATOM      9  O   UNL     1      33.859 -21.656 -18.767  0.00  0.00    -0.440 OA
BRANCH   9  11
ATOM     10  O   UNL     1      33.585 -23.870 -19.331  0.00  0.00    -0.245 OA
ATOM     11  C   UNL     1      33.451 -22.936 -18.555  0.00  0.00    +0.341 C 
BRANCH  11  12
ATOM     12  C   UNL     1      32.801 -23.068 -17.226  0.00  0.00    +0.072 C 
ATOM     13  C   UNL     1      33.555 -23.277 -16.072  0.00  0.00    -0.016 C 
ATOM     14  C   UNL     1      31.531 -23.311 -14.754  0.00  0.00    -0.022 C 
ATOM     15  C   UNL     1      32.921 -23.398 -14.836  0.00  0.00    -0.008 C 
ATOM     16  C   UNL     1      31.411 -22.981 -17.145  0.00  0.00    +0.006 C 
ATOM     17  C   UNL     1      30.775 -23.103 -15.909  0.00  0.00    -0.004 C 
ATOM     18  C   UNL     1      35.045 -23.373 -16.131  0.00  0.00    +0.031 C 
ATOM     19  C   UNL     1      30.850 -23.442 -13.434  0.00  0.00    +0.031 C 
ENDBRANCH  11  12
ENDBRANCH   9  11
ENDBRANCH   8   9
ENDBRANCH   5   8
ENDBRANCH   1   2
BRANCH   1  22
ATOM     20  O   UNL     1      34.718 -15.699 -21.408  0.00  0.00    -0.275 OA
ATOM     21  N   UNL     1      33.883 -15.026 -23.501  0.00  0.00    -0.284 N 
ATOM     22  C   UNL     1      34.513 -15.903 -22.602  0.00  0.00    +0.228 C 
ATOM     23  H   UNL     1      33.789 -15.352 -24.424  0.00  0.00    +0.155 HD
BRANCH  21  25
ATOM     24  N   UNL     1      31.072  -9.661 -21.356  0.00  0.00    -0.242 NA
ATOM     25  C   UNL     1      33.376 -13.750 -23.249  0.00  0.00    +0.050 C 
ATOM     26  C   UNL     1      32.607 -13.519 -22.108  0.00  0.00    +0.015 C 
ATOM     27  C   UNL     1      32.087 -12.242 -21.842  0.00  0.00    +0.004 C 
ATOM     28  C   UNL     1      33.637 -12.711 -24.138  0.00  0.00    +0.015 C 
ATOM     29  C   UNL     1      32.354 -11.191 -22.744  0.00  0.00    +0.019 C 
ATOM     30  C   UNL     1      33.131 -11.435 -23.890  0.00  0.00    +0.003 C 
ATOM     31  C   UNL     1      31.312 -11.978 -20.706  0.00  0.00    +0.021 C 
ATOM     32  C   UNL     1      31.823  -9.935 -22.447  0.00  0.00    +0.099 C 
ATOM     33  C   UNL     1      30.837 -10.690 -20.514  0.00  0.00    +0.099 C 
ENDBRANCH  21  25
ENDBRANCH   1  22
BRANCH   1  34
ATOM     34  C   UNL     1      33.990 -17.533 -24.459  0.00  0.00    -0.072 C 
BRANCH  34  35
ATOM     35  N   UNL     1      34.573 -17.135 -25.737  0.00  0.00    +0.381 N 
ATOM     36  H   UNL     1      34.347 -17.833 -26.446  0.00  0.00    -0.089 HD
ATOM     37  H   UNL     1      35.586 -17.064 -25.641  0.00  0.00    -0.089 HD
ATOM     38  H   UNL     1      34.194 -16.230 -26.017  0.00  0.00    -0.089 HD
ENDBRANCH  34  35
ENDBRANCH   1  34
TORSDOF 9
ENDMDL
MODEL 3
REMARK VINA RESULT:     -12.0      3.937      7.364
REMARK  Name = 66599893
REMARK  9 active torsions:
REMARK  status: ('A' for Active; 'I' for Inactive)
REMARK    1  A    between atoms: C_1  and  C_2
REMARK    2  A    between atoms: C_1  and  C_22
REMARK    3  A    between atoms: C_1  and  C_34
REMARK    4  A    between atoms: C_5  and  C_8
REMARK    5  A    between atoms: C_8  and  O_9
REMARK    6  A    between atoms: O_9  and  C_11
REMARK    7  A    between atoms: C_11  and  C_12
REMARK    8  A    between atoms: N_21  and  C_25
REMARK    9  A    between atoms: C_34  and  N_35
REMARK                            x       y       z     vdW  Elec       q    Type
REMARK                         _______ _______ _______ _____ _____    ______ ____
ROOT
ATOM      1  C   UNL     1      31.996 -15.581 -27.638  0.00  0.00    +0.077 C 
ENDROOT
BRANCH   1   2
ATOM      2  C   UNL     1      32.630 -16.613 -26.719  0.00  0.00    -0.016 C 
ATOM      3  C   UNL     1      31.936 -17.779 -26.393  0.00  0.00    -0.004 C 
ATOM      4  C   UNL     1      33.908 -16.395 -26.201  0.00  0.00    -0.004 C 
ATOM      5  C   UNL     1      33.794 -18.506 -25.031  0.00  0.00    +0.021 C 
ATOM      6  C   UNL     1      32.518 -18.724 -25.548  0.00  0.00    -0.001 C 
ATOM      7  C   UNL     1      34.489 -17.341 -25.356  0.00  0.00    -0.001 C 
BRANCH   5   8
ATOM      8  C   UNL     1      34.417 -19.517 -24.129  0.00  0.00    +0.235 C 
BRANCH   8   9
ATOM      9  O   UNL     1      35.319 -18.868 -23.241  0.00  0.00    -0.440 OA
BRANCH   9  11
ATOM     10  O   UNL     1      34.621 -17.196 -21.822  0.00  0.00    -0.245 OA
ATOM     11  C   UNL     1      34.777 -18.377 -22.094  0.00  0.00    +0.341 C 
BRANCH  11  12
ATOM     12  C   UNL     1      34.385 -19.482 -21.182  0.00  0.00    +0.072 C 
ATOM     13  C   UNL     1      35.342 -20.196 -20.463  0.00  0.00    -0.016 C 
ATOM     14  C   UNL     1      33.597 -21.550 -19.484  0.00  0.00    -0.022 C 
ATOM     15  C   UNL     1      34.949 -21.230 -19.614  0.00  0.00    -0.008 C 
ATOM     16  C   UNL     1      33.034 -19.801 -21.054  0.00  0.00    +0.006 C 
ATOM     17  C   UNL     1      32.639 -20.836 -20.205  0.00  0.00    -0.004 C 
ATOM     18  C   UNL     1      36.796 -19.874 -20.582  0.00  0.00    +0.031 C 
ATOM     19  C   UNL     1      33.174 -22.656 -18.578  0.00  0.00    +0.031 C 
ENDBRANCH  11  12
ENDBRANCH   9  11
ENDBRANCH   8   9
ENDBRANCH   5   8
ENDBRANCH   1   2
BRANCH   1  22
ATOM     20  O   UNL     1      33.246 -13.592 -28.208  0.00  0.00    -0.275 OA
ATOM     21  N   UNL     1      32.288 -13.740 -26.066  0.00  0.00    -0.284 N 
ATOM     22  C   UNL     1      32.586 -14.190 -27.362  0.00  0.00    +0.228 C 
ATOM     23  H   UNL     1      31.753 -14.352 -25.510  0.00  0.00    +0.155 HD
BRANCH  21  25
ATOM     24  N   UNL     1      33.726  -7.706 -24.389  0.00  0.00    -0.242 NA
ATOM     25  C   UNL     1      32.652 -12.533 -25.466  0.00  0.00    +0.050 C 
ATOM     26  C   UNL     1      32.619 -11.350 -26.206  0.00  0.00    +0.015 C 
ATOM     27  C   UNL     1      32.984 -10.128 -25.618  0.00  0.00    +0.004 C 
ATOM     28  C   UNL     1      33.049 -12.512 -24.132  0.00  0.00    +0.015 C 
ATOM     29  C   UNL     1      33.385 -10.111 -24.265  0.00  0.00    +0.019 C 
ATOM     30  C   UNL     1      33.415 -11.308 -23.530  0.00  0.00    +0.003 C 
ATOM     31  C   UNL     1      32.961  -8.924 -26.333  0.00  0.00    +0.021 C 
ATOM     32  C   UNL     1      33.741  -8.878 -23.714  0.00  0.00    +0.099 C 
ATOM     33  C   UNL     1      33.336  -7.760 -25.680  0.00  0.00    +0.099 C 
ENDBRANCH  21  25
ENDBRANCH   1  22
BRANCH   1  34
ATOM     34  C   UNL     1      30.459 -15.543 -27.526  0.00  0.00    -0.072 C 
BRANCH  34  35
ATOM     35  N   UNL     1      29.865 -14.627 -28.496  0.00  0.00    +0.381 N 
ATOM     36  H   UNL     1      29.312 -15.157 -29.170  0.00  0.00    -0.089 HD
ATOM     37  H   UNL     1      30.605 -14.124 -28.985  0.00  0.00    -0.089 HD
ATOM     38  H   UNL     1      29.265 -13.960 -28.011  0.00  0.00    -0.089 HD
ENDBRANCH  34  35
ENDBRANCH   1  34
TORSDOF 9
ENDMDL
MODEL 4
REMARK VINA RESULT:     -11.8      4.254      7.443
REMARK  Name = 66599893
REMARK  9 active torsions:
REMARK  status: ('A' for Active; 'I' for Inactive)
REMARK    1  A    between atoms: C_1  and  C_2
REMARK    2  A    between atoms: C_1  and  C_22
REMARK    3  A    between atoms: C_1  and  C_34
REMARK    4  A    between atoms: C_5  and  C_8
REMARK    5  A    between atoms: C_8  and  O_9
REMARK    6  A    between atoms: O_9  and  C_11
REMARK    7  A    between atoms: C_11  and  C_12
REMARK    8  A    between atoms: N_21  and  C_25
REMARK    9  A    between atoms: C_34  and  N_35
REMARK                            x       y       z     vdW  Elec       q    Type
REMARK                         _______ _______ _______ _____ _____    ______ ____
ROOT
ATOM      1  C   UNL     1      33.233 -13.784 -25.869  0.00  0.00    +0.077 C 
ENDROOT
BRANCH   1   2
ATOM      2  C   UNL     1      33.546 -15.150 -25.279  0.00  0.00    -0.016 C 
ATOM      3  C   UNL     1      34.335 -15.251 -24.133  0.00  0.00    -0.004 C 
ATOM      4  C   UNL     1      33.043 -16.303 -25.883  0.00  0.00    -0.004 C 
ATOM      5  C   UNL     1      34.120 -17.656 -24.196  0.00  0.00    +0.021 C 
ATOM      6  C   UNL     1      34.623 -16.504 -23.593  0.00  0.00    -0.001 C 
ATOM      7  C   UNL     1      33.331 -17.556 -25.342  0.00  0.00    -0.001 C 
BRANCH   5   8
ATOM      8  C   UNL     1      34.427 -18.997 -23.618  0.00  0.00    +0.235 C 
BRANCH   8   9
ATOM      9  O   UNL     1      33.664 -19.185 -22.432  0.00  0.00    -0.440 OA
BRANCH   9  11
ATOM     10  O   UNL     1      35.121 -18.180 -20.962  0.00  0.00    -0.245 OA
ATOM     11  C   UNL     1      34.346 -19.075 -21.260  0.00  0.00    +0.341 C 
BRANCH  11  12
ATOM     12  C   UNL     1      34.027 -20.211 -20.358  0.00  0.00    +0.072 C 
ATOM     13  C   UNL     1      35.036 -21.009 -19.819  0.00  0.00    -0.016 C 
ATOM     14  C   UNL     1      33.375 -22.335 -18.670  0.00  0.00    -0.022 C 
ATOM     15  C   UNL     1      34.711 -22.070 -18.975  0.00  0.00    -0.008 C 
ATOM     16  C   UNL     1      32.692 -20.475 -20.054  0.00  0.00    +0.006 C 
ATOM     17  C   UNL     1      32.365 -21.537 -19.210  0.00  0.00    -0.004 C 
ATOM     18  C   UNL     1      36.475 -20.748 -20.128  0.00  0.00    +0.031 C 
ATOM     19  C   UNL     1      33.025 -23.470 -17.769  0.00  0.00    +0.031 C 
ENDBRANCH  11  12
ENDBRANCH   9  11
ENDBRANCH   8   9
ENDBRANCH   5   8
ENDBRANCH   1   2
BRANCH   1  22
ATOM     20  O   UNL     1      34.047 -11.761 -24.825  0.00  0.00    -0.275 OA
ATOM     21  N   UNL     1      32.343 -12.972 -23.748  0.00  0.00    -0.284 N 
ATOM     22  C   UNL     1      33.269 -12.710 -24.771  0.00  0.00    +0.228 C 
ATOM     23  H   UNL     1      31.801 -13.786 -23.856  0.00  0.00    +0.155 HD
BRANCH  21  25
ATOM     24  N   UNL     1      31.266  -8.570 -19.192  0.00  0.00    -0.242 NA
ATOM     25  C   UNL     1      32.094 -12.222 -22.596  0.00  0.00    +0.050 C 
ATOM     26  C   UNL     1      32.015 -10.831 -22.675  0.00  0.00    +0.015 C 
ATOM     27  C   UNL     1      31.768 -10.062 -21.526  0.00  0.00    +0.004 C 
ATOM     28  C   UNL     1      31.924 -12.863 -21.373  0.00  0.00    +0.015 C 
ATOM     29  C   UNL     1      31.596 -10.716 -20.288  0.00  0.00    +0.019 C 
ATOM     30  C   UNL     1      31.677 -12.117 -20.221  0.00  0.00    +0.003 C 
ATOM     31  C   UNL     1      31.683  -8.665 -21.572  0.00  0.00    +0.021 C 
ATOM     32  C   UNL     1      31.350  -9.920 -19.168  0.00  0.00    +0.099 C 
ATOM     33  C   UNL     1      31.434  -7.979 -20.394  0.00  0.00    +0.099 C 
ENDBRANCH  21  25
ENDBRANCH   1  22
BRANCH   1  34
ATOM     34  C   UNL     1      31.881 -13.747 -26.610  0.00  0.00    -0.072 C 
BRANCH  34  35
ATOM     35  N   UNL     1      31.907 -12.827 -27.744  0.00  0.00    +0.381 N 
ATOM     36  H   UNL     1      32.868 -12.705 -28.061  0.00  0.00    -0.089 HD
ATOM     37  H   UNL     1      31.527 -11.924 -27.457  0.00  0.00    -0.089 HD
ATOM     38  H   UNL     1      31.342 -13.207 -28.503  0.00  0.00    -0.089 HD
ENDBRANCH  34  35
ENDBRANCH   1  34
TORSDOF 9
ENDMDL
MODEL 5
REMARK VINA RESULT:     -11.8      2.876      3.585
REMARK  Name = 66599893
REMARK  9 active torsions:
REMARK  status: ('A' for Active; 'I' for Inactive)
REMARK    1  A    between atoms: C_1  and  C_2
REMARK    2  A    between atoms: C_1  and  C_22
REMARK    3  A    between atoms: C_1  and  C_34
REMARK    4  A    between atoms: C_5  and  C_8
REMARK    5  A    between atoms: C_8  and  O_9
REMARK    6  A    between atoms: O_9  and  C_11
REMARK    7  A    between atoms: C_11  and  C_12
REMARK    8  A    between atoms: N_21  and  C_25
REMARK    9  A    between atoms: C_34  and  N_35
REMARK                            x       y       z     vdW  Elec       q    Type
REMARK                         _______ _______ _______ _____ _____    ______ ____
ROOT
ATOM      1  C   UNL     1      35.545 -18.083 -21.978  0.00  0.00    +0.077 C 
ENDROOT
BRANCH   1   2
ATOM      2  C   UNL     1      35.025 -19.239 -21.139  0.00  0.00    -0.016 C 
ATOM      3  C   UNL     1      35.920 -20.076 -20.472  0.00  0.00    -0.004 C 
ATOM      4  C   UNL     1      33.652 -19.463 -21.034  0.00  0.00    -0.004 C 
ATOM      5  C   UNL     1      34.071 -21.361 -19.599  0.00  0.00    +0.021 C 
ATOM      6  C   UNL     1      35.443 -21.137 -19.704  0.00  0.00    -0.001 C 
ATOM      7  C   UNL     1      33.175 -20.524 -20.265  0.00  0.00    -0.001 C 
BRANCH   5   8
ATOM      8  C   UNL     1      33.560 -22.495 -18.775  0.00  0.00    +0.235 C 
BRANCH   8   9
ATOM      9  O   UNL     1      34.570 -22.910 -17.864  0.00  0.00    -0.440 OA
BRANCH   9  11
ATOM     10  O   UNL     1      33.022 -23.058 -16.168  0.00  0.00    -0.245 OA
ATOM     11  C   UNL     1      34.150 -23.220 -16.608  0.00  0.00    +0.341 C 
BRANCH  11  12
ATOM     12  C   UNL     1      35.262 -23.796 -15.809  0.00  0.00    +0.072 C 
ATOM     13  C   UNL     1      36.502 -23.163 -15.739  0.00  0.00    -0.016 C 
ATOM     14  C   UNL     1      37.318 -24.921 -14.296  0.00  0.00    -0.022 C 
ATOM     15  C   UNL     1      37.530 -23.726 -14.983  0.00  0.00    -0.008 C 
ATOM     16  C   UNL     1      35.048 -24.992 -15.123  0.00  0.00    +0.006 C 
ATOM     17  C   UNL     1      36.076 -25.555 -14.367  0.00  0.00    -0.004 C 
ATOM     18  C   UNL     1      36.757 -21.882 -16.463  0.00  0.00    +0.031 C 
ATOM     19  C   UNL     1      38.416 -25.524 -13.488  0.00  0.00    +0.031 C 
ENDBRANCH  11  12
ENDBRANCH   9  11
ENDBRANCH   8   9
ENDBRANCH   5   8
ENDBRANCH   1   2
BRANCH   1  22
ATOM     20  O   UNL     1      34.804 -16.485 -20.322  0.00  0.00    -0.275 OA
ATOM     21  N   UNL     1      34.485 -15.974 -22.596  0.00  0.00    -0.284 N 
ATOM     22  C   UNL     1      34.912 -16.763 -21.514  0.00  0.00    +0.228 C 
ATOM     23  H   UNL     1      34.639 -16.353 -23.491  0.00  0.00    +0.155 HD
BRANCH  21  25
ATOM     24  N   UNL     1      31.335 -10.522 -21.314  0.00  0.00    -0.242 NA
ATOM     25  C   UNL     1      33.870 -14.721 -22.561  0.00  0.00    +0.050 C 
ATOM     26  C   UNL     1      33.195 -14.309 -21.411  0.00  0.00    +0.015 C 
ATOM     27  C   UNL     1      32.569 -13.052 -21.361  0.00  0.00    +0.004 C 
ATOM     28  C   UNL     1      33.932 -13.886 -23.673  0.00  0.00    +0.015 C 
ATOM     29  C   UNL     1      32.634 -12.209 -22.490  0.00  0.00    +0.019 C 
ATOM     30  C   UNL     1      33.318 -12.634 -23.642  0.00  0.00    +0.003 C 
ATOM     31  C   UNL     1      31.884 -12.610 -20.224  0.00  0.00    +0.021 C 
ATOM     32  C   UNL     1      32.002 -10.967 -22.403  0.00  0.00    +0.099 C 
ATOM     33  C   UNL     1      31.294 -11.356 -20.253  0.00  0.00    +0.099 C 
ENDBRANCH  21  25
ENDBRANCH   1  22
BRANCH   1  34
ATOM     34  C   UNL     1      35.311 -18.286 -23.489  0.00  0.00    -0.072 C 
BRANCH  34  35
ATOM     35  N   UNL     1      34.898 -19.653 -23.797  0.00  0.00    +0.381 N 
ATOM     36  H   UNL     1      35.710 -20.268 -23.770  0.00  0.00    -0.089 HD
ATOM     37  H   UNL     1      34.481 -19.680 -24.727  0.00  0.00    -0.089 HD
ATOM     38  H   UNL     1      34.212 -19.963 -23.109  0.00  0.00    -0.089 HD
ENDBRANCH  34  35
ENDBRANCH   1  34
TORSDOF 9
ENDMDL
MODEL 6
REMARK VINA RESULT:     -11.8      1.814      2.493
REMARK  Name = 66599893
REMARK  9 active torsions:
REMARK  status: ('A' for Active; 'I' for Inactive)
REMARK    1  A    between atoms: C_1  and  C_2
REMARK    2  A    between atoms: C_1  and  C_22
REMARK    3  A    between atoms: C_1  and  C_34
REMARK    4  A    between atoms: C_5  and  C_8
REMARK    5  A    between atoms: C_8  and  O_9
REMARK    6  A    between atoms: O_9  and  C_11
REMARK    7  A    between atoms: C_11  and  C_12
REMARK    8  A    between atoms: N_21  and  C_25
REMARK    9  A    between atoms: C_34  and  N_35
REMARK                            x       y       z     vdW  Elec       q    Type
REMARK                         _______ _______ _______ _____ _____    ______ ____
ROOT
ATOM      1  C   UNL     1      34.911 -19.229 -22.459  0.00  0.00    +0.077 C 
ENDROOT
BRANCH   1   2
ATOM      2  C   UNL     1      34.433 -20.078 -21.291  0.00  0.00    -0.016 C 
ATOM      3  C   UNL     1      33.077 -20.124 -20.969  0.00  0.00    -0.004 C 
ATOM      4  C   UNL     1      35.353 -20.812 -20.540  0.00  0.00    -0.004 C 
ATOM      5  C   UNL     1      33.558 -21.635 -19.148  0.00  0.00    +0.021 C 
ATOM      6  C   UNL     1      32.640 -20.902 -19.897  0.00  0.00    -0.001 C 
ATOM      7  C   UNL     1      34.915 -21.590 -19.469  0.00  0.00    -0.001 C 
BRANCH   5   8
ATOM      8  C   UNL     1      33.091 -22.469 -18.002  0.00  0.00    +0.235 C 
BRANCH   8   9
ATOM      9  O   UNL     1      34.203 -23.137 -17.419  0.00  0.00    -0.440 OA
BRANCH   9  11
ATOM     10  O   UNL     1      33.241 -22.971 -15.334  0.00  0.00    -0.245 OA
ATOM     11  C   UNL     1      34.162 -23.295 -16.068  0.00  0.00    +0.341 C 
BRANCH  11  12
ATOM     12  C   UNL     1      35.413 -23.927 -15.575  0.00  0.00    +0.072 C 
ATOM     13  C   UNL     1      36.643 -23.284 -15.701  0.00  0.00    -0.016 C 
ATOM     14  C   UNL     1      37.733 -25.159 -14.635  0.00  0.00    -0.022 C 
ATOM     15  C   UNL     1      37.803 -23.900 -15.231  0.00  0.00    -0.008 C 
ATOM     16  C   UNL     1      35.341 -25.187 -14.980  0.00  0.00    +0.006 C 
ATOM     17  C   UNL     1      36.501 -25.803 -14.510  0.00  0.00    -0.004 C 
ATOM     18  C   UNL     1      36.749 -21.935 -16.334  0.00  0.00    +0.031 C 
ATOM     19  C   UNL     1      38.971 -25.820 -14.133  0.00  0.00    +0.031 C 
ENDBRANCH  11  12
ENDBRANCH   9  11
ENDBRANCH   8   9
ENDBRANCH   5   8
ENDBRANCH   1   2
BRANCH   1  22
ATOM     20  O   UNL     1      34.883 -17.298 -21.004  0.00  0.00    -0.275 OA
ATOM     21  N   UNL     1      34.360 -16.999 -23.278  0.00  0.00    -0.284 N 
ATOM     22  C   UNL     1      34.728 -17.738 -22.141  0.00  0.00    +0.228 C 
ATOM     23  H   UNL     1      34.268 -17.511 -24.113  0.00  0.00    +0.155 HD
BRANCH  21  25
ATOM     24  N   UNL     1      32.918 -10.941 -24.863  0.00  0.00    -0.242 NA
ATOM     25  C   UNL     1      34.109 -15.628 -23.373  0.00  0.00    +0.050 C 
ATOM     26  C   UNL     1      33.670 -15.083 -24.580  0.00  0.00    +0.015 C 
ATOM     27  C   UNL     1      33.415 -13.707 -24.693  0.00  0.00    +0.004 C 
ATOM     28  C   UNL     1      34.299 -14.808 -22.264  0.00  0.00    +0.015 C 
ATOM     29  C   UNL     1      33.608 -12.879 -23.567  0.00  0.00    +0.019 C 
ATOM     30  C   UNL     1      34.050 -13.439 -22.356  0.00  0.00    +0.003 C 
ATOM     31  C   UNL     1      32.974 -13.130 -25.890  0.00  0.00    +0.021 C 
ATOM     32  C   UNL     1      33.344 -11.517 -23.715  0.00  0.00    +0.099 C 
ATOM     33  C   UNL     1      32.744 -11.763 -25.919  0.00  0.00    +0.099 C 
ENDBRANCH  21  25
ENDBRANCH   1  22
BRANCH   1  34
ATOM     34  C   UNL     1      34.208 -19.584 -23.785  0.00  0.00    -0.072 C 
BRANCH  34  35
ATOM     35  N   UNL     1      35.118 -20.229 -24.727  0.00  0.00    +0.381 N 
ATOM     36  H   UNL     1      35.480 -19.534 -25.380  0.00  0.00    -0.089 HD
ATOM     37  H   UNL     1      34.616 -20.951 -25.244  0.00  0.00    -0.089 HD
ATOM     38  H   UNL     1      35.892 -20.653 -24.217  0.00  0.00    -0.089 HD
ENDBRANCH  34  35
ENDBRANCH   1  34
TORSDOF 9
ENDMDL
MODEL 7
REMARK VINA RESULT:     -11.6      5.135     11.881
REMARK  Name = 66599893
REMARK  9 active torsions:
REMARK  status: ('A' for Active; 'I' for Inactive)
REMARK    1  A    between atoms: C_1  and  C_2
REMARK    2  A    between atoms: C_1  and  C_22
REMARK    3  A    between atoms: C_1  and  C_34
REMARK    4  A    between atoms: C_5  and  C_8
REMARK    5  A    between atoms: C_8  and  O_9
REMARK    6  A    between atoms: O_9  and  C_11
REMARK    7  A    between atoms: C_11  and  C_12
REMARK    8  A    between atoms: N_21  and  C_25
REMARK    9  A    between atoms: C_34  and  N_35
REMARK                            x       y       z     vdW  Elec       q    Type
REMARK                         _______ _______ _______ _____ _____    ______ ____
ROOT
ATOM      1  C   UNL     1      33.327 -15.848 -24.727  0.00  0.00    +0.077 C 
ENDROOT
BRANCH   1   2
ATOM      2  C   UNL     1      33.343 -14.332 -24.612  0.00  0.00    -0.016 C 
ATOM      3  C   UNL     1      33.301 -13.726 -23.355  0.00  0.00    -0.004 C 
ATOM      4  C   UNL     1      33.401 -13.546 -25.763  0.00  0.00    -0.004 C 
ATOM      5  C   UNL     1      33.374 -11.550 -24.401  0.00  0.00    +0.021 C 
ATOM      6  C   UNL     1      33.316 -12.336 -23.251  0.00  0.00    -0.001 C 
ATOM      7  C   UNL     1      33.416 -12.155 -25.657  0.00  0.00    -0.001 C 
BRANCH   5   8
ATOM      8  C   UNL     1      33.391 -10.063 -24.289  0.00  0.00    +0.235 C 
BRANCH   8   9
ATOM      9  O   UNL     1      32.085  -9.555 -24.534  0.00  0.00    -0.440 OA
BRANCH   9  11
ATOM     10  O   UNL     1      31.372  -7.430 -24.011  0.00  0.00    -0.245 OA
ATOM     11  C   UNL     1      31.659  -8.574 -23.693  0.00  0.00    +0.341 C 
BRANCH  11  12
ATOM     12  C   UNL     1      31.583  -9.075 -22.297  0.00  0.00    +0.072 C 
ATOM     13  C   UNL     1      32.382  -8.531 -21.292  0.00  0.00    -0.016 C 
ATOM     14  C   UNL     1      31.405 -10.053 -19.690  0.00  0.00    -0.022 C 
ATOM     15  C   UNL     1      32.293  -9.020 -19.988  0.00  0.00    -0.008 C 
ATOM     16  C   UNL     1      30.695 -10.109 -21.999  0.00  0.00    +0.006 C 
ATOM     17  C   UNL     1      30.606 -10.598 -20.696  0.00  0.00    -0.004 C 
ATOM     18  C   UNL     1      33.341  -7.423 -21.583  0.00  0.00    +0.031 C 
ATOM     19  C   UNL     1      31.308 -10.578 -18.298  0.00  0.00    +0.031 C 
ENDBRANCH  11  12
ENDBRANCH   9  11
ENDBRANCH   8   9
ENDBRANCH   5   8
ENDBRANCH   1   2
BRANCH   1  22
ATOM     20  O   UNL     1      35.284 -15.904 -23.309  0.00  0.00    -0.275 OA
ATOM     21  N   UNL     1      33.793 -17.722 -23.237  0.00  0.00    -0.284 N 
ATOM     22  C   UNL     1      34.257 -16.471 -23.676  0.00  0.00    +0.228 C 
ATOM     23  H   UNL     1      32.954 -18.036 -23.644  0.00  0.00    +0.155 HD
BRANCH  21  25
ATOM     24  N   UNL     1      35.322 -22.034 -18.725  0.00  0.00    -0.242 NA
ATOM     25  C   UNL     1      34.372 -18.576 -22.295  0.00  0.00    +0.050 C 
ATOM     26  C   UNL     1      33.569 -19.459 -21.571  0.00  0.00    +0.015 C 
ATOM     27  C   UNL     1      34.135 -20.323 -20.619  0.00  0.00    +0.004 C 
ATOM     28  C   UNL     1      35.746 -18.544 -22.080  0.00  0.00    +0.015 C 
ATOM     29  C   UNL     1      35.529 -20.288 -20.405  0.00  0.00    +0.019 C 
ATOM     30  C   UNL     1      36.327 -19.395 -21.140  0.00  0.00    +0.003 C 
ATOM     31  C   UNL     1      33.358 -21.220 -19.877  0.00  0.00    +0.021 C 
ATOM     32  C   UNL     1      36.056 -21.162 -19.452  0.00  0.00    +0.099 C 
ATOM     33  C   UNL     1      33.992 -22.041 -18.957  0.00  0.00    +0.099 C 
ENDBRANCH  21  25
ENDBRANCH   1  22
BRANCH   1  34
ATOM     34  C   UNL     1      33.702 -16.347 -26.137  0.00  0.00    -0.072 C 
BRANCH  34  35
ATOM     35  N   UNL     1      32.540 -16.849 -26.864  0.00  0.00    +0.381 N 
ATOM     36  H   UNL     1      31.937 -16.068 -27.124  0.00  0.00    -0.089 HD
ATOM     37  H   UNL     1      32.020 -17.495 -26.270  0.00  0.00    -0.089 HD
ATOM     38  H   UNL     1      32.849 -17.335 -27.706  0.00  0.00    -0.089 HD
ENDBRANCH  34  35
ENDBRANCH   1  34
TORSDOF 9
ENDMDL
MODEL 8
REMARK VINA RESULT:     -11.6      3.231     11.774
REMARK  Name = 66599893
REMARK  9 active torsions:
REMARK  status: ('A' for Active; 'I' for Inactive)
REMARK    1  A    between atoms: C_1  and  C_2
REMARK    2  A    between atoms: C_1  and  C_22
REMARK    3  A    between atoms: C_1  and  C_34
REMARK    4  A    between atoms: C_5  and  C_8
REMARK    5  A    between atoms: C_8  and  O_9
REMARK    6  A    between atoms: O_9  and  C_11
REMARK    7  A    between atoms: C_11  and  C_12
REMARK    8  A    between atoms: N_21  and  C_25
REMARK    9  A    between atoms: C_34  and  N_35
REMARK                            x       y       z     vdW  Elec       q    Type
REMARK                         _______ _______ _______ _____ _____    ______ ____
ROOT
ATOM      1  C   UNL     1      35.541 -19.333 -22.406  0.00  0.00    +0.077 C 
ENDROOT
BRANCH   1   2
ATOM      2  C   UNL     1      34.791 -18.451 -23.392  0.00  0.00    -0.016 C 
ATOM      3  C   UNL     1      34.139 -19.023 -24.485  0.00  0.00    -0.004 C 
ATOM      4  C   UNL     1      34.755 -17.068 -23.203  0.00  0.00    -0.004 C 
ATOM      5  C   UNL     1      33.416 -16.832 -25.201  0.00  0.00    +0.021 C 
ATOM      6  C   UNL     1      33.453 -18.213 -25.389  0.00  0.00    -0.001 C 
ATOM      7  C   UNL     1      34.068 -16.260 -24.109  0.00  0.00    -0.001 C 
BRANCH   5   8
ATOM      8  C   UNL     1      32.681 -15.966 -26.167  0.00  0.00    +0.235 C 
BRANCH   8   9
ATOM      9  O   UNL     1      33.401 -14.755 -26.360  0.00  0.00    -0.440 OA
BRANCH   9  11
ATOM     10  O   UNL     1      31.550 -13.583 -27.067  0.00  0.00    -0.245 OA
ATOM     11  C   UNL     1      32.648 -13.635 -26.534  0.00  0.00    +0.341 C 
BRANCH  11  12
ATOM     12  C   UNL     1      33.343 -12.444 -25.981  0.00  0.00    +0.072 C 
ATOM     13  C   UNL     1      33.315 -12.163 -24.616  0.00  0.00    -0.016 C 
ATOM     14  C   UNL     1      34.662 -10.193 -24.993  0.00  0.00    -0.022 C 
ATOM     15  C   UNL     1      33.975 -11.038 -24.121  0.00  0.00    -0.008 C 
ATOM     16  C   UNL     1      34.030 -11.600 -26.853  0.00  0.00    +0.006 C 
ATOM     17  C   UNL     1      34.689 -10.474 -26.360  0.00  0.00    -0.004 C 
ATOM     18  C   UNL     1      32.587 -13.051 -23.659  0.00  0.00    +0.031 C 
ATOM     19  C   UNL     1      35.367  -8.990 -24.467  0.00  0.00    +0.031 C 
ENDBRANCH  11  12
ENDBRANCH   9  11
ENDBRANCH   8   9
ENDBRANCH   5   8
ENDBRANCH   1   2
BRANCH   1  22
ATOM     20  O   UNL     1      33.364 -19.682 -21.415  0.00  0.00    -0.275 OA
ATOM     21  N   UNL     1      35.221 -20.757 -20.452  0.00  0.00    -0.284 N 
ATOM     22  C   UNL     1      34.566 -19.935 -21.384  0.00  0.00    +0.228 C 
ATOM     23  H   UNL     1      36.195 -20.844 -20.565  0.00  0.00    +0.155 HD
BRANCH  21  25
ATOM     24  N   UNL     1      33.774 -23.960 -15.073  0.00  0.00    -0.242 NA
ATOM     25  C   UNL     1      34.665 -21.468 -19.386  0.00  0.00    +0.050 C 
ATOM     26  C   UNL     1      35.458 -21.810 -18.289  0.00  0.00    +0.015 C 
ATOM     27  C   UNL     1      34.914 -22.526 -17.210  0.00  0.00    +0.004 C 
ATOM     28  C   UNL     1      33.323 -21.833 -19.419  0.00  0.00    +0.015 C 
ATOM     29  C   UNL     1      33.553 -22.895 -17.248  0.00  0.00    +0.019 C 
ATOM     30  C   UNL     1      32.765 -22.544 -18.357  0.00  0.00    +0.003 C 
ATOM     31  C   UNL     1      35.683 -22.885 -16.096  0.00  0.00    +0.021 C 
ATOM     32  C   UNL     1      33.048 -23.605 -16.157  0.00  0.00    +0.099 C 
ATOM     33  C   UNL     1      35.072 -23.590 -15.071  0.00  0.00    +0.099 C 
ENDBRANCH  21  25
ENDBRANCH   1  22
BRANCH   1  34
ATOM     34  C   UNL     1      36.682 -18.588 -21.683  0.00  0.00    -0.072 C 
BRANCH  34  35
ATOM     35  N   UNL     1      37.959 -18.747 -22.372  0.00  0.00    +0.381 N 
ATOM     36  H   UNL     1      38.400 -17.834 -22.488  0.00  0.00    -0.089 HD
ATOM     37  H   UNL     1      37.801 -19.166 -23.289  0.00  0.00    -0.089 HD
ATOM     38  H   UNL     1      38.569 -19.353 -21.823  0.00  0.00    -0.089 HD
ENDBRANCH  34  35
ENDBRANCH   1  34
TORSDOF 9
ENDMDL
MODEL 9
REMARK VINA RESULT:     -11.3      1.431      2.066
REMARK  Name = 66599893
REMARK  9 active torsions:
REMARK  status: ('A' for Active; 'I' for Inactive)
REMARK    1  A    between atoms: C_1  and  C_2
REMARK    2  A    between atoms: C_1  and  C_22
REMARK    3  A    between atoms: C_1  and  C_34
REMARK    4  A    between atoms: C_5  and  C_8
REMARK    5  A    between atoms: C_8  and  O_9
REMARK    6  A    between atoms: O_9  and  C_11
REMARK    7  A    between atoms: C_11  and  C_12
REMARK    8  A    between atoms: N_21  and  C_25
REMARK    9  A    between atoms: C_34  and  N_35
REMARK                            x       y       z     vdW  Elec       q    Type
REMARK                         _______ _______ _______ _____ _____    ______ ____
ROOT
ATOM      1  C   UNL     1      35.885 -18.557 -21.639  0.00  0.00    +0.077 C 
ENDROOT
BRANCH   1   2
ATOM      2  C   UNL     1      35.190 -19.659 -20.855  0.00  0.00    -0.016 C 
ATOM      3  C   UNL     1      35.945 -20.603 -20.158  0.00  0.00    -0.004 C 
ATOM      4  C   UNL     1      33.796 -19.727 -20.833  0.00  0.00    -0.004 C 
ATOM      5  C   UNL     1      33.914 -21.681 -19.418  0.00  0.00    +0.021 C 
ATOM      6  C   UNL     1      35.306 -21.614 -19.440  0.00  0.00    -0.001 C 
ATOM      7  C   UNL     1      33.159 -20.738 -20.116  0.00  0.00    -0.001 C 
BRANCH   5   8
ATOM      8  C   UNL     1      33.231 -22.762 -18.650  0.00  0.00    +0.235 C 
BRANCH   8   9
ATOM      9  O   UNL     1      33.445 -22.560 -17.258  0.00  0.00    -0.440 OA
BRANCH   9  11
ATOM     10  O   UNL     1      31.585 -23.723 -16.561  0.00  0.00    -0.245 OA
ATOM     11  C   UNL     1      32.748 -23.378 -16.423  0.00  0.00    +0.341 C 
BRANCH  11  12
ATOM     12  C   UNL     1      33.598 -23.814 -15.285  0.00  0.00    +0.072 C 
ATOM     13  C   UNL     1      33.110 -23.813 -13.979  0.00  0.00    -0.016 C 
ATOM     14  C   UNL     1      35.236 -24.640 -13.183  0.00  0.00    -0.022 C 
ATOM     15  C   UNL     1      33.928 -24.227 -12.928  0.00  0.00    -0.008 C 
ATOM     16  C   UNL     1      34.906 -24.227 -15.541  0.00  0.00    +0.006 C 
ATOM     17  C   UNL     1      35.725 -24.640 -14.490  0.00  0.00    -0.004 C 
ATOM     18  C   UNL     1      31.713 -23.376 -13.677  0.00  0.00    +0.031 C 
ATOM     19  C   UNL     1      36.113 -25.081 -12.061  0.00  0.00    +0.031 C 
ENDBRANCH  11  12
ENDBRANCH   9  11
ENDBRANCH   8   9
ENDBRANCH   5   8
ENDBRANCH   1   2
BRANCH   1  22
ATOM     20  O   UNL     1      34.326 -16.729 -21.903  0.00  0.00    -0.275 OA
ATOM     21  N   UNL     1      34.604 -18.234 -23.689  0.00  0.00    -0.284 N 
ATOM     22  C   UNL     1      34.853 -17.718 -22.406  0.00  0.00    +0.228 C 
ATOM     23  H   UNL     1      35.106 -19.045 -23.931  0.00  0.00    +0.155 HD
BRANCH  21  25
ATOM     24  N   UNL     1      31.178 -14.921 -27.999  0.00  0.00    -0.242 NA
ATOM     25  C   UNL     1      33.734 -17.742 -24.664  0.00  0.00    +0.050 C 
ATOM     26  C   UNL     1      33.812 -16.404 -25.055  0.00  0.00    +0.015 C 
ATOM     27  C   UNL     1      32.943 -15.893 -26.032  0.00  0.00    +0.004 C 
ATOM     28  C   UNL     1      32.791 -18.586 -25.244  0.00  0.00    +0.015 C 
ATOM     29  C   UNL     1      31.989 -16.752 -26.618  0.00  0.00    +0.019 C 
ATOM     30  C   UNL     1      31.920 -18.097 -26.217  0.00  0.00    +0.003 C 
ATOM     31  C   UNL     1      32.996 -14.557 -26.446  0.00  0.00    +0.021 C 
ATOM     32  C   UNL     1      31.143 -16.209 -27.587  0.00  0.00    +0.099 C 
ATOM     33  C   UNL     1      32.104 -14.129 -27.417  0.00  0.00    +0.099 C 
ENDBRANCH  21  25
ENDBRANCH   1  22
BRANCH   1  34
ATOM     34  C   UNL     1      36.962 -19.094 -22.603  0.00  0.00    -0.072 C 
BRANCH  34  35
ATOM     35  N   UNL     1      38.300 -18.643 -22.231  0.00  0.00    +0.381 N 
ATOM     36  H   UNL     1      38.373 -17.636 -22.381  0.00  0.00    -0.089 HD
ATOM     37  H   UNL     1      38.992 -19.123 -22.807  0.00  0.00    -0.089 HD
ATOM     38  H   UNL     1      38.470 -18.855 -21.248  0.00  0.00    -0.089 HD
ENDBRANCH  34  35
ENDBRANCH   1  34
TORSDOF 9
ENDMDL
