MODEL 1
REMARK VINA RESULT:     -12.2      0.000      0.000
REMARK  Name = 51049992
REMARK  10 active torsions:
REMARK  status: ('A' for Active; 'I' for Inactive)
REMARK    1  A    between atoms: C_1  and  C_7
REMARK    2  A    between atoms: C_6  and  C_23
REMARK    3  A    between atoms: C_7  and  N_8
REMARK    4  A    between atoms: C_23  and  O_24
REMARK    5  A    between atoms: O_24  and  C_25
REMARK    6  A    between atoms: C_26  and  C_31
REMARK    7  A    between atoms: C_31  and  C_32
REMARK    8  A    between atoms: C_31  and  C_35
REMARK    9  A    between atoms: C_35  and  C_37
REMARK   10  A    between atoms: C_37  and  O_38
REMARK                            x       y       z     vdW  Elec       q    Type
REMARK                         _______ _______ _______ _____ _____    ______ ____
ROOT
ATOM      1  C   UNL     1      34.840 -18.102 -22.837  0.00  0.00    -0.043 C 
ATOM      2  C   UNL     1      36.007 -18.330 -22.106  0.00  0.00    -0.007 C 
ATOM      3  C   UNL     1      33.702 -18.870 -22.588  0.00  0.00    -0.007 C 
ATOM      4  C   UNL     1      36.035 -19.324 -21.128  0.00  0.00    -0.001 C 
ATOM      5  C   UNL     1      33.730 -19.863 -21.610  0.00  0.00    -0.001 C 
ATOM      6  C   UNL     1      34.896 -20.090 -20.880  0.00  0.00    +0.021 C 
ENDROOT
BRANCH   1   7
ATOM      7  C   UNL     1      34.811 -17.030 -23.892  0.00  0.00    -0.050 C 
BRANCH   7   8
ATOM      8  N   UNL     1      34.022 -15.872 -23.470  0.00  0.00    +0.390 N 
ATOM      9  C   UNL     1      33.295 -13.018 -23.342  0.00  0.00    +0.033 C 
ATOM     10  C   UNL     1      32.527 -14.038 -24.202  0.00  0.00    -0.015 C 
ATOM     11  C   UNL     1      34.032 -13.744 -22.202  0.00  0.00    -0.015 C 
ATOM     12  C   UNL     1      34.857 -14.933 -22.707  0.00  0.00    -0.076 C 
ATOM     13  C   UNL     1      33.408 -15.217 -24.632  0.00  0.00    -0.076 C 
ATOM     14  C   UNL     1      32.385 -11.926 -22.818  0.00  0.00    -0.019 C 
ATOM     15  C   UNL     1      34.253 -12.179 -24.186  0.00  0.00    -0.023 C 
ATOM     16  C   UNL     1      32.804 -10.683 -23.315  0.00  0.00    -0.004 C 
ATOM     17  C   UNL     1      33.966 -10.869 -24.162  0.00  0.00    -0.005 C 
ATOM     18  C   UNL     1      31.286 -12.020 -21.979  0.00  0.00    -0.004 C 
ATOM     19  C   UNL     1      32.138  -9.514 -22.986  0.00  0.00    -0.000 C 
ATOM     20  C   UNL     1      30.608 -10.847 -21.640  0.00  0.00    -0.000 C 
ATOM     21  C   UNL     1      31.030  -9.604 -22.140  0.00  0.00    -0.000 C 
ATOM     22  H   UNL     1      33.272 -16.191 -22.858  0.00  0.00    -0.079 HD
ENDBRANCH   7   8
ENDBRANCH   1   7
BRANCH   6  23
ATOM     23  C   UNL     1      34.925 -21.151 -19.832  0.00  0.00    +0.232 C 
BRANCH  23  24
ATOM     24  O   UNL     1      35.876 -20.803 -18.833  0.00  0.00    -0.471 OA
BRANCH  24  25
ATOM     25  C   UNL     1      35.972 -21.640 -17.753  0.00  0.00    +0.139 C 
ATOM     26  C   UNL     1      36.167 -23.348 -15.556  0.00  0.00    -0.010 C 
ATOM     27  C   UNL     1      37.170 -21.732 -17.045  0.00  0.00    +0.037 C 
ATOM     28  C   UNL     1      34.871 -22.403 -17.362  0.00  0.00    +0.037 C 
ATOM     29  C   UNL     1      37.268 -22.586 -15.946  0.00  0.00    -0.000 C 
ATOM     30  C   UNL     1      34.969 -23.258 -16.264  0.00  0.00    -0.000 C 
BRANCH  26  31
ATOM     31  C   UNL     1      36.271 -24.262 -14.381  0.00  0.00    +0.097 C 
BRANCH  31  32
ATOM     32  C   UNL     1      37.580 -24.970 -14.349  0.00  0.00    -0.087 C 
ATOM     33  C   UNL     1      38.640 -25.537 -14.340  0.00  0.00    -0.090 C 
ATOM     34  C   UNL     1      39.928 -26.227 -14.330  0.00  0.00    +0.090 C 
ENDBRANCH  31  32
BRANCH  31  35
ATOM     35  C   UNL     1      36.034 -23.523 -13.037  0.00  0.00    +0.127 C 
BRANCH  35  37
ATOM     36  O   UNL     1      36.576 -24.635 -10.933  0.00  0.00    -0.250 OA
ATOM     37  C   UNL     1      35.796 -24.444 -11.856  0.00  0.00    +0.315 C 
BRANCH  37  38
ATOM     38  O   UNL     1      34.578 -25.041 -11.933  0.00  0.00    -0.480 OA
ATOM     39  H   UNL     1      34.505 -25.970 -11.839  0.00  0.00    +0.295 HD
ENDBRANCH  37  38
ENDBRANCH  35  37
ENDBRANCH  31  35
ENDBRANCH  26  31
ENDBRANCH  24  25
ENDBRANCH  23  24
ENDBRANCH   6  23
TORSDOF 10
ENDMDL
MODEL 2
REMARK VINA RESULT:     -12.1      3.816     13.523
REMARK  Name = 51049992
REMARK  10 active torsions:
REMARK  status: ('A' for Active; 'I' for Inactive)
REMARK    1  A    between atoms: C_1  and  C_7
REMARK    2  A    between atoms: C_6  and  C_23
REMARK    3  A    between atoms: C_7  and  N_8
REMARK    4  A    between atoms: C_23  and  O_24
REMARK    5  A    between atoms: O_24  and  C_25
REMARK    6  A    between atoms: C_26  and  C_31
REMARK    7  A    between atoms: C_31  and  C_32
REMARK    8  A    between atoms: C_31  and  C_35
REMARK    9  A    between atoms: C_35  and  C_37
REMARK   10  A    between atoms: C_37  and  O_38
REMARK                            x       y       z     vdW  Elec       q    Type
REMARK                         _______ _______ _______ _____ _____    ______ ____
ROOT
ATOM      1  C   UNL     1      33.448 -21.517 -19.324  0.00  0.00    -0.043 C 
ATOM      2  C   UNL     1      32.694 -20.641 -20.106  0.00  0.00    -0.007 C 
ATOM      3  C   UNL     1      34.839 -21.522 -19.430  0.00  0.00    -0.007 C 
ATOM      4  C   UNL     1      33.330 -19.771 -20.991  0.00  0.00    -0.001 C 
ATOM      5  C   UNL     1      35.476 -20.653 -20.315  0.00  0.00    -0.001 C 
ATOM      6  C   UNL     1      34.721 -19.778 -21.096  0.00  0.00    +0.021 C 
ENDROOT
BRANCH   1   7
ATOM      7  C   UNL     1      32.760 -22.455 -18.369  0.00  0.00    -0.050 C 
BRANCH   7   8
ATOM      8  N   UNL     1      33.520 -22.625 -17.131  0.00  0.00    +0.390 N 
ATOM      9  C   UNL     1      35.185 -24.074 -15.177  0.00  0.00    +0.033 C 
ATOM     10  C   UNL     1      35.756 -23.017 -16.140  0.00  0.00    -0.015 C 
ATOM     11  C   UNL     1      33.676 -23.840 -14.979  0.00  0.00    -0.015 C 
ATOM     12  C   UNL     1      32.931 -23.691 -16.309  0.00  0.00    -0.076 C 
ATOM     13  C   UNL     1      34.932 -22.899 -17.428  0.00  0.00    -0.076 C 
ATOM     14  C   UNL     1      35.930 -24.093 -13.858  0.00  0.00    -0.019 C 
ATOM     15  C   UNL     1      35.475 -25.493 -15.663  0.00  0.00    -0.023 C 
ATOM     16  C   UNL     1      36.529 -25.348 -13.672  0.00  0.00    -0.004 C 
ATOM     17  C   UNL     1      36.231 -26.198 -14.808  0.00  0.00    -0.005 C 
ATOM     18  C   UNL     1      36.067 -23.094 -12.908  0.00  0.00    -0.004 C 
ATOM     19  C   UNL     1      37.274 -25.629 -12.539  0.00  0.00    -0.000 C 
ATOM     20  C   UNL     1      36.816 -23.368 -11.761  0.00  0.00    -0.000 C 
ATOM     21  C   UNL     1      37.415 -24.625 -11.578  0.00  0.00    -0.000 C 
ATOM     22  H   UNL     1      33.475 -21.758 -16.597  0.00  0.00    -0.079 HD
ENDBRANCH   7   8
ENDBRANCH   1   7
BRANCH   6  23
ATOM     23  C   UNL     1      35.403 -18.846 -22.040  0.00  0.00    +0.232 C 
BRANCH  23  24
ATOM     24  O   UNL     1      35.317 -17.517 -21.537  0.00  0.00    -0.471 OA
BRANCH  24  25
ATOM     25  C   UNL     1      34.759 -16.579 -22.365  0.00  0.00    +0.139 C 
ATOM     26  C   UNL     1      33.619 -14.670 -24.049  0.00  0.00    -0.010 C 
ATOM     27  C   UNL     1      34.562 -15.275 -21.910  0.00  0.00    +0.037 C 
ATOM     28  C   UNL     1      34.385 -16.928 -23.663  0.00  0.00    +0.037 C 
ATOM     29  C   UNL     1      33.993 -14.321 -22.752  0.00  0.00    -0.000 C 
ATOM     30  C   UNL     1      33.815 -15.974 -24.505  0.00  0.00    -0.000 C 
BRANCH  26  31
ATOM     31  C   UNL     1      33.010 -13.650 -24.951  0.00  0.00    +0.097 C 
BRANCH  31  32
ATOM     32  C   UNL     1      33.664 -12.321 -24.799  0.00  0.00    -0.087 C 
ATOM     33  C   UNL     1      34.200 -11.250 -24.691  0.00  0.00    -0.090 C 
ATOM     34  C   UNL     1      34.854  -9.950 -24.559  0.00  0.00    +0.090 C 
ENDBRANCH  31  32
BRANCH  31  35
ATOM     35  C   UNL     1      33.037 -14.087 -26.441  0.00  0.00    +0.127 C 
BRANCH  35  37
ATOM     36  O   UNL     1      32.608 -12.317 -28.066  0.00  0.00    -0.250 OA
ATOM     37  C   UNL     1      32.192 -13.223 -27.357  0.00  0.00    +0.315 C 
BRANCH  37  38
ATOM     38  O   UNL     1      30.884 -13.587 -27.311  0.00  0.00    -0.480 OA
ATOM     39  H   UNL     1      30.554 -14.224 -27.912  0.00  0.00    +0.295 HD
ENDBRANCH  37  38
ENDBRANCH  35  37
ENDBRANCH  31  35
ENDBRANCH  26  31
ENDBRANCH  24  25
ENDBRANCH  23  24
ENDBRANCH   6  23
TORSDOF 10
ENDMDL
MODEL 3
REMARK VINA RESULT:     -11.8      3.329      6.336
REMARK  Name = 51049992
REMARK  10 active torsions:
REMARK  status: ('A' for Active; 'I' for Inactive)
REMARK    1  A    between atoms: C_1  and  C_7
REMARK    2  A    between atoms: C_6  and  C_23
REMARK    3  A    between atoms: C_7  and  N_8
REMARK    4  A    between atoms: C_23  and  O_24
REMARK    5  A    between atoms: O_24  and  C_25
REMARK    6  A    between atoms: C_26  and  C_31
REMARK    7  A    between atoms: C_31  and  C_32
REMARK    8  A    between atoms: C_31  and  C_35
REMARK    9  A    between atoms: C_35  and  C_37
REMARK   10  A    between atoms: C_37  and  O_38
REMARK                            x       y       z     vdW  Elec       q    Type
REMARK                         _______ _______ _______ _____ _____    ______ ____
ROOT
ATOM      1  C   UNL     1      33.295 -12.887 -23.616  0.00  0.00    -0.043 C 
ATOM      2  C   UNL     1      33.901 -13.508 -22.523  0.00  0.00    -0.007 C 
ATOM      3  C   UNL     1      33.097 -13.599 -24.800  0.00  0.00    -0.007 C 
ATOM      4  C   UNL     1      34.308 -14.839 -22.614  0.00  0.00    -0.001 C 
ATOM      5  C   UNL     1      33.503 -14.930 -24.890  0.00  0.00    -0.001 C 
ATOM      6  C   UNL     1      34.109 -15.550 -23.797  0.00  0.00    +0.021 C 
ENDROOT
BRANCH   1   7
ATOM      7  C   UNL     1      32.857 -11.451 -23.518  0.00  0.00    -0.050 C 
BRANCH   7   8
ATOM      8  N   UNL     1      33.522 -10.609 -24.513  0.00  0.00    +0.390 N 
ATOM      9  C   UNL     1      34.134  -8.099 -25.932  0.00  0.00    +0.033 C 
ATOM     10  C   UNL     1      35.075  -8.715 -24.881  0.00  0.00    -0.015 C 
ATOM     11  C   UNL     1      33.221  -9.190 -26.520  0.00  0.00    -0.015 C 
ATOM     12  C   UNL     1      32.536 -10.024 -25.432  0.00  0.00    -0.076 C 
ATOM     13  C   UNL     1      34.320  -9.567 -23.854  0.00  0.00    -0.076 C 
ATOM     14  C   UNL     1      34.902  -7.366 -27.012  0.00  0.00    -0.019 C 
ATOM     15  C   UNL     1      33.323  -6.941 -25.353  0.00  0.00    -0.023 C 
ATOM     16  C   UNL     1      34.546  -6.008 -27.006  0.00  0.00    -0.004 C 
ATOM     17  C   UNL     1      33.564  -5.772 -25.965  0.00  0.00    -0.005 C 
ATOM     18  C   UNL     1      35.830  -7.850 -27.919  0.00  0.00    -0.004 C 
ATOM     19  C   UNL     1      35.108  -5.112 -27.900  0.00  0.00    -0.000 C 
ATOM     20  C   UNL     1      36.403  -6.954 -28.826  0.00  0.00    -0.000 C 
ATOM     21  C   UNL     1      36.045  -5.597 -28.816  0.00  0.00    -0.000 C 
ATOM     22  H   UNL     1      34.156 -11.189 -25.062  0.00  0.00    -0.079 HD
ENDBRANCH   7   8
ENDBRANCH   1   7
BRANCH   6  23
ATOM     23  C   UNL     1      34.541 -16.974 -23.893  0.00  0.00    +0.232 C 
BRANCH  23  24
ATOM     24  O   UNL     1      35.514 -17.242 -22.890  0.00  0.00    -0.471 OA
BRANCH  24  25
ATOM     25  C   UNL     1      35.291 -18.330 -22.089  0.00  0.00    +0.139 C 
ATOM     26  C   UNL     1      34.836 -20.545 -20.455  0.00  0.00    -0.010 C 
ATOM     27  C   UNL     1      34.019 -18.899 -22.022  0.00  0.00    +0.037 C 
ATOM     28  C   UNL     1      36.335 -18.869 -21.338  0.00  0.00    +0.037 C 
ATOM     29  C   UNL     1      33.791 -20.006 -21.205  0.00  0.00    -0.000 C 
ATOM     30  C   UNL     1      36.108 -19.977 -20.521  0.00  0.00    -0.000 C 
BRANCH  26  31
ATOM     31  C   UNL     1      34.594 -21.730 -19.581  0.00  0.00    +0.097 C 
BRANCH  31  32
ATOM     32  C   UNL     1      35.561 -21.786 -18.451  0.00  0.00    -0.087 C 
ATOM     33  C   UNL     1      36.337 -21.847 -17.535  0.00  0.00    -0.090 C 
ATOM     34  C   UNL     1      37.277 -21.922 -16.419  0.00  0.00    +0.090 C 
ENDBRANCH  31  32
BRANCH  31  35
ATOM     35  C   UNL     1      33.140 -21.775 -19.039  0.00  0.00    +0.127 C 
BRANCH  35  37
ATOM     36  O   UNL     1      32.236 -22.929 -17.087  0.00  0.00    -0.250 OA
ATOM     37  C   UNL     1      32.848 -22.965 -18.145  0.00  0.00    +0.315 C 
BRANCH  37  38
ATOM     38  O   UNL     1      33.346 -24.114 -18.674  0.00  0.00    -0.480 OA
ATOM     39  H   UNL     1      34.212 -24.394 -18.456  0.00  0.00    +0.295 HD
ENDBRANCH  37  38
ENDBRANCH  35  37
ENDBRANCH  31  35
ENDBRANCH  26  31
ENDBRANCH  24  25
ENDBRANCH  23  24
ENDBRANCH   6  23
TORSDOF 10
ENDMDL
MODEL 4
REMARK VINA RESULT:     -11.8      1.560      2.650
REMARK  Name = 51049992
REMARK  10 active torsions:
REMARK  status: ('A' for Active; 'I' for Inactive)
REMARK    1  A    between atoms: C_1  and  C_7
REMARK    2  A    between atoms: C_6  and  C_23
REMARK    3  A    between atoms: C_7  and  N_8
REMARK    4  A    between atoms: C_23  and  O_24
REMARK    5  A    between atoms: O_24  and  C_25
REMARK    6  A    between atoms: C_26  and  C_31
REMARK    7  A    between atoms: C_31  and  C_32
REMARK    8  A    between atoms: C_31  and  C_35
REMARK    9  A    between atoms: C_35  and  C_37
REMARK   10  A    between atoms: C_37  and  O_38
REMARK                            x       y       z     vdW  Elec       q    Type
REMARK                         _______ _______ _______ _____ _____    ______ ____
ROOT
ATOM      1  C   UNL     1      34.787 -17.913 -23.267  0.00  0.00    -0.043 C 
ATOM      2  C   UNL     1      33.808 -18.784 -22.788  0.00  0.00    -0.007 C 
ATOM      3  C   UNL     1      36.071 -17.940 -22.721  0.00  0.00    -0.007 C 
ATOM      4  C   UNL     1      34.112 -19.681 -21.765  0.00  0.00    -0.001 C 
ATOM      5  C   UNL     1      36.375 -18.837 -21.698  0.00  0.00    -0.001 C 
ATOM      6  C   UNL     1      35.396 -19.708 -21.220  0.00  0.00    +0.021 C 
ENDROOT
BRANCH   1   7
ATOM      7  C   UNL     1      34.457 -16.944 -24.371  0.00  0.00    -0.050 C 
BRANCH   7   8
ATOM      8  N   UNL     1      33.744 -15.769 -23.870  0.00  0.00    +0.390 N 
ATOM      9  C   UNL     1      33.211 -12.889 -23.537  0.00  0.00    +0.033 C 
ATOM     10  C   UNL     1      32.386 -13.789 -24.474  0.00  0.00    -0.015 C 
ATOM     11  C   UNL     1      33.884 -13.746 -22.449  0.00  0.00    -0.015 C 
ATOM     12  C   UNL     1      34.631 -14.948 -23.035  0.00  0.00    -0.076 C 
ATOM     13  C   UNL     1      33.190 -14.990 -24.984  0.00  0.00    -0.076 C 
ATOM     14  C   UNL     1      32.371 -11.779 -22.940  0.00  0.00    -0.019 C 
ATOM     15  C   UNL     1      34.234 -12.059 -24.310  0.00  0.00    -0.023 C 
ATOM     16  C   UNL     1      32.880 -10.534 -23.341  0.00  0.00    -0.004 C 
ATOM     17  C   UNL     1      34.036 -10.737 -24.191  0.00  0.00    -0.005 C 
ATOM     18  C   UNL     1      31.259 -11.858 -22.117  0.00  0.00    -0.004 C 
ATOM     19  C   UNL     1      32.290  -9.350 -22.931  0.00  0.00    -0.000 C 
ATOM     20  C   UNL     1      30.657 -10.669 -21.698  0.00  0.00    -0.000 C 
ATOM     21  C   UNL     1      31.169  -9.425 -22.101  0.00  0.00    -0.000 C 
ATOM     22  H   UNL     1      32.967 -16.080 -23.288  0.00  0.00    -0.079 HD
ENDBRANCH   7   8
ENDBRANCH   1   7
BRANCH   6  23
ATOM     23  C   UNL     1      35.723 -20.669 -20.128  0.00  0.00    +0.232 C 
BRANCH  23  24
ATOM     24  O   UNL     1      34.581 -21.470 -19.846  0.00  0.00    -0.471 OA
BRANCH  24  25
ATOM     25  C   UNL     1      34.532 -22.061 -18.611  0.00  0.00    +0.139 C 
ATOM     26  C   UNL     1      34.430 -23.261 -16.094  0.00  0.00    -0.010 C 
ATOM     27  C   UNL     1      33.373 -22.718 -18.197  0.00  0.00    +0.037 C 
ATOM     28  C   UNL     1      35.640 -22.003 -17.765  0.00  0.00    +0.037 C 
ATOM     29  C   UNL     1      33.323 -23.319 -16.939  0.00  0.00    -0.000 C 
ATOM     30  C   UNL     1      35.589 -22.603 -16.507  0.00  0.00    -0.000 C 
BRANCH  26  31
ATOM     31  C   UNL     1      34.377 -23.902 -14.749  0.00  0.00    +0.097 C 
BRANCH  31  32
ATOM     32  C   UNL     1      32.977 -24.196 -14.335  0.00  0.00    -0.087 C 
ATOM     33  C   UNL     1      31.849 -24.421 -13.988  0.00  0.00    -0.090 C 
ATOM     34  C   UNL     1      30.478 -24.696 -13.563  0.00  0.00    +0.090 C 
ENDBRANCH  31  32
BRANCH  31  35
ATOM     35  C   UNL     1      35.234 -25.195 -14.677  0.00  0.00    +0.127 C 
BRANCH  35  37
ATOM     36  O   UNL     1      37.128 -24.274 -13.444  0.00  0.00    -0.250 OA
ATOM     37  C   UNL     1      36.310 -25.168 -13.609  0.00  0.00    +0.315 C 
BRANCH  37  38
ATOM     38  O   UNL     1      36.253 -26.274 -12.822  0.00  0.00    -0.480 OA
ATOM     39  H   UNL     1      37.036 -26.622 -12.445  0.00  0.00    +0.295 HD
ENDBRANCH  37  38
ENDBRANCH  35  37
ENDBRANCH  31  35
ENDBRANCH  26  31
ENDBRANCH  24  25
ENDBRANCH  23  24
ENDBRANCH   6  23
TORSDOF 10
ENDMDL
MODEL 5
REMARK VINA RESULT:     -11.8      2.399      4.608
REMARK  Name = 51049992
REMARK  10 active torsions:
REMARK  status: ('A' for Active; 'I' for Inactive)
REMARK    1  A    between atoms: C_1  and  C_7
REMARK    2  A    between atoms: C_6  and  C_23
REMARK    3  A    between atoms: C_7  and  N_8
REMARK    4  A    between atoms: C_23  and  O_24
REMARK    5  A    between atoms: O_24  and  C_25
REMARK    6  A    between atoms: C_26  and  C_31
REMARK    7  A    between atoms: C_31  and  C_32
REMARK    8  A    between atoms: C_31  and  C_35
REMARK    9  A    between atoms: C_35  and  C_37
REMARK   10  A    between atoms: C_37  and  O_38
REMARK                            x       y       z     vdW  Elec       q    Type
REMARK                         _______ _______ _______ _____ _____    ______ ____
ROOT
ATOM      1  C   UNL     1      33.812 -14.389 -23.475  0.00  0.00    -0.043 C 
ATOM      2  C   UNL     1      34.014 -15.609 -24.121  0.00  0.00    -0.007 C 
ATOM      3  C   UNL     1      34.076 -14.272 -22.110  0.00  0.00    -0.007 C 
ATOM      4  C   UNL     1      34.481 -16.709 -23.404  0.00  0.00    -0.001 C 
ATOM      5  C   UNL     1      34.543 -15.373 -21.392  0.00  0.00    -0.001 C 
ATOM      6  C   UNL     1      34.746 -16.591 -22.039  0.00  0.00    +0.021 C 
ENDROOT
BRANCH   1   7
ATOM      7  C   UNL     1      33.308 -13.202 -24.250  0.00  0.00    -0.050 C 
BRANCH   7   8
ATOM      8  N   UNL     1      33.199 -12.009 -23.409  0.00  0.00    +0.390 N 
ATOM      9  C   UNL     1      32.149  -9.374 -22.605  0.00  0.00    +0.033 C 
ATOM     10  C   UNL     1      31.732 -10.686 -21.915  0.00  0.00    -0.015 C 
ATOM     11  C   UNL     1      33.516  -9.555 -23.291  0.00  0.00    -0.015 C 
ATOM     12  C   UNL     1      33.562 -10.807 -24.173  0.00  0.00    -0.076 C 
ATOM     13  C   UNL     1      31.846 -11.896 -22.850  0.00  0.00    -0.076 C 
ATOM     14  C   UNL     1      32.155  -8.208 -21.639  0.00  0.00    -0.019 C 
ATOM     15  C   UNL     1      31.085  -8.894 -23.591  0.00  0.00    -0.023 C 
ATOM     16  C   UNL     1      31.224  -7.244 -22.057  0.00  0.00    -0.004 C 
ATOM     17  C   UNL     1      30.574  -7.696 -23.271  0.00  0.00    -0.005 C 
ATOM     18  C   UNL     1      32.912  -8.013 -20.495  0.00  0.00    -0.004 C 
ATOM     19  C   UNL     1      31.031  -6.073 -21.343  0.00  0.00    -0.000 C 
ATOM     20  C   UNL     1      32.725  -6.834 -19.769  0.00  0.00    -0.000 C 
ATOM     21  C   UNL     1      31.793  -5.872 -20.189  0.00  0.00    -0.000 C 
ATOM     22  H   UNL     1      33.853 -12.094 -22.632  0.00  0.00    -0.079 HD
ENDBRANCH   7   8
ENDBRANCH   1   7
BRANCH   6  23
ATOM     23  C   UNL     1      35.248 -17.767 -21.272  0.00  0.00    +0.232 C 
BRANCH  23  24
ATOM     24  O   UNL     1      34.655 -18.955 -21.785  0.00  0.00    -0.471 OA
BRANCH  24  25
ATOM     25  C   UNL     1      34.270 -19.898 -20.869  0.00  0.00    +0.139 C 
ATOM     26  C   UNL     1      33.486 -21.816 -19.001  0.00  0.00    -0.010 C 
ATOM     27  C   UNL     1      32.916 -20.091 -20.593  0.00  0.00    +0.037 C 
ATOM     28  C   UNL     1      35.232 -20.663 -20.210  0.00  0.00    +0.037 C 
ATOM     29  C   UNL     1      32.524 -21.051 -19.659  0.00  0.00    -0.000 C 
ATOM     30  C   UNL     1      34.840 -21.622 -19.275  0.00  0.00    -0.000 C 
BRANCH  26  31
ATOM     31  C   UNL     1      33.068 -22.842 -18.002  0.00  0.00    +0.097 C 
BRANCH  31  32
ATOM     32  C   UNL     1      34.087 -23.012 -16.929  0.00  0.00    -0.087 C 
ATOM     33  C   UNL     1      34.919 -23.136 -16.071  0.00  0.00    -0.090 C 
ATOM     34  C   UNL     1      35.932 -23.289 -15.029  0.00  0.00    +0.090 C 
ENDBRANCH  31  32
BRANCH  31  35
ATOM     35  C   UNL     1      31.684 -22.525 -17.374  0.00  0.00    +0.127 C 
BRANCH  35  37
ATOM     36  O   UNL     1      31.680 -22.852 -14.956  0.00  0.00    -0.250 OA
ATOM     37  C   UNL     1      31.408 -23.259 -16.076  0.00  0.00    +0.315 C 
BRANCH  37  38
ATOM     38  O   UNL     1      30.794 -24.450 -16.304  0.00  0.00    -0.480 OA
ATOM     39  H   UNL     1      31.281 -25.169 -16.653  0.00  0.00    +0.295 HD
ENDBRANCH  37  38
ENDBRANCH  35  37
ENDBRANCH  31  35
ENDBRANCH  26  31
ENDBRANCH  24  25
ENDBRANCH  23  24
ENDBRANCH   6  23
TORSDOF 10
ENDMDL
MODEL 6
REMARK VINA RESULT:     -11.7      3.546     13.227
REMARK  Name = 51049992
REMARK  10 active torsions:
REMARK  status: ('A' for Active; 'I' for Inactive)
REMARK    1  A    between atoms: C_1  and  C_7
REMARK    2  A    between atoms: C_6  and  C_23
REMARK    3  A    between atoms: C_7  and  N_8
REMARK    4  A    between atoms: C_23  and  O_24
REMARK    5  A    between atoms: O_24  and  C_25
REMARK    6  A    between atoms: C_26  and  C_31
REMARK    7  A    between atoms: C_31  and  C_32
REMARK    8  A    between atoms: C_31  and  C_35
REMARK    9  A    between atoms: C_35  and  C_37
REMARK   10  A    between atoms: C_37  and  O_38
REMARK                            x       y       z     vdW  Elec       q    Type
REMARK                         _______ _______ _______ _____ _____    ______ ____
ROOT
ATOM      1  C   UNL     1      33.335 -21.698 -19.171  0.00  0.00    -0.043 C 
ATOM      2  C   UNL     1      32.541 -20.766 -19.841  0.00  0.00    -0.007 C 
ATOM      3  C   UNL     1      34.713 -21.724 -19.388  0.00  0.00    -0.007 C 
ATOM      4  C   UNL     1      33.126 -19.860 -20.726  0.00  0.00    -0.001 C 
ATOM      5  C   UNL     1      35.297 -20.818 -20.273  0.00  0.00    -0.001 C 
ATOM      6  C   UNL     1      34.503 -19.887 -20.942  0.00  0.00    +0.021 C 
ENDROOT
BRANCH   1   7
ATOM      7  C   UNL     1      32.703 -22.675 -18.216  0.00  0.00    -0.050 C 
BRANCH   7   8
ATOM      8  N   UNL     1      33.477 -22.806 -16.981  0.00  0.00    +0.390 N 
ATOM      9  C   UNL     1      35.214 -24.172 -15.031  0.00  0.00    +0.033 C 
ATOM     10  C   UNL     1      35.733 -23.095 -16.001  0.00  0.00    -0.015 C 
ATOM     11  C   UNL     1      33.698 -24.005 -14.826  0.00  0.00    -0.015 C 
ATOM     12  C   UNL     1      32.940 -23.895 -16.153  0.00  0.00    -0.076 C 
ATOM     13  C   UNL     1      34.898 -23.019 -17.285  0.00  0.00    -0.076 C 
ATOM     14  C   UNL     1      35.966 -24.153 -13.716  0.00  0.00    -0.019 C 
ATOM     15  C   UNL     1      35.564 -25.579 -15.513  0.00  0.00    -0.023 C 
ATOM     16  C   UNL     1      36.621 -25.380 -13.528  0.00  0.00    -0.004 C 
ATOM     17  C   UNL     1      36.355 -26.247 -14.659  0.00  0.00    -0.005 C 
ATOM     18  C   UNL     1      36.063 -23.146 -12.770  0.00  0.00    -0.004 C 
ATOM     19  C   UNL     1      37.384 -25.623 -12.398  0.00  0.00    -0.000 C 
ATOM     20  C   UNL     1      36.830 -23.381 -11.626  0.00  0.00    -0.000 C 
ATOM     21  C   UNL     1      37.485 -24.610 -11.441  0.00  0.00    -0.000 C 
ATOM     22  H   UNL     1      33.396 -21.940 -16.450  0.00  0.00    -0.079 HD
ENDBRANCH   7   8
ENDBRANCH   1   7
BRANCH   6  23
ATOM     23  C   UNL     1      35.129 -18.916 -21.886  0.00  0.00    +0.232 C 
BRANCH  23  24
ATOM     24  O   UNL     1      35.447 -17.717 -21.190  0.00  0.00    -0.471 OA
BRANCH  24  25
ATOM     25  C   UNL     1      34.939 -16.552 -21.702  0.00  0.00    +0.139 C 
ATOM     26  C   UNL     1      33.903 -14.182 -22.747  0.00  0.00    -0.010 C 
ATOM     27  C   UNL     1      34.563 -15.518 -20.846  0.00  0.00    +0.037 C 
ATOM     28  C   UNL     1      34.796 -16.402 -23.082  0.00  0.00    +0.037 C 
ATOM     29  C   UNL     1      34.045 -14.333 -21.368  0.00  0.00    -0.000 C 
ATOM     30  C   UNL     1      34.278 -15.217 -23.604  0.00  0.00    -0.000 C 
BRANCH  26  31
ATOM     31  C   UNL     1      33.349 -12.915 -23.306  0.00  0.00    +0.097 C 
BRANCH  31  32
ATOM     32  C   UNL     1      33.030 -13.047 -24.755  0.00  0.00    -0.087 C 
ATOM     33  C   UNL     1      32.764 -13.168 -25.921  0.00  0.00    -0.090 C 
ATOM     34  C   UNL     1      32.443 -13.317 -27.338  0.00  0.00    +0.090 C 
ENDBRANCH  31  32
BRANCH  31  35
ATOM     35  C   UNL     1      32.097 -12.425 -22.530  0.00  0.00    +0.127 C 
BRANCH  35  37
ATOM     36  O   UNL     1      32.668 -10.111 -23.058  0.00  0.00    -0.250 OA
ATOM     37  C   UNL     1      31.933 -10.917 -22.506  0.00  0.00    +0.315 C 
BRANCH  37  38
ATOM     38  O   UNL     1      30.835 -10.552 -21.793  0.00  0.00    -0.480 OA
ATOM     39  H   UNL     1      29.979 -10.741 -22.121  0.00  0.00    +0.295 HD
ENDBRANCH  37  38
ENDBRANCH  35  37
ENDBRANCH  31  35
ENDBRANCH  26  31
ENDBRANCH  24  25
ENDBRANCH  23  24
ENDBRANCH   6  23
TORSDOF 10
ENDMDL
MODEL 7
REMARK VINA RESULT:     -11.6      1.898      2.570
REMARK  Name = 51049992
REMARK  10 active torsions:
REMARK  status: ('A' for Active; 'I' for Inactive)
REMARK    1  A    between atoms: C_1  and  C_7
REMARK    2  A    between atoms: C_6  and  C_23
REMARK    3  A    between atoms: C_7  and  N_8
REMARK    4  A    between atoms: C_23  and  O_24
REMARK    5  A    between atoms: O_24  and  C_25
REMARK    6  A    between atoms: C_26  and  C_31
REMARK    7  A    between atoms: C_31  and  C_32
REMARK    8  A    between atoms: C_31  and  C_35
REMARK    9  A    between atoms: C_35  and  C_37
REMARK   10  A    between atoms: C_37  and  O_38
REMARK                            x       y       z     vdW  Elec       q    Type
REMARK                         _______ _______ _______ _____ _____    ______ ____
ROOT
ATOM      1  C   UNL     1      34.874 -18.060 -22.979  0.00  0.00    -0.043 C 
ATOM      2  C   UNL     1      36.156 -18.214 -22.449  0.00  0.00    -0.007 C 
ATOM      3  C   UNL     1      33.813 -18.804 -22.461  0.00  0.00    -0.007 C 
ATOM      4  C   UNL     1      36.376 -19.110 -21.403  0.00  0.00    -0.001 C 
ATOM      5  C   UNL     1      34.033 -19.700 -21.415  0.00  0.00    -0.001 C 
ATOM      6  C   UNL     1      35.314 -19.853 -20.887  0.00  0.00    +0.021 C 
ENDROOT
BRANCH   1   7
ATOM      7  C   UNL     1      34.638 -17.093 -24.107  0.00  0.00    -0.050 C 
BRANCH   7   8
ATOM      8  N   UNL     1      33.887 -15.916 -23.667  0.00  0.00    +0.390 N 
ATOM      9  C   UNL     1      33.271 -13.040 -23.473  0.00  0.00    +0.033 C 
ATOM     10  C   UNL     1      32.482 -14.005 -24.376  0.00  0.00    -0.015 C 
ATOM     11  C   UNL     1      33.956 -13.827 -22.340  0.00  0.00    -0.015 C 
ATOM     12  C   UNL     1      34.742 -15.033 -22.863  0.00  0.00    -0.076 C 
ATOM     13  C   UNL     1      33.324 -15.205 -24.822  0.00  0.00    -0.076 C 
ATOM     14  C   UNL     1      32.395 -11.928 -22.936  0.00  0.00    -0.019 C 
ATOM     15  C   UNL     1      34.280 -12.218 -24.274  0.00  0.00    -0.023 C 
ATOM     16  C   UNL     1      32.874 -10.689 -23.389  0.00  0.00    -0.004 C 
ATOM     17  C   UNL     1      34.045 -10.898 -24.218  0.00  0.00    -0.005 C 
ATOM     18  C   UNL     1      31.276 -12.000 -22.122  0.00  0.00    -0.004 C 
ATOM     19  C   UNL     1      32.247  -9.504 -23.040  0.00  0.00    -0.000 C 
ATOM     20  C   UNL     1      30.638 -10.810 -21.763  0.00  0.00    -0.000 C 
ATOM     21  C   UNL     1      31.119  -9.573 -22.219  0.00  0.00    -0.000 C 
ATOM     22  H   UNL     1      33.112 -16.222 -23.080  0.00  0.00    -0.079 HD
ENDBRANCH   7   8
ENDBRANCH   1   7
BRANCH   6  23
ATOM     23  C   UNL     1      35.549 -20.809 -19.766  0.00  0.00    +0.232 C 
BRANCH  23  24
ATOM     24  O   UNL     1      34.506 -21.777 -19.745  0.00  0.00    -0.471 OA
BRANCH  24  25
ATOM     25  C   UNL     1      34.204 -22.332 -18.529  0.00  0.00    +0.139 C 
ATOM     26  C   UNL     1      33.589 -23.460 -16.053  0.00  0.00    -0.010 C 
ATOM     27  C   UNL     1      32.923 -22.829 -18.287  0.00  0.00    +0.037 C 
ATOM     28  C   UNL     1      35.177 -22.399 -17.532  0.00  0.00    +0.037 C 
ATOM     29  C   UNL     1      32.616 -23.393 -17.049  0.00  0.00    -0.000 C 
ATOM     30  C   UNL     1      34.870 -22.963 -16.294  0.00  0.00    -0.000 C 
BRANCH  26  31
ATOM     31  C   UNL     1      33.261 -24.063 -14.729  0.00  0.00    +0.097 C 
BRANCH  31  32
ATOM     32  C   UNL     1      34.363 -23.866 -13.747  0.00  0.00    -0.087 C 
ATOM     33  C   UNL     1      35.264 -23.705 -12.968  0.00  0.00    -0.090 C 
ATOM     34  C   UNL     1      36.360 -23.512 -12.021  0.00  0.00    +0.090 C 
ENDBRANCH  31  32
BRANCH  31  35
ATOM     35  C   UNL     1      31.928 -23.520 -14.147  0.00  0.00    +0.127 C 
BRANCH  35  37
ATOM     36  O   UNL     1      30.383 -25.241 -14.928  0.00  0.00    -0.250 OA
ATOM     37  C   UNL     1      30.837 -24.565 -14.015  0.00  0.00    +0.315 C 
BRANCH  37  38
ATOM     38  O   UNL     1      30.418 -24.681 -12.727  0.00  0.00    -0.480 OA
ATOM     39  H   UNL     1      29.564 -25.016 -12.542  0.00  0.00    +0.295 HD
ENDBRANCH  37  38
ENDBRANCH  35  37
ENDBRANCH  31  35
ENDBRANCH  26  31
ENDBRANCH  24  25
ENDBRANCH  23  24
ENDBRANCH   6  23
TORSDOF 10
ENDMDL
MODEL 8
REMARK VINA RESULT:     -11.5      1.751      3.314
REMARK  Name = 51049992
REMARK  10 active torsions:
REMARK  status: ('A' for Active; 'I' for Inactive)
REMARK    1  A    between atoms: C_1  and  C_7
REMARK    2  A    between atoms: C_6  and  C_23
REMARK    3  A    between atoms: C_7  and  N_8
REMARK    4  A    between atoms: C_23  and  O_24
REMARK    5  A    between atoms: O_24  and  C_25
REMARK    6  A    between atoms: C_26  and  C_31
REMARK    7  A    between atoms: C_31  and  C_32
REMARK    8  A    between atoms: C_31  and  C_35
REMARK    9  A    between atoms: C_35  and  C_37
REMARK   10  A    between atoms: C_37  and  O_38
REMARK                            x       y       z     vdW  Elec       q    Type
REMARK                         _______ _______ _______ _____ _____    ______ ____
ROOT
ATOM      1  C   UNL     1      34.216 -17.768 -23.633  0.00  0.00    -0.043 C 
ATOM      2  C   UNL     1      35.524 -17.467 -23.252  0.00  0.00    -0.007 C 
ATOM      3  C   UNL     1      33.508 -18.768 -22.965  0.00  0.00    -0.007 C 
ATOM      4  C   UNL     1      36.123 -18.165 -22.204  0.00  0.00    -0.001 C 
ATOM      5  C   UNL     1      34.108 -19.466 -21.917  0.00  0.00    -0.001 C 
ATOM      6  C   UNL     1      35.415 -19.164 -21.536  0.00  0.00    +0.021 C 
ENDROOT
BRANCH   1   7
ATOM      7  C   UNL     1      33.570 -17.015 -24.765  0.00  0.00    -0.050 C 
BRANCH   7   8
ATOM      8  N   UNL     1      33.862 -15.583 -24.702  0.00  0.00    +0.390 N 
ATOM      9  C   UNL     1      33.375 -12.770 -23.965  0.00  0.00    +0.033 C 
ATOM     10  C   UNL     1      34.387 -13.665 -23.226  0.00  0.00    -0.015 C 
ATOM     11  C   UNL     1      33.133 -13.316 -25.384  0.00  0.00    -0.015 C 
ATOM     12  C   UNL     1      32.812 -14.814 -25.384  0.00  0.00    -0.076 C 
ATOM     13  C   UNL     1      34.018 -15.150 -23.308  0.00  0.00    -0.076 C 
ATOM     14  C   UNL     1      33.816 -11.322 -23.987  0.00  0.00    -0.019 C 
ATOM     15  C   UNL     1      32.068 -12.636 -23.185  0.00  0.00    -0.023 C 
ATOM     16  C   UNL     1      32.873 -10.531 -23.313  0.00  0.00    -0.004 C 
ATOM     17  C   UNL     1      31.798 -11.372 -22.825  0.00  0.00    -0.005 C 
ATOM     18  C   UNL     1      34.946 -10.751 -24.550  0.00  0.00    -0.004 C 
ATOM     19  C   UNL     1      33.039  -9.161 -23.188  0.00  0.00    -0.000 C 
ATOM     20  C   UNL     1      35.123  -9.370 -24.430  0.00  0.00    -0.000 C 
ATOM     21  C   UNL     1      34.177  -8.582 -23.755  0.00  0.00    -0.000 C 
ATOM     22  H   UNL     1      34.742 -15.406 -25.185  0.00  0.00    -0.079 HD
ENDBRANCH   7   8
ENDBRANCH   1   7
BRANCH   6  23
ATOM     23  C   UNL     1      36.054 -19.908 -20.413  0.00  0.00    +0.232 C 
BRANCH  23  24
ATOM     24  O   UNL     1      35.569 -21.246 -20.395  0.00  0.00    -0.471 OA
BRANCH  24  25
ATOM     25  C   UNL     1      35.251 -21.770 -19.171  0.00  0.00    +0.139 C 
ATOM     26  C   UNL     1      34.600 -22.836 -16.676  0.00  0.00    -0.010 C 
ATOM     27  C   UNL     1      33.993 -22.336 -18.960  0.00  0.00    +0.037 C 
ATOM     28  C   UNL     1      36.183 -21.737 -18.133  0.00  0.00    +0.037 C 
ATOM     29  C   UNL     1      33.668 -22.869 -17.712  0.00  0.00    -0.000 C 
ATOM     30  C   UNL     1      35.857 -22.269 -16.886  0.00  0.00    -0.000 C 
BRANCH  26  31
ATOM     31  C   UNL     1      34.254 -23.405 -15.341  0.00  0.00    +0.097 C 
BRANCH  31  32
ATOM     32  C   UNL     1      32.799 -23.278 -15.050  0.00  0.00    -0.087 C 
ATOM     33  C   UNL     1      31.622 -23.185 -14.830  0.00  0.00    -0.090 C 
ATOM     34  C   UNL     1      30.189 -23.069 -14.565  0.00  0.00    +0.090 C 
ENDBRANCH  31  32
BRANCH  31  35
ATOM     35  C   UNL     1      34.697 -24.886 -15.199  0.00  0.00    +0.127 C 
BRANCH  35  37
ATOM     36  O   UNL     1      36.497 -24.659 -13.567  0.00  0.00    -0.250 OA
ATOM     37  C   UNL     1      36.099 -25.065 -14.650  0.00  0.00    +0.315 C 
BRANCH  37  38
ATOM     38  O   UNL     1      36.884 -25.759 -15.515  0.00  0.00    -0.480 OA
ATOM     39  H   UNL     1      37.597 -25.332 -15.946  0.00  0.00    +0.295 HD
ENDBRANCH  37  38
ENDBRANCH  35  37
ENDBRANCH  31  35
ENDBRANCH  26  31
ENDBRANCH  24  25
ENDBRANCH  23  24
ENDBRANCH   6  23
TORSDOF 10
ENDMDL
MODEL 9
REMARK VINA RESULT:     -11.5      2.421      3.930
REMARK  Name = 51049992
REMARK  10 active torsions:
REMARK  status: ('A' for Active; 'I' for Inactive)
REMARK    1  A    between atoms: C_1  and  C_7
REMARK    2  A    between atoms: C_6  and  C_23
REMARK    3  A    between atoms: C_7  and  N_8
REMARK    4  A    between atoms: C_23  and  O_24
REMARK    5  A    between atoms: O_24  and  C_25
REMARK    6  A    between atoms: C_26  and  C_31
REMARK    7  A    between atoms: C_31  and  C_32
REMARK    8  A    between atoms: C_31  and  C_35
REMARK    9  A    between atoms: C_35  and  C_37
REMARK   10  A    between atoms: C_37  and  O_38
REMARK                            x       y       z     vdW  Elec       q    Type
REMARK                         _______ _______ _______ _____ _____    ______ ____
ROOT
ATOM      1  C   UNL     1      33.511 -16.348 -25.463  0.00  0.00    -0.043 C 
ATOM      2  C   UNL     1      32.957 -17.605 -25.709  0.00  0.00    -0.007 C 
ATOM      3  C   UNL     1      34.403 -16.175 -24.404  0.00  0.00    -0.007 C 
ATOM      4  C   UNL     1      33.295 -18.687 -24.896  0.00  0.00    -0.001 C 
ATOM      5  C   UNL     1      34.741 -17.257 -23.592  0.00  0.00    -0.001 C 
ATOM      6  C   UNL     1      34.187 -18.513 -23.838  0.00  0.00    +0.021 C 
ENDROOT
BRANCH   1   7
ATOM      7  C   UNL     1      33.146 -15.181 -26.341  0.00  0.00    -0.050 C 
BRANCH   7   8
ATOM      8  N   UNL     1      32.905 -13.968 -25.560  0.00  0.00    +0.390 N 
ATOM      9  C   UNL     1      33.507 -11.275 -24.523  0.00  0.00    +0.033 C 
ATOM     10  C   UNL     1      32.486 -11.529 -25.647  0.00  0.00    -0.015 C 
ATOM     11  C   UNL     1      33.690 -12.553 -23.685  0.00  0.00    -0.015 C 
ATOM     12  C   UNL     1      33.961 -13.785 -24.555  0.00  0.00    -0.076 C 
ATOM     13  C   UNL     1      32.802 -12.800 -26.443  0.00  0.00    -0.076 C 
ATOM     14  C   UNL     1      33.115 -10.090 -23.664  0.00  0.00    -0.019 C 
ATOM     15  C   UNL     1      34.839 -10.770 -25.076  0.00  0.00    -0.023 C 
ATOM     16  C   UNL     1      34.102  -9.097 -23.750  0.00  0.00    -0.004 C 
ATOM     17  C   UNL     1      35.161  -9.545 -24.633  0.00  0.00    -0.005 C 
ATOM     18  C   UNL     1      31.989  -9.904 -22.878  0.00  0.00    -0.004 C 
ATOM     19  C   UNL     1      33.986  -7.904 -23.056  0.00  0.00    -0.000 C 
ATOM     20  C   UNL     1      31.862  -8.704 -22.174  0.00  0.00    -0.000 C 
ATOM     21  C   UNL     1      32.852  -7.712 -22.262  0.00  0.00    -0.000 C 
ATOM     22  H   UNL     1      32.018 -14.066 -25.067  0.00  0.00    -0.079 HD
ENDBRANCH   7   8
ENDBRANCH   1   7
BRANCH   6  23
ATOM     23  C   UNL     1      34.550 -19.670 -22.971  0.00  0.00    +0.232 C 
BRANCH  23  24
ATOM     24  O   UNL     1      34.579 -19.252 -21.611  0.00  0.00    -0.471 OA
BRANCH  24  25
ATOM     25  C   UNL     1      34.158 -20.160 -20.676  0.00  0.00    +0.139 C 
ATOM     26  C   UNL     1      33.300 -22.013 -18.776  0.00  0.00    -0.010 C 
ATOM     27  C   UNL     1      35.088 -20.961 -20.013  0.00  0.00    +0.037 C 
ATOM     28  C   UNL     1      32.799 -20.287 -20.389  0.00  0.00    +0.037 C 
ATOM     29  C   UNL     1      34.658 -21.888 -19.062  0.00  0.00    -0.000 C 
ATOM     30  C   UNL     1      32.370 -21.214 -19.439  0.00  0.00    -0.000 C 
BRANCH  26  31
ATOM     31  C   UNL     1      32.840 -23.004 -17.759  0.00  0.00    +0.097 C 
BRANCH  31  32
ATOM     32  C   UNL     1      33.842 -23.182 -16.672  0.00  0.00    -0.087 C 
ATOM     33  C   UNL     1      34.656 -23.309 -15.798  0.00  0.00    -0.090 C 
ATOM     34  C   UNL     1      35.650 -23.465 -14.737  0.00  0.00    +0.090 C 
ENDBRANCH  31  32
BRANCH  31  35
ATOM     35  C   UNL     1      31.460 -22.630 -17.154  0.00  0.00    +0.127 C 
BRANCH  35  37
ATOM     36  O   UNL     1      30.689 -24.570 -15.889  0.00  0.00    -0.250 OA
ATOM     37  C   UNL     1      31.094 -23.416 -15.910  0.00  0.00    +0.315 C 
BRANCH  37  38
ATOM     38  O   UNL     1      31.287 -22.678 -14.785  0.00  0.00    -0.480 OA
ATOM     39  H   UNL     1      30.824 -21.874 -14.667  0.00  0.00    +0.295 HD
ENDBRANCH  37  38
ENDBRANCH  35  37
ENDBRANCH  31  35
ENDBRANCH  26  31
ENDBRANCH  24  25
ENDBRANCH  23  24
ENDBRANCH   6  23
TORSDOF 10
ENDMDL
