MODEL 1
REMARK VINA RESULT:     -12.4      0.000      0.000
REMARK  Name = 446805
REMARK  6 active torsions:
REMARK  status: ('A' for Active; 'I' for Inactive)
REMARK    1  A    between atoms: C_4  and  C_22
REMARK    2  A    between atoms: C_7  and  N_11
REMARK    3  A    between atoms: N_11  and  S_13
REMARK    4  A    between atoms: S_13  and  C_16
REMARK    5  A    between atoms: C_22  and  C_23
REMARK    6  A    between atoms: C_28  and  C_31
REMARK                            x       y       z     vdW  Elec       q    Type
REMARK                         _______ _______ _______ _____ _____    ______ ____
ROOT
ATOM      1  N   UNL     1      34.778 -18.413 -23.955  0.00  0.00    -0.262 N 
ATOM      2  N   UNL     1      34.927 -16.545 -22.762  0.00  0.00    -0.394 NA
ATOM      3  C   UNL     1      34.080 -17.470 -24.664  0.00  0.00    +0.079 C 
ATOM      4  C   UNL     1      35.264 -17.813 -22.828  0.00  0.00    +0.168 C 
ATOM      5  C   UNL     1      34.188 -16.312 -23.900  0.00  0.00    +0.129 C 
ATOM      6  C   UNL     1      33.573 -15.132 -24.351  0.00  0.00    +0.103 C 
ATOM      7  C   UNL     1      32.869 -15.167 -25.561  0.00  0.00    +0.050 C 
ATOM      8  C   UNL     1      33.386 -17.527 -25.874  0.00  0.00    +0.018 C 
ATOM      9  C   UNL     1      34.963 -19.796 -24.336  0.00  0.00    +0.119 C 
ATOM     10  C   UNL     1      32.779 -16.344 -26.308  0.00  0.00    +0.013 C 
ENDROOT
BRANCH   7  11
ATOM     11  N   UNL     1      32.235 -13.979 -26.039  0.00  0.00    -0.219 N 
ATOM     12  H   UNL     1      31.339 -13.712 -25.730  0.00  0.00    +0.173 HD
BRANCH  11  13
ATOM     13  S   UNL     1      33.123 -13.028 -27.189  0.00  0.00    +0.073 S 
ATOM     14  O   UNL     1      32.196 -12.406 -28.115  0.00  0.00    -0.150 OA
ATOM     15  O   UNL     1      34.247 -13.802 -27.681  0.00  0.00    -0.150 OA
BRANCH  13  16
ATOM     16  C   UNL     1      33.791 -11.752 -26.161  0.00  0.00    +0.125 C 
ATOM     17  C   UNL     1      34.772 -10.921 -26.672  0.00  0.00    +0.020 C 
ATOM     18  C   UNL     1      33.318 -11.611 -24.869  0.00  0.00    +0.020 C 
ATOM     19  C   UNL     1      35.298  -9.914 -25.861  0.00  0.00    +0.001 C 
ATOM     20  C   UNL     1      33.843 -10.604 -24.059  0.00  0.00    +0.001 C 
ATOM     21  C   UNL     1      34.834  -9.756 -24.555  0.00  0.00    +0.000 C 
ENDBRANCH  13  16
ENDBRANCH  11  13
ENDBRANCH   7  11
BRANCH   4  22
ATOM     22  C   UNL     1      36.069 -18.548 -21.831  0.00  0.00    +0.101 C 
BRANCH  22  23
ATOM     23  C   UNL     1      35.277 -19.581 -21.039  0.00  0.00    -0.014 C 
ATOM     24  C   UNL     1      35.961 -20.563 -20.354  0.00  0.00    -0.004 C 
ATOM     25  C   UNL     1      33.900 -19.501 -21.031  0.00  0.00    -0.004 C 
ATOM     26  C   UNL     1      35.235 -21.509 -19.628  0.00  0.00    +0.002 C 
ATOM     27  C   UNL     1      33.174 -20.446 -20.307  0.00  0.00    +0.002 C 
ATOM     28  C   UNL     1      33.842 -21.450 -19.605  0.00  0.00    +0.031 C 
BRANCH  28  31
ATOM     29  N   UNL     1      31.888 -22.103 -18.219  0.00  0.00    -0.343 N 
ATOM     30  N   UNL     1      33.534 -23.674 -18.750  0.00  0.00    -0.285 NA
ATOM     31  C   UNL     1      33.085 -22.436 -18.850  0.00  0.00    +0.117 C 
ATOM     32  H   UNL     1      31.392 -22.787 -17.713  0.00  0.00    +0.144 HD
ATOM     33  H   UNL     1      31.538 -21.185 -18.280  0.00  0.00    +0.144 HD
ATOM     34  H   UNL     1      33.024 -24.344 -18.239  0.00  0.00    +0.188 HD
ENDBRANCH  28  31
ENDBRANCH  22  23
ENDBRANCH   4  22
TORSDOF 6
ENDMDL
MODEL 2
REMARK VINA RESULT:     -12.3      5.016     10.598
REMARK  Name = 446805
REMARK  6 active torsions:
REMARK  status: ('A' for Active; 'I' for Inactive)
REMARK    1  A    between atoms: C_4  and  C_22
REMARK    2  A    between atoms: C_7  and  N_11
REMARK    3  A    between atoms: N_11  and  S_13
REMARK    4  A    between atoms: S_13  and  C_16
REMARK    5  A    between atoms: C_22  and  C_23
REMARK    6  A    between atoms: C_28  and  C_31
REMARK                            x       y       z     vdW  Elec       q    Type
REMARK                         _______ _______ _______ _____ _____    ______ ____
ROOT
ATOM      1  N   UNL     1      35.642 -19.020 -22.167  0.00  0.00    -0.262 N 
ATOM      2  N   UNL     1      33.448 -18.894 -22.505  0.00  0.00    -0.394 NA
ATOM      3  C   UNL     1      35.078 -19.829 -21.215  0.00  0.00    +0.079 C 
ATOM      4  C   UNL     1      34.629 -18.484 -22.912  0.00  0.00    +0.168 C 
ATOM      5  C   UNL     1      33.709 -19.735 -21.447  0.00  0.00    +0.129 C 
ATOM      6  C   UNL     1      32.824 -20.458 -20.629  0.00  0.00    +0.103 C 
ATOM      7  C   UNL     1      33.357 -21.251 -19.606  0.00  0.00    +0.050 C 
ATOM      8  C   UNL     1      35.631 -20.614 -20.203  0.00  0.00    +0.018 C 
ATOM      9  C   UNL     1      37.056 -18.778 -22.347  0.00  0.00    +0.119 C 
ATOM     10  C   UNL     1      34.736 -21.327 -19.398  0.00  0.00    +0.013 C 
ENDROOT
BRANCH   7  11
ATOM     11  N   UNL     1      32.476 -21.994 -18.762  0.00  0.00    -0.219 N 
ATOM     12  H   UNL     1      31.504 -21.834 -18.761  0.00  0.00    +0.173 HD
BRANCH  11  13
ATOM     13  S   UNL     1      33.201 -23.196 -17.739  0.00  0.00    +0.073 S 
ATOM     14  O   UNL     1      34.463 -22.693 -17.230  0.00  0.00    -0.150 OA
ATOM     15  O   UNL     1      33.136 -24.486 -18.398  0.00  0.00    -0.150 OA
BRANCH  13  16
ATOM     16  C   UNL     1      32.062 -23.253 -16.387  0.00  0.00    +0.125 C 
ATOM     17  C   UNL     1      30.716 -23.046 -16.632  0.00  0.00    +0.020 C 
ATOM     18  C   UNL     1      32.539 -23.503 -15.113  0.00  0.00    +0.020 C 
ATOM     19  C   UNL     1      29.817 -23.092 -15.565  0.00  0.00    +0.001 C 
ATOM     20  C   UNL     1      31.640 -23.549 -14.047  0.00  0.00    +0.001 C 
ATOM     21  C   UNL     1      30.279 -23.344 -14.273  0.00  0.00    +0.000 C 
ENDBRANCH  13  16
ENDBRANCH  11  13
ENDBRANCH   7  11
BRANCH   4  22
ATOM     22  C   UNL     1      34.884 -17.557 -24.034  0.00  0.00    +0.101 C 
BRANCH  22  23
ATOM     23  C   UNL     1      34.329 -16.155 -23.814  0.00  0.00    -0.014 C 
ATOM     24  C   UNL     1      34.571 -15.524 -22.612  0.00  0.00    -0.004 C 
ATOM     25  C   UNL     1      33.601 -15.562 -24.825  0.00  0.00    -0.004 C 
ATOM     26  C   UNL     1      34.063 -14.240 -22.411  0.00  0.00    +0.002 C 
ATOM     27  C   UNL     1      33.092 -14.279 -24.624  0.00  0.00    +0.002 C 
ATOM     28  C   UNL     1      33.323 -13.618 -23.417  0.00  0.00    +0.031 C 
BRANCH  28  31
ATOM     29  N   UNL     1      31.930 -12.000 -22.148  0.00  0.00    -0.343 N 
ATOM     30  N   UNL     1      33.125 -11.303 -24.032  0.00  0.00    -0.285 NA
ATOM     31  C   UNL     1      32.792 -12.280 -23.207  0.00  0.00    +0.117 C 
ATOM     32  H   UNL     1      31.583 -11.087 -22.025  0.00  0.00    +0.144 HD
ATOM     33  H   UNL     1      31.669 -12.714 -21.524  0.00  0.00    +0.144 HD
ATOM     34  H   UNL     1      32.767 -10.397 -23.893  0.00  0.00    +0.188 HD
ENDBRANCH  28  31
ENDBRANCH  22  23
ENDBRANCH   4  22
TORSDOF 6
ENDMDL
MODEL 3
REMARK VINA RESULT:     -11.9      7.933     13.311
REMARK  Name = 446805
REMARK  6 active torsions:
REMARK  status: ('A' for Active; 'I' for Inactive)
REMARK    1  A    between atoms: C_4  and  C_22
REMARK    2  A    between atoms: C_7  and  N_11
REMARK    3  A    between atoms: N_11  and  S_13
REMARK    4  A    between atoms: S_13  and  C_16
REMARK    5  A    between atoms: C_22  and  C_23
REMARK    6  A    between atoms: C_28  and  C_31
REMARK                            x       y       z     vdW  Elec       q    Type
REMARK                         _______ _______ _______ _____ _____    ______ ____
ROOT
ATOM      1  N   UNL     1      32.652 -23.389 -16.696  0.00  0.00    -0.262 N 
ATOM      2  N   UNL     1      34.766 -22.837 -17.108  0.00  0.00    -0.394 NA
ATOM      3  C   UNL     1      33.277 -23.401 -15.476  0.00  0.00    +0.079 C 
ATOM      4  C   UNL     1      33.582 -23.047 -17.638  0.00  0.00    +0.168 C 
ATOM      5  C   UNL     1      34.595 -23.052 -15.759  0.00  0.00    +0.129 C 
ATOM      6  C   UNL     1      35.524 -22.970 -14.707  0.00  0.00    +0.103 C 
ATOM      7  C   UNL     1      35.084 -23.243 -13.406  0.00  0.00    +0.050 C 
ATOM      8  C   UNL     1      32.818 -23.676 -14.188  0.00  0.00    +0.018 C 
ATOM      9  C   UNL     1      31.259 -23.687 -16.939  0.00  0.00    +0.119 C 
ATOM     10  C   UNL     1      33.755 -23.589 -13.153  0.00  0.00    +0.013 C 
ENDROOT
BRANCH   7  11
ATOM     11  N   UNL     1      36.011 -23.166 -12.322  0.00  0.00    -0.219 N 
ATOM     12  H   UNL     1      36.326 -22.301 -11.971  0.00  0.00    +0.173 HD
BRANCH  11  13
ATOM     13  S   UNL     1      36.555 -24.674 -11.650  0.00  0.00    +0.073 S 
ATOM     14  O   UNL     1      35.410 -25.529 -11.404  0.00  0.00    -0.150 OA
ATOM     15  O   UNL     1      37.515 -24.407 -10.596  0.00  0.00    -0.150 OA
BRANCH  13  16
ATOM     16  C   UNL     1      37.459 -25.365 -13.004  0.00  0.00    +0.125 C 
ATOM     17  C   UNL     1      36.839 -26.290 -13.826  0.00  0.00    +0.020 C 
ATOM     18  C   UNL     1      38.767 -24.967 -13.214  0.00  0.00    +0.020 C 
ATOM     19  C   UNL     1      37.553 -26.834 -14.894  0.00  0.00    +0.001 C 
ATOM     20  C   UNL     1      39.480 -25.511 -14.283  0.00  0.00    +0.001 C 
ATOM     21  C   UNL     1      38.873 -26.445 -15.123  0.00  0.00    +0.000 C 
ENDBRANCH  13  16
ENDBRANCH  11  13
ENDBRANCH   7  11
BRANCH   4  22
ATOM     22  C   UNL     1      33.244 -22.940 -19.073  0.00  0.00    +0.101 C 
BRANCH  22  23
ATOM     23  C   UNL     1      33.788 -21.684 -19.742  0.00  0.00    -0.014 C 
ATOM     24  C   UNL     1      35.154 -21.511 -19.825  0.00  0.00    -0.004 C 
ATOM     25  C   UNL     1      32.897 -20.758 -20.246  0.00  0.00    -0.004 C 
ATOM     26  C   UNL     1      35.652 -20.361 -20.438  0.00  0.00    +0.002 C 
ATOM     27  C   UNL     1      33.394 -19.608 -20.858  0.00  0.00    +0.002 C 
ATOM     28  C   UNL     1      34.772 -19.410 -20.954  0.00  0.00    +0.031 C 
BRANCH  28  31
ATOM     29  N   UNL     1      36.148 -18.286 -22.689  0.00  0.00    -0.343 N 
ATOM     30  N   UNL     1      34.952 -17.020 -21.131  0.00  0.00    -0.285 NA
ATOM     31  C   UNL     1      35.291 -18.211 -21.593  0.00  0.00    +0.117 C 
ATOM     32  H   UNL     1      36.487 -17.461 -23.106  0.00  0.00    +0.144 HD
ATOM     33  H   UNL     1      36.414 -19.163 -23.047  0.00  0.00    +0.144 HD
ATOM     34  H   UNL     1      35.302 -16.207 -21.561  0.00  0.00    +0.188 HD
ENDBRANCH  28  31
ENDBRANCH  22  23
ENDBRANCH   4  22
TORSDOF 6
ENDMDL
MODEL 4
REMARK VINA RESULT:     -11.8      4.366      8.094
REMARK  Name = 446805
REMARK  6 active torsions:
REMARK  status: ('A' for Active; 'I' for Inactive)
REMARK    1  A    between atoms: C_4  and  C_22
REMARK    2  A    between atoms: C_7  and  N_11
REMARK    3  A    between atoms: N_11  and  S_13
REMARK    4  A    between atoms: S_13  and  C_16
REMARK    5  A    between atoms: C_22  and  C_23
REMARK    6  A    between atoms: C_28  and  C_31
REMARK                            x       y       z     vdW  Elec       q    Type
REMARK                         _______ _______ _______ _____ _____    ______ ____
ROOT
ATOM      1  N   UNL     1      34.033 -22.971 -16.741  0.00  0.00    -0.262 N 
ATOM      2  N   UNL     1      32.291 -22.642 -18.081  0.00  0.00    -0.394 NA
ATOM      3  C   UNL     1      34.537 -22.335 -17.847  0.00  0.00    +0.079 C 
ATOM      4  C   UNL     1      32.689 -23.132 -16.929  0.00  0.00    +0.168 C 
ATOM      5  C   UNL     1      33.430 -22.139 -18.668  0.00  0.00    +0.129 C 
ATOM      6  C   UNL     1      33.600 -21.500 -19.907  0.00  0.00    +0.103 C 
ATOM      7  C   UNL     1      34.886 -21.080 -20.271  0.00  0.00    +0.050 C 
ATOM      8  C   UNL     1      35.826 -21.924 -18.188  0.00  0.00    +0.018 C 
ATOM      9  C   UNL     1      34.793 -23.396 -15.587  0.00  0.00    +0.119 C 
ATOM     10  C   UNL     1      35.978 -21.289 -19.425  0.00  0.00    +0.013 C 
ENDROOT
BRANCH   7  11
ATOM     11  N   UNL     1      35.082 -20.428 -21.527  0.00  0.00    -0.219 N 
ATOM     12  H   UNL     1      34.894 -20.883 -22.380  0.00  0.00    +0.173 HD
BRANCH  11  13
ATOM     13  S   UNL     1      35.667 -18.793 -21.475  0.00  0.00    +0.073 S 
ATOM     14  O   UNL     1      37.111 -18.796 -21.604  0.00  0.00    -0.150 OA
ATOM     15  O   UNL     1      35.027 -18.092 -20.378  0.00  0.00    -0.150 OA
BRANCH  13  16
ATOM     16  C   UNL     1      34.998 -18.124 -22.970  0.00  0.00    +0.125 C 
ATOM     17  C   UNL     1      34.554 -18.989 -23.955  0.00  0.00    +0.020 C 
ATOM     18  C   UNL     1      34.930 -16.752 -23.123  0.00  0.00    +0.020 C 
ATOM     19  C   UNL     1      34.025 -18.461 -25.134  0.00  0.00    +0.001 C 
ATOM     20  C   UNL     1      34.401 -16.224 -24.302  0.00  0.00    +0.001 C 
ATOM     21  C   UNL     1      33.949 -17.079 -25.307  0.00  0.00    +0.000 C 
ENDBRANCH  13  16
ENDBRANCH  11  13
ENDBRANCH   7  11
BRANCH   4  22
ATOM     22  C   UNL     1      31.828 -23.787 -15.923  0.00  0.00    +0.101 C 
BRANCH  22  23
ATOM     23  C   UNL     1      30.368 -23.357 -15.985  0.00  0.00    -0.014 C 
ATOM     24  C   UNL     1      29.531 -23.969 -16.894  0.00  0.00    -0.004 C 
ATOM     25  C   UNL     1      29.929 -22.366 -15.131  0.00  0.00    -0.004 C 
ATOM     26  C   UNL     1      28.194 -23.575 -16.952  0.00  0.00    +0.002 C 
ATOM     27  C   UNL     1      28.593 -21.971 -15.188  0.00  0.00    +0.002 C 
ATOM     28  C   UNL     1      27.726 -22.576 -16.099  0.00  0.00    +0.031 C 
BRANCH  28  31
ATOM     29  N   UNL     1      25.775 -21.660 -17.333  0.00  0.00    -0.343 N 
ATOM     30  N   UNL     1      25.570 -22.261 -15.083  0.00  0.00    -0.285 NA
ATOM     31  C   UNL     1      26.332 -22.163 -16.159  0.00  0.00    +0.117 C 
ATOM     32  H   UNL     1      24.829 -21.387 -17.350  0.00  0.00    +0.144 HD
ATOM     33  H   UNL     1      26.326 -21.577 -18.144  0.00  0.00    +0.144 HD
ATOM     34  H   UNL     1      24.627 -21.982 -15.121  0.00  0.00    +0.188 HD
ENDBRANCH  28  31
ENDBRANCH  22  23
ENDBRANCH   4  22
TORSDOF 6
ENDMDL
MODEL 5
REMARK VINA RESULT:     -11.8      3.879      9.901
REMARK  Name = 446805
REMARK  6 active torsions:
REMARK  status: ('A' for Active; 'I' for Inactive)
REMARK    1  A    between atoms: C_4  and  C_22
REMARK    2  A    between atoms: C_7  and  N_11
REMARK    3  A    between atoms: N_11  and  S_13
REMARK    4  A    between atoms: S_13  and  C_16
REMARK    5  A    between atoms: C_22  and  C_23
REMARK    6  A    between atoms: C_28  and  C_31
REMARK                            x       y       z     vdW  Elec       q    Type
REMARK                         _______ _______ _______ _____ _____    ______ ____
ROOT
ATOM      1  N   UNL     1      33.242 -13.622 -25.214  0.00  0.00    -0.262 N 
ATOM      2  N   UNL     1      33.868 -12.758 -23.264  0.00  0.00    -0.394 NA
ATOM      3  C   UNL     1      33.657 -14.688 -24.458  0.00  0.00    +0.079 C 
ATOM      4  C   UNL     1      33.387 -12.493 -24.458  0.00  0.00    +0.168 C 
ATOM      5  C   UNL     1      34.041 -14.124 -23.245  0.00  0.00    +0.129 C 
ATOM      6  C   UNL     1      34.526 -14.958 -22.223  0.00  0.00    +0.103 C 
ATOM      7  C   UNL     1      34.604 -16.335 -22.466  0.00  0.00    +0.050 C 
ATOM      8  C   UNL     1      33.724 -16.057 -24.721  0.00  0.00    +0.018 C 
ATOM      9  C   UNL     1      32.743 -13.686 -26.569  0.00  0.00    +0.119 C 
ATOM     10  C   UNL     1      34.209 -16.873 -23.693  0.00  0.00    +0.013 C 
ENDROOT
BRANCH   7  11
ATOM     11  N   UNL     1      35.094 -17.201 -21.442  0.00  0.00    -0.219 N 
ATOM     12  H   UNL     1      35.062 -16.947 -20.490  0.00  0.00    +0.173 HD
BRANCH  11  13
ATOM     13  S   UNL     1      35.748 -18.726 -21.955  0.00  0.00    +0.073 S 
ATOM     14  O   UNL     1      37.142 -18.806 -21.564  0.00  0.00    -0.150 OA
ATOM     15  O   UNL     1      35.354 -18.976 -23.329  0.00  0.00    -0.150 OA
BRANCH  13  16
ATOM     16  C   UNL     1      34.843 -19.864 -20.948  0.00  0.00    +0.125 C 
ATOM     17  C   UNL     1      33.462 -19.781 -20.914  0.00  0.00    +0.020 C 
ATOM     18  C   UNL     1      35.533 -20.813 -20.216  0.00  0.00    +0.020 C 
ATOM     19  C   UNL     1      32.748 -20.679 -20.120  0.00  0.00    +0.001 C 
ATOM     20  C   UNL     1      34.819 -21.711 -19.423  0.00  0.00    +0.001 C 
ATOM     21  C   UNL     1      33.426 -21.644 -19.374  0.00  0.00    +0.000 C 
ENDBRANCH  13  16
ENDBRANCH  11  13
ENDBRANCH   7  11
BRANCH   4  22
ATOM     22  C   UNL     1      33.032 -11.153 -24.971  0.00  0.00    +0.101 C 
BRANCH  22  23
ATOM     23  C   UNL     1      32.973 -10.077 -23.894  0.00  0.00    -0.014 C 
ATOM     24  C   UNL     1      31.986 -10.149 -22.933  0.00  0.00    -0.004 C 
ATOM     25  C   UNL     1      33.909  -9.063 -23.914  0.00  0.00    -0.004 C 
ATOM     26  C   UNL     1      31.932  -9.163 -21.947  0.00  0.00    +0.002 C 
ATOM     27  C   UNL     1      33.855  -8.077 -22.929  0.00  0.00    +0.002 C 
ATOM     28  C   UNL     1      32.866  -8.127 -21.946  0.00  0.00    +0.031 C 
BRANCH  28  31
ATOM     29  N   UNL     1      32.338  -5.818 -21.201  0.00  0.00    -0.343 N 
ATOM     30  N   UNL     1      33.214  -7.372 -19.691  0.00  0.00    -0.285 NA
ATOM     31  C   UNL     1      32.810  -7.099 -20.919  0.00  0.00    +0.117 C 
ATOM     32  H   UNL     1      32.309  -5.137 -20.490  0.00  0.00    +0.144 HD
ATOM     33  H   UNL     1      32.035  -5.594 -22.110  0.00  0.00    +0.144 HD
ATOM     34  H   UNL     1      33.177  -6.678 -18.994  0.00  0.00    +0.188 HD
ENDBRANCH  28  31
ENDBRANCH  22  23
ENDBRANCH   4  22
TORSDOF 6
ENDMDL
MODEL 6
REMARK VINA RESULT:     -11.7      4.637      7.727
REMARK  Name = 446805
REMARK  6 active torsions:
REMARK  status: ('A' for Active; 'I' for Inactive)
REMARK    1  A    between atoms: C_4  and  C_22
REMARK    2  A    between atoms: C_7  and  N_11
REMARK    3  A    between atoms: N_11  and  S_13
REMARK    4  A    between atoms: S_13  and  C_16
REMARK    5  A    between atoms: C_22  and  C_23
REMARK    6  A    between atoms: C_28  and  C_31
REMARK                            x       y       z     vdW  Elec       q    Type
REMARK                         _______ _______ _______ _____ _____    ______ ____
ROOT
ATOM      1  N   UNL     1      32.786 -22.605 -17.492  0.00  0.00    -0.262 N 
ATOM      2  N   UNL     1      34.989 -22.737 -17.759  0.00  0.00    -0.394 NA
ATOM      3  C   UNL     1      33.059 -21.897 -18.634  0.00  0.00    +0.079 C 
ATOM      4  C   UNL     1      33.970 -23.086 -17.007  0.00  0.00    +0.168 C 
ATOM      5  C   UNL     1      34.440 -21.996 -18.781  0.00  0.00    +0.129 C 
ATOM      6  C   UNL     1      35.060 -21.369 -19.875  0.00  0.00    +0.103 C 
ATOM      7  C   UNL     1      34.258 -20.665 -20.783  0.00  0.00    +0.050 C 
ATOM      8  C   UNL     1      32.242 -21.203 -19.527  0.00  0.00    +0.018 C 
ATOM      9  C   UNL     1      31.479 -22.802 -16.908  0.00  0.00    +0.119 C 
ATOM     10  C   UNL     1      32.874 -20.585 -20.611  0.00  0.00    +0.013 C 
ENDROOT
BRANCH   7  11
ATOM     11  N   UNL     1      34.867 -20.019 -21.903  0.00  0.00    -0.219 N 
ATOM     12  H   UNL     1      34.860 -20.425 -22.800  0.00  0.00    +0.173 HD
BRANCH  11  13
ATOM     13  S   UNL     1      35.619 -18.482 -21.604  0.00  0.00    +0.073 S 
ATOM     14  O   UNL     1      37.049 -18.598 -21.815  0.00  0.00    -0.150 OA
ATOM     15  O   UNL     1      35.100 -17.930 -20.367  0.00  0.00    -0.150 OA
BRANCH  13  16
ATOM     16  C   UNL     1      34.961 -17.499 -22.919  0.00  0.00    +0.125 C 
ATOM     17  C   UNL     1      34.724 -16.153 -22.701  0.00  0.00    +0.020 C 
ATOM     18  C   UNL     1      34.697 -18.094 -24.139  0.00  0.00    +0.020 C 
ATOM     19  C   UNL     1      34.206 -15.377 -23.738  0.00  0.00    +0.001 C 
ATOM     20  C   UNL     1      34.179 -17.319 -25.177  0.00  0.00    +0.001 C 
ATOM     21  C   UNL     1      33.934 -15.960 -24.977  0.00  0.00    +0.000 C 
ENDBRANCH  13  16
ENDBRANCH  11  13
ENDBRANCH   7  11
BRANCH   4  22
ATOM     22  C   UNL     1      34.041 -23.899 -15.774  0.00  0.00    +0.101 C 
BRANCH  22  23
ATOM     23  C   UNL     1      35.452 -24.346 -15.412  0.00  0.00    -0.014 C 
ATOM     24  C   UNL     1      36.427 -23.389 -15.224  0.00  0.00    -0.004 C 
ATOM     25  C   UNL     1      35.710 -25.696 -15.284  0.00  0.00    -0.004 C 
ATOM     26  C   UNL     1      37.719 -23.799 -14.892  0.00  0.00    +0.002 C 
ATOM     27  C   UNL     1      37.001 -26.106 -14.952  0.00  0.00    +0.002 C 
ATOM     28  C   UNL     1      38.005 -25.157 -14.756  0.00  0.00    +0.031 C 
BRANCH  28  31
ATOM     29  N   UNL     1      39.774 -26.895 -14.627  0.00  0.00    -0.343 N 
ATOM     30  N   UNL     1      40.200 -24.723 -13.879  0.00  0.00    -0.285 NA
ATOM     31  C   UNL     1      39.352 -25.585 -14.411  0.00  0.00    +0.117 C 
ATOM     32  H   UNL     1      40.690 -27.163 -14.385  0.00  0.00    +0.144 HD
ATOM     33  H   UNL     1      39.156 -27.554 -15.020  0.00  0.00    +0.144 HD
ATOM     34  H   UNL     1      41.112 -25.010 -13.644  0.00  0.00    +0.188 HD
ENDBRANCH  28  31
ENDBRANCH  22  23
ENDBRANCH   4  22
TORSDOF 6
ENDMDL
MODEL 7
REMARK VINA RESULT:     -11.5      3.260      9.569
REMARK  Name = 446805
REMARK  6 active torsions:
REMARK  status: ('A' for Active; 'I' for Inactive)
REMARK    1  A    between atoms: C_4  and  C_22
REMARK    2  A    between atoms: C_7  and  N_11
REMARK    3  A    between atoms: N_11  and  S_13
REMARK    4  A    between atoms: S_13  and  C_16
REMARK    5  A    between atoms: C_22  and  C_23
REMARK    6  A    between atoms: C_28  and  C_31
REMARK                            x       y       z     vdW  Elec       q    Type
REMARK                         _______ _______ _______ _____ _____    ______ ____
ROOT
ATOM      1  N   UNL     1      32.137 -16.150 -26.800  0.00  0.00    -0.262 N 
ATOM      2  N   UNL     1      33.951 -15.186 -25.951  0.00  0.00    -0.394 NA
ATOM      3  C   UNL     1      32.731 -17.110 -26.022  0.00  0.00    +0.079 C 
ATOM      4  C   UNL     1      32.902 -15.020 -26.726  0.00  0.00    +0.168 C 
ATOM      5  C   UNL     1      33.860 -16.484 -25.502  0.00  0.00    +0.129 C 
ATOM      6  C   UNL     1      34.710 -17.204 -24.645  0.00  0.00    +0.103 C 
ATOM      7  C   UNL     1      34.384 -18.533 -24.344  0.00  0.00    +0.050 C 
ATOM      8  C   UNL     1      32.387 -18.431 -25.735  0.00  0.00    +0.018 C 
ATOM      9  C   UNL     1      30.920 -16.309 -27.563  0.00  0.00    +0.119 C 
ATOM     10  C   UNL     1      33.243 -19.134 -24.880  0.00  0.00    +0.013 C 
ENDROOT
BRANCH   7  11
ATOM     11  N   UNL     1      35.234 -19.284 -23.475  0.00  0.00    -0.219 N 
ATOM     12  H   UNL     1      35.669 -20.117 -23.771  0.00  0.00    +0.173 HD
BRANCH  11  13
ATOM     13  S   UNL     1      35.465 -18.655 -21.873  0.00  0.00    +0.073 S 
ATOM     14  O   UNL     1      34.729 -17.413 -21.735  0.00  0.00    -0.150 OA
ATOM     15  O   UNL     1      36.874 -18.717 -21.534  0.00  0.00    -0.150 OA
BRANCH  13  16
ATOM     16  C   UNL     1      34.647 -19.875 -20.887  0.00  0.00    +0.125 C 
ATOM     17  C   UNL     1      33.265 -19.874 -20.822  0.00  0.00    +0.020 C 
ATOM     18  C   UNL     1      35.406 -20.806 -20.201  0.00  0.00    +0.020 C 
ATOM     19  C   UNL     1      32.620 -20.836 -20.045  0.00  0.00    +0.001 C 
ATOM     20  C   UNL     1      34.761 -21.769 -19.423  0.00  0.00    +0.001 C 
ATOM     21  C   UNL     1      33.368 -21.784 -19.346  0.00  0.00    +0.000 C 
ENDBRANCH  13  16
ENDBRANCH  11  13
ENDBRANCH   7  11
BRANCH   4  22
ATOM     22  C   UNL     1      32.549 -13.782 -27.451  0.00  0.00    +0.101 C 
BRANCH  22  23
ATOM     23  C   UNL     1      33.144 -12.519 -26.841  0.00  0.00    -0.014 C 
ATOM     24  C   UNL     1      32.634 -12.051 -25.648  0.00  0.00    -0.004 C 
ATOM     25  C   UNL     1      34.173 -11.881 -27.502  0.00  0.00    -0.004 C 
ATOM     26  C   UNL     1      33.179 -10.895 -25.089  0.00  0.00    +0.002 C 
ATOM     27  C   UNL     1      34.718 -10.725 -26.945  0.00  0.00    +0.002 C 
ATOM     28  C   UNL     1      34.220 -10.232 -25.738  0.00  0.00    +0.031 C 
BRANCH  28  31
ATOM     29  N   UNL     1      34.640  -7.784 -25.773  0.00  0.00    -0.343 N 
ATOM     30  N   UNL     1      35.462  -9.095 -24.022  0.00  0.00    -0.285 NA
ATOM     31  C   UNL     1      34.788  -9.025 -25.156  0.00  0.00    +0.117 C 
ATOM     32  H   UNL     1      35.032  -6.980 -25.362  0.00  0.00    +0.144 HD
ATOM     33  H   UNL     1      34.143  -7.711 -26.620  0.00  0.00    +0.144 HD
ATOM     34  H   UNL     1      35.847  -8.280 -23.627  0.00  0.00    +0.188 HD
ENDBRANCH  28  31
ENDBRANCH  22  23
ENDBRANCH   4  22
TORSDOF 6
ENDMDL
MODEL 8
REMARK VINA RESULT:     -11.5      2.443      3.036
REMARK  Name = 446805
REMARK  6 active torsions:
REMARK  status: ('A' for Active; 'I' for Inactive)
REMARK    1  A    between atoms: C_4  and  C_22
REMARK    2  A    between atoms: C_7  and  N_11
REMARK    3  A    between atoms: N_11  and  S_13
REMARK    4  A    between atoms: S_13  and  C_16
REMARK    5  A    between atoms: C_22  and  C_23
REMARK    6  A    between atoms: C_28  and  C_31
REMARK                            x       y       z     vdW  Elec       q    Type
REMARK                         _______ _______ _______ _____ _____    ______ ____
ROOT
ATOM      1  N   UNL     1      34.552 -16.800 -24.240  0.00  0.00    -0.262 N 
ATOM      2  N   UNL     1      35.057 -15.950 -22.249  0.00  0.00    -0.394 NA
ATOM      3  C   UNL     1      33.943 -15.571 -24.201  0.00  0.00    +0.079 C 
ATOM      4  C   UNL     1      35.204 -16.980 -23.052  0.00  0.00    +0.168 C 
ATOM      5  C   UNL     1      34.274 -15.061 -22.949  0.00  0.00    +0.129 C 
ATOM      6  C   UNL     1      33.800 -13.790 -22.579  0.00  0.00    +0.103 C 
ATOM      7  C   UNL     1      33.009 -13.082 -23.492  0.00  0.00    +0.050 C 
ATOM      8  C   UNL     1      33.158 -14.883 -25.126  0.00  0.00    +0.018 C 
ATOM      9  C   UNL     1      34.508 -17.734 -25.342  0.00  0.00    +0.119 C 
ATOM     10  C   UNL     1      32.694 -13.620 -24.742  0.00  0.00    +0.013 C 
ENDROOT
BRANCH   7  11
ATOM     11  N   UNL     1      32.515 -11.789 -23.137  0.00  0.00    -0.219 N 
ATOM     12  H   UNL     1      31.829 -11.671 -22.441  0.00  0.00    +0.173 HD
BRANCH  11  13
ATOM     13  S   UNL     1      33.188 -10.435 -23.992  0.00  0.00    +0.073 S 
ATOM     14  O   UNL     1      32.484 -10.263 -25.248  0.00  0.00    -0.150 OA
ATOM     15  O   UNL     1      34.636 -10.526 -23.966  0.00  0.00    -0.150 OA
BRANCH  13  16
ATOM     16  C   UNL     1      32.741  -9.086 -22.938  0.00  0.00    +0.125 C 
ATOM     17  C   UNL     1      32.002  -9.340 -21.795  0.00  0.00    +0.020 C 
ATOM     18  C   UNL     1      33.139  -7.806 -23.276  0.00  0.00    +0.020 C 
ATOM     19  C   UNL     1      31.650  -8.277 -20.964  0.00  0.00    +0.001 C 
ATOM     20  C   UNL     1      32.787  -6.742 -22.445  0.00  0.00    +0.001 C 
ATOM     21  C   UNL     1      32.043  -6.977 -21.288  0.00  0.00    +0.000 C 
ENDBRANCH  13  16
ENDBRANCH  11  13
ENDBRANCH   7  11
BRANCH   4  22
ATOM     22  C   UNL     1      35.970 -18.208 -22.755  0.00  0.00    +0.101 C 
BRANCH  22  23
ATOM     23  C   UNL     1      35.265 -19.157 -21.794  0.00  0.00    -0.014 C 
ATOM     24  C   UNL     1      36.021 -19.868 -20.885  0.00  0.00    -0.004 C 
ATOM     25  C   UNL     1      33.892 -19.276 -21.863  0.00  0.00    -0.004 C 
ATOM     26  C   UNL     1      35.375 -20.738 -20.005  0.00  0.00    +0.002 C 
ATOM     27  C   UNL     1      33.247 -20.145 -20.984  0.00  0.00    +0.002 C 
ATOM     28  C   UNL     1      33.988 -20.876 -20.055  0.00  0.00    +0.031 C 
BRANCH  28  31
ATOM     29  N   UNL     1      31.972 -21.612 -18.806  0.00  0.00    -0.343 N 
ATOM     30  N   UNL     1      33.980 -22.790 -18.602  0.00  0.00    -0.285 NA
ATOM     31  C   UNL     1      33.315 -21.783 -19.139  0.00  0.00    +0.117 C 
ATOM     32  H   UNL     1      31.537 -22.238 -18.183  0.00  0.00    +0.144 HD
ATOM     33  H   UNL     1      31.460 -20.866 -19.193  0.00  0.00    +0.144 HD
ATOM     34  H   UNL     1      33.527 -23.405 -17.981  0.00  0.00    +0.188 HD
ENDBRANCH  28  31
ENDBRANCH  22  23
ENDBRANCH   4  22
TORSDOF 6
ENDMDL
MODEL 9
REMARK VINA RESULT:     -11.5      4.566      7.572
REMARK  Name = 446805
REMARK  6 active torsions:
REMARK  status: ('A' for Active; 'I' for Inactive)
REMARK    1  A    between atoms: C_4  and  C_22
REMARK    2  A    between atoms: C_7  and  N_11
REMARK    3  A    between atoms: N_11  and  S_13
REMARK    4  A    between atoms: S_13  and  C_16
REMARK    5  A    between atoms: C_22  and  C_23
REMARK    6  A    between atoms: C_28  and  C_31
REMARK                            x       y       z     vdW  Elec       q    Type
REMARK                         _______ _______ _______ _____ _____    ______ ____
ROOT
ATOM      1  N   UNL     1      32.397 -22.425 -17.809  0.00  0.00    -0.262 N 
ATOM      2  N   UNL     1      34.568 -22.882 -17.942  0.00  0.00    -0.394 NA
ATOM      3  C   UNL     1      32.853 -21.722 -18.895  0.00  0.00    +0.079 C 
ATOM      4  C   UNL     1      33.458 -23.101 -17.275  0.00  0.00    +0.168 C 
ATOM      5  C   UNL     1      34.211 -22.024 -18.957  0.00  0.00    +0.129 C 
ATOM      6  C   UNL     1      34.994 -21.456 -19.977  0.00  0.00    +0.103 C 
ATOM      7  C   UNL     1      34.373 -20.601 -20.897  0.00  0.00    +0.050 C 
ATOM      8  C   UNL     1      32.215 -20.875 -19.801  0.00  0.00    +0.018 C 
ATOM      9  C   UNL     1      31.037 -22.443 -17.321  0.00  0.00    +0.119 C 
ATOM     10  C   UNL     1      33.008 -20.318 -20.809  0.00  0.00    +0.013 C 
ENDROOT
BRANCH   7  11
ATOM     11  N   UNL     1      35.150 -20.012 -21.941  0.00  0.00    -0.219 N 
ATOM     12  H   UNL     1      35.262 -20.454 -22.814  0.00  0.00    +0.173 HD
BRANCH  11  13
ATOM     13  S   UNL     1      35.885 -18.476 -21.596  0.00  0.00    +0.073 S 
ATOM     14  O   UNL     1      37.298 -18.539 -21.913  0.00  0.00    -0.150 OA
ATOM     15  O   UNL     1      35.442 -18.018 -20.292  0.00  0.00    -0.150 OA
BRANCH  13  16
ATOM     16  C   UNL     1      35.112 -17.430 -22.795  0.00  0.00    +0.125 C 
ATOM     17  C   UNL     1      34.787 -17.953 -24.035  0.00  0.00    +0.020 C 
ATOM     18  C   UNL     1      34.848 -16.112 -22.471  0.00  0.00    +0.020 C 
ATOM     19  C   UNL     1      34.177 -17.128 -24.981  0.00  0.00    +0.001 C 
ATOM     20  C   UNL     1      34.238 -15.288 -23.416  0.00  0.00    +0.001 C 
ATOM     21  C   UNL     1      33.902 -15.796 -24.671  0.00  0.00    +0.000 C 
ENDBRANCH  13  16
ENDBRANCH  11  13
ENDBRANCH   7  11
BRANCH   4  22
ATOM     22  C   UNL     1      33.319 -23.964 -16.083  0.00  0.00    +0.101 C 
BRANCH  22  23
ATOM     23  C   UNL     1      34.604 -24.114 -15.278  0.00  0.00    -0.014 C 
ATOM     24  C   UNL     1      35.289 -25.310 -15.334  0.00  0.00    -0.004 C 
ATOM     25  C   UNL     1      35.041 -23.049 -14.517  0.00  0.00    -0.004 C 
ATOM     26  C   UNL     1      36.466 -25.447 -14.596  0.00  0.00    +0.002 C 
ATOM     27  C   UNL     1      36.216 -23.187 -13.779  0.00  0.00    +0.002 C 
ATOM     28  C   UNL     1      36.929 -24.386 -13.819  0.00  0.00    +0.031 C 
BRANCH  28  31
ATOM     29  N   UNL     1      38.254 -24.042 -11.747  0.00  0.00    -0.343 N 
ATOM     30  N   UNL     1      39.202 -25.129 -13.586  0.00  0.00    -0.285 NA
ATOM     31  C   UNL     1      38.154 -24.529 -13.049  0.00  0.00    +0.117 C 
ATOM     32  H   UNL     1      39.094 -24.150 -11.245  0.00  0.00    +0.144 HD
ATOM     33  H   UNL     1      37.486 -23.590 -11.330  0.00  0.00    +0.144 HD
ATOM     34  H   UNL     1      40.033 -25.227 -13.067  0.00  0.00    +0.188 HD
ENDBRANCH  28  31
ENDBRANCH  22  23
ENDBRANCH   4  22
TORSDOF 6
ENDMDL
