MODEL 1
REMARK VINA RESULT:     -12.8      0.000      0.000
REMARK  Name = 10200651
REMARK  5 active torsions:
REMARK  status: ('A' for Active; 'I' for Inactive)
REMARK    1  A    between atoms: C_1  and  C_7
REMARK    2  A    between atoms: C_4  and  C_22
REMARK    3  A    between atoms: C_10  and  C_17
REMARK    4  A    between atoms: N_21  and  C_24
REMARK    5  A    between atoms: C_27  and  C_31
REMARK                            x       y       z     vdW  Elec       q    Type
REMARK                         _______ _______ _______ _____ _____    ______ ____
ROOT
ATOM      1  C   UNL     1      34.870 -21.852 -18.365  0.00  0.00    -0.000 C 
ATOM      2  C   UNL     1      36.132 -21.393 -18.745  0.00  0.00    +0.000 C 
ATOM      3  C   UNL     1      33.746 -21.504 -19.113  0.00  0.00    +0.000 C 
ATOM      4  C   UNL     1      35.141 -20.258 -20.598  0.00  0.00    +0.054 C 
ATOM      5  C   UNL     1      36.269 -20.587 -19.874  0.00  0.00    +0.005 C 
ATOM      6  C   UNL     1      33.884 -20.698 -20.243  0.00  0.00    +0.005 C 
ENDROOT
BRANCH   1   7
ATOM      7  C   UNL     1      34.728 -22.688 -17.192  0.00  0.00    -0.004 C 
ATOM      8  C   UNL     1      33.481 -23.179 -16.802  0.00  0.00    -0.022 C 
ATOM      9  C   UNL     1      35.864 -23.006 -16.444  0.00  0.00    +0.004 C 
ATOM     10  C   UNL     1      35.753 -23.809 -15.309  0.00  0.00    +0.055 C 
ATOM     11  C   UNL     1      33.370 -23.982 -15.667  0.00  0.00    -0.004 C 
ATOM     12  C   UNL     1      34.505 -24.298 -14.922  0.00  0.00    +0.004 C 
ATOM     13  C   UNL     1      32.242 -22.861 -17.575  0.00  0.00    +0.031 C 
BRANCH  10  17
ATOM     14  O   UNL     1      37.770 -25.036 -15.104  0.00  0.00    -0.420 OA
ATOM     15  N   UNL     1      37.314 -23.702 -13.368  0.00  0.00    -0.107 NA
ATOM     16  N   UNL     1      38.509 -24.348 -13.108  0.00  0.00    -0.111 NA
ATOM     17  C   UNL     1      36.926 -24.135 -14.538  0.00  0.00    +0.250 A 
ATOM     18  C   UNL     1      38.735 -25.117 -14.147  0.00  0.00    +0.227 A 
ATOM     19  C   UNL     1      39.856 -26.026 -14.412  0.00  0.00    +0.097 C 
ENDBRANCH  10  17
ENDBRANCH   1   7
BRANCH   4  22
ATOM     20  O   UNL     1      36.402 -18.953 -22.053  0.00  0.00    -0.270 OA
ATOM     21  N   UNL     1      34.117 -19.201 -22.546  0.00  0.00    -0.280 N 
ATOM     22  C   UNL     1      35.287 -19.398 -21.801  0.00  0.00    +0.249 C 
ATOM     23  H   UNL     1      33.304 -19.634 -22.195  0.00  0.00    +0.155 HD
BRANCH  21  24
ATOM     24  C   UNL     1      33.960 -18.469 -23.724  0.00  0.00    +0.051 C 
ATOM     25  C   UNL     1      33.773 -17.089 -23.667  0.00  0.00    +0.025 C 
ATOM     26  C   UNL     1      33.990 -19.119 -24.957  0.00  0.00    +0.015 C 
ATOM     27  C   UNL     1      33.616 -16.357 -24.845  0.00  0.00    +0.070 C 
ATOM     28  C   UNL     1      33.833 -18.389 -26.135  0.00  0.00    +0.002 C 
ATOM     29  C   UNL     1      33.646 -17.008 -26.078  0.00  0.00    +0.010 C 
BRANCH  27  31
ATOM     30  N   UNL     1      33.269 -13.792 -24.742  0.00  0.00    -0.191 NA
ATOM     31  C   UNL     1      33.425 -14.943 -24.788  0.00  0.00    +0.100 C 
ENDBRANCH  27  31
ENDBRANCH  21  24
ENDBRANCH   4  22
TORSDOF 5
ENDMDL
MODEL 2
REMARK VINA RESULT:     -12.7      2.519     10.904
REMARK  Name = 10200651
REMARK  5 active torsions:
REMARK  status: ('A' for Active; 'I' for Inactive)
REMARK    1  A    between atoms: C_1  and  C_7
REMARK    2  A    between atoms: C_4  and  C_22
REMARK    3  A    between atoms: C_10  and  C_17
REMARK    4  A    between atoms: N_21  and  C_24
REMARK    5  A    between atoms: C_27  and  C_31
REMARK                            x       y       z     vdW  Elec       q    Type
REMARK                         _______ _______ _______ _____ _____    ______ ____
ROOT
ATOM      1  C   UNL     1      34.404 -19.274 -21.997  0.00  0.00    -0.000 C 
ATOM      2  C   UNL     1      35.649 -19.654 -21.494  0.00  0.00    +0.000 C 
ATOM      3  C   UNL     1      33.237 -19.785 -21.432  0.00  0.00    +0.000 C 
ATOM      4  C   UNL     1      34.555 -21.038 -19.884  0.00  0.00    +0.054 C 
ATOM      5  C   UNL     1      35.725 -20.547 -20.425  0.00  0.00    +0.005 C 
ATOM      6  C   UNL     1      33.313 -20.678 -20.363  0.00  0.00    +0.005 C 
ENDROOT
BRANCH   1   7
ATOM      7  C   UNL     1      34.326 -18.347 -23.106  0.00  0.00    -0.004 C 
ATOM      8  C   UNL     1      34.402 -18.794 -24.427  0.00  0.00    -0.022 C 
ATOM      9  C   UNL     1      34.170 -16.985 -22.842  0.00  0.00    +0.004 C 
ATOM     10  C   UNL     1      34.093 -16.072 -23.894  0.00  0.00    +0.055 C 
ATOM     11  C   UNL     1      34.325 -17.881 -25.479  0.00  0.00    -0.004 C 
ATOM     12  C   UNL     1      34.170 -16.521 -25.213  0.00  0.00    +0.004 C 
ATOM     13  C   UNL     1      34.569 -20.243 -24.750  0.00  0.00    +0.031 C 
BRANCH  10  17
ATOM     14  O   UNL     1      33.527 -13.904 -24.668  0.00  0.00    -0.420 OA
ATOM     15  N   UNL     1      34.120 -13.995 -22.514  0.00  0.00    -0.107 NA
ATOM     16  N   UNL     1      33.821 -12.681 -22.819  0.00  0.00    -0.111 NA
ATOM     17  C   UNL     1      33.933 -14.666 -23.620  0.00  0.00    +0.250 A 
ATOM     18  C   UNL     1      33.482 -12.675 -24.087  0.00  0.00    +0.227 A 
ATOM     19  C   UNL     1      33.069 -11.554 -24.940  0.00  0.00    +0.097 C 
ENDBRANCH  10  17
ENDBRANCH   1   7
BRANCH   4  22
ATOM     20  O   UNL     1      33.878 -22.954 -18.752  0.00  0.00    -0.270 OA
ATOM     21  N   UNL     1      35.606 -21.690 -17.779  0.00  0.00    -0.280 N 
ATOM     22  C   UNL     1      34.636 -21.990 -18.746  0.00  0.00    +0.249 C 
ATOM     23  H   UNL     1      36.130 -20.870 -17.934  0.00  0.00    +0.155 HD
BRANCH  21  24
ATOM     24  C   UNL     1      35.922 -22.410 -16.627  0.00  0.00    +0.051 C 
ATOM     25  C   UNL     1      34.911 -22.815 -15.757  0.00  0.00    +0.025 C 
ATOM     26  C   UNL     1      37.251 -22.727 -16.345  0.00  0.00    +0.015 C 
ATOM     27  C   UNL     1      35.227 -23.535 -14.604  0.00  0.00    +0.070 C 
ATOM     28  C   UNL     1      37.569 -23.446 -15.194  0.00  0.00    +0.002 C 
ATOM     29  C   UNL     1      36.557 -23.850 -14.323  0.00  0.00    +0.010 C 
BRANCH  27  31
ATOM     30  N   UNL     1      33.348 -24.286 -12.987  0.00  0.00    -0.191 NA
ATOM     31  C   UNL     1      34.191 -23.949 -13.712  0.00  0.00    +0.100 C 
ENDBRANCH  27  31
ENDBRANCH  21  24
ENDBRANCH   4  22
TORSDOF 5
ENDMDL
MODEL 3
REMARK VINA RESULT:     -12.5      3.480     11.097
REMARK  Name = 10200651
REMARK  5 active torsions:
REMARK  status: ('A' for Active; 'I' for Inactive)
REMARK    1  A    between atoms: C_1  and  C_7
REMARK    2  A    between atoms: C_4  and  C_22
REMARK    3  A    between atoms: C_10  and  C_17
REMARK    4  A    between atoms: N_21  and  C_24
REMARK    5  A    between atoms: C_27  and  C_31
REMARK                            x       y       z     vdW  Elec       q    Type
REMARK                         _______ _______ _______ _____ _____    ______ ____
ROOT
ATOM      1  C   UNL     1      33.851 -19.807 -21.257  0.00  0.00    -0.000 C 
ATOM      2  C   UNL     1      32.558 -20.025 -20.781  0.00  0.00    +0.000 C 
ATOM      3  C   UNL     1      34.902 -20.608 -20.814  0.00  0.00    +0.000 C 
ATOM      4  C   UNL     1      33.374 -21.824 -19.440  0.00  0.00    +0.054 C 
ATOM      5  C   UNL     1      32.316 -21.046 -19.862  0.00  0.00    +0.005 C 
ATOM      6  C   UNL     1      34.661 -21.629 -19.895  0.00  0.00    +0.005 C 
ENDROOT
BRANCH   1   7
ATOM      7  C   UNL     1      34.100 -18.747 -22.211  0.00  0.00    -0.004 C 
ATOM      8  C   UNL     1      35.037 -17.746 -21.948  0.00  0.00    -0.022 C 
ATOM      9  C   UNL     1      33.388 -18.734 -23.412  0.00  0.00    +0.004 C 
ATOM     10  C   UNL     1      33.610 -17.723 -24.346  0.00  0.00    +0.055 C 
ATOM     11  C   UNL     1      35.259 -16.734 -22.883  0.00  0.00    -0.004 C 
ATOM     12  C   UNL     1      34.547 -16.723 -24.082  0.00  0.00    +0.004 C 
ATOM     13  C   UNL     1      35.819 -17.724 -20.675  0.00  0.00    +0.031 C 
BRANCH  10  17
ATOM     14  O   UNL     1      32.286 -16.530 -25.909  0.00  0.00    -0.420 OA
ATOM     15  N   UNL     1      32.674 -18.663 -26.458  0.00  0.00    -0.107 NA
ATOM     16  N   UNL     1      31.896 -18.101 -27.453  0.00  0.00    -0.111 NA
ATOM     17  C   UNL     1      32.873 -17.711 -25.586  0.00  0.00    +0.250 A 
ATOM     18  C   UNL     1      31.693 -16.856 -27.090  0.00  0.00    +0.227 A 
ATOM     19  C   UNL     1      30.937 -15.796 -27.766  0.00  0.00    +0.097 C 
ENDBRANCH  10  17
ENDBRANCH   1   7
BRANCH   4  22
ATOM     20  O   UNL     1      33.437 -24.053 -18.775  0.00  0.00    -0.270 OA
ATOM     21  N   UNL     1      32.545 -22.505 -17.247  0.00  0.00    -0.280 N 
ATOM     22  C   UNL     1      33.117 -22.912 -18.459  0.00  0.00    +0.249 C 
ATOM     23  H   UNL     1      32.350 -21.543 -17.162  0.00  0.00    +0.155 HD
BRANCH  21  24
ATOM     24  C   UNL     1      32.219 -23.294 -16.143  0.00  0.00    +0.051 C 
ATOM     25  C   UNL     1      30.925 -23.793 -16.000  0.00  0.00    +0.025 C 
ATOM     26  C   UNL     1      33.188 -23.583 -15.182  0.00  0.00    +0.015 C 
ATOM     27  C   UNL     1      30.598 -24.582 -14.896  0.00  0.00    +0.070 C 
ATOM     28  C   UNL     1      32.863 -24.371 -14.078  0.00  0.00    +0.002 C 
ATOM     29  C   UNL     1      31.568 -24.870 -13.935  0.00  0.00    +0.010 C 
BRANCH  27  31
ATOM     30  N   UNL     1      28.195 -25.509 -14.630  0.00  0.00    -0.191 NA
ATOM     31  C   UNL     1      29.273 -25.093 -14.749  0.00  0.00    +0.100 C 
ENDBRANCH  27  31
ENDBRANCH  21  24
ENDBRANCH   4  22
TORSDOF 5
ENDMDL
MODEL 4
REMARK VINA RESULT:     -12.4      1.696      2.163
REMARK  Name = 10200651
REMARK  5 active torsions:
REMARK  status: ('A' for Active; 'I' for Inactive)
REMARK    1  A    between atoms: C_1  and  C_7
REMARK    2  A    between atoms: C_4  and  C_22
REMARK    3  A    between atoms: C_10  and  C_17
REMARK    4  A    between atoms: N_21  and  C_24
REMARK    5  A    between atoms: C_27  and  C_31
REMARK                            x       y       z     vdW  Elec       q    Type
REMARK                         _______ _______ _______ _____ _____    ______ ____
ROOT
ATOM      1  C   UNL     1      33.794 -22.698 -17.441  0.00  0.00    -0.000 C 
ATOM      2  C   UNL     1      32.492 -22.458 -17.881  0.00  0.00    +0.000 C 
ATOM      3  C   UNL     1      34.875 -22.147 -18.128  0.00  0.00    +0.000 C 
ATOM      4  C   UNL     1      33.358 -21.134 -19.669  0.00  0.00    +0.054 C 
ATOM      5  C   UNL     1      32.271 -21.667 -19.008  0.00  0.00    +0.005 C 
ATOM      6  C   UNL     1      34.654 -21.356 -19.255  0.00  0.00    +0.005 C 
ENDROOT
BRANCH   1   7
ATOM      7  C   UNL     1      34.022 -23.519 -16.272  0.00  0.00    -0.004 C 
ATOM      8  C   UNL     1      33.050 -23.647 -15.278  0.00  0.00    -0.022 C 
ATOM      9  C   UNL     1      35.239 -24.192 -16.143  0.00  0.00    +0.004 C 
ATOM     10  C   UNL     1      35.483 -24.989 -15.024  0.00  0.00    +0.055 C 
ATOM     11  C   UNL     1      33.295 -24.443 -14.159  0.00  0.00    -0.004 C 
ATOM     12  C   UNL     1      34.510 -25.115 -14.033  0.00  0.00    +0.004 C 
ATOM     13  C   UNL     1      31.736 -22.943 -15.378  0.00  0.00    +0.031 C 
BRANCH  10  17
ATOM     14  O   UNL     1      37.827 -24.896 -14.676  0.00  0.00    -0.420 OA
ATOM     15  N   UNL     1      37.010 -26.960 -14.951  0.00  0.00    -0.107 NA
ATOM     16  N   UNL     1      38.375 -27.063 -14.761  0.00  0.00    -0.111 NA
ATOM     17  C   UNL     1      36.741 -25.683 -14.893  0.00  0.00    +0.250 A 
ATOM     18  C   UNL     1      38.810 -25.835 -14.606  0.00  0.00    +0.227 A 
ATOM     19  C   UNL     1      40.174 -25.348 -14.372  0.00  0.00    +0.097 C 
ENDBRANCH  10  17
ENDBRANCH   1   7
BRANCH   4  22
ATOM     20  O   UNL     1      31.969 -20.175 -21.269  0.00  0.00    -0.270 OA
ATOM     21  N   UNL     1      34.265 -19.691 -21.417  0.00  0.00    -0.280 N 
ATOM     22  C   UNL     1      33.123 -20.291 -20.871  0.00  0.00    +0.249 C 
ATOM     23  H   UNL     1      35.117 -19.895 -20.967  0.00  0.00    +0.155 HD
BRANCH  21  24
ATOM     24  C   UNL     1      34.344 -18.837 -22.518  0.00  0.00    +0.051 C 
ATOM     25  C   UNL     1      34.382 -17.456 -22.329  0.00  0.00    +0.025 C 
ATOM     26  C   UNL     1      34.385 -19.365 -23.808  0.00  0.00    +0.015 C 
ATOM     27  C   UNL     1      34.461 -16.602 -23.430  0.00  0.00    +0.070 C 
ATOM     28  C   UNL     1      34.464 -18.513 -24.910  0.00  0.00    +0.002 C 
ATOM     29  C   UNL     1      34.501 -17.132 -24.720  0.00  0.00    +0.010 C 
BRANCH  27  31
ATOM     30  N   UNL     1      34.531 -14.037 -23.079  0.00  0.00    -0.191 NA
ATOM     31  C   UNL     1      34.500 -15.188 -23.236  0.00  0.00    +0.100 C 
ENDBRANCH  27  31
ENDBRANCH  21  24
ENDBRANCH   4  22
TORSDOF 5
ENDMDL
MODEL 5
REMARK VINA RESULT:     -12.4      3.171      4.677
REMARK  Name = 10200651
REMARK  5 active torsions:
REMARK  status: ('A' for Active; 'I' for Inactive)
REMARK    1  A    between atoms: C_1  and  C_7
REMARK    2  A    between atoms: C_4  and  C_22
REMARK    3  A    between atoms: C_10  and  C_17
REMARK    4  A    between atoms: N_21  and  C_24
REMARK    5  A    between atoms: C_27  and  C_31
REMARK                            x       y       z     vdW  Elec       q    Type
REMARK                         _______ _______ _______ _____ _____    ______ ____
ROOT
ATOM      1  C   UNL     1      33.871 -20.929 -19.936  0.00  0.00    -0.000 C 
ATOM      2  C   UNL     1      35.110 -20.583 -20.476  0.00  0.00    +0.000 C 
ATOM      3  C   UNL     1      32.696 -20.500 -20.552  0.00  0.00    +0.000 C 
ATOM      4  C   UNL     1      33.996 -19.397 -22.224  0.00  0.00    +0.054 C 
ATOM      5  C   UNL     1      35.173 -19.808 -21.633  0.00  0.00    +0.005 C 
ATOM      6  C   UNL     1      32.760 -19.725 -21.710  0.00  0.00    +0.005 C 
ENDROOT
BRANCH   1   7
ATOM      7  C   UNL     1      33.805 -21.734 -18.734  0.00  0.00    -0.004 C 
ATOM      8  C   UNL     1      34.964 -22.117 -18.057  0.00  0.00    -0.022 C 
ATOM      9  C   UNL     1      32.556 -22.129 -18.250  0.00  0.00    +0.004 C 
ATOM     10  C   UNL     1      32.467 -22.906 -17.095  0.00  0.00    +0.055 C 
ATOM     11  C   UNL     1      34.875 -22.894 -16.902  0.00  0.00    -0.004 C 
ATOM     12  C   UNL     1      33.627 -23.287 -16.420  0.00  0.00    +0.004 C 
ATOM     13  C   UNL     1      36.319 -21.714 -18.543  0.00  0.00    +0.031 C 
BRANCH  10  17
ATOM     14  O   UNL     1      30.114 -22.617 -17.077  0.00  0.00    -0.420 OA
ATOM     15  N   UNL     1      30.859 -24.254 -15.748  0.00  0.00    -0.107 NA
ATOM     16  N   UNL     1      29.482 -24.204 -15.633  0.00  0.00    -0.111 NA
ATOM     17  C   UNL     1      31.176 -23.314 -16.597  0.00  0.00    +0.250 A 
ATOM     18  C   UNL     1      29.091 -23.234 -16.426  0.00  0.00    +0.227 A 
ATOM     19  C   UNL     1      27.737 -22.737 -16.699  0.00  0.00    +0.097 C 
ENDBRANCH  10  17
ENDBRANCH   1   7
BRANCH   4  22
ATOM     20  O   UNL     1      35.167 -18.172 -23.817  0.00  0.00    -0.270 OA
ATOM     21  N   UNL     1      32.840 -18.348 -24.101  0.00  0.00    -0.280 N 
ATOM     22  C   UNL     1      34.065 -18.570 -23.457  0.00  0.00    +0.249 C 
ATOM     23  H   UNL     1      32.048 -18.744 -23.669  0.00  0.00    +0.155 HD
BRANCH  21  24
ATOM     24  C   UNL     1      32.604 -17.638 -25.278  0.00  0.00    +0.051 C 
ATOM     25  C   UNL     1      32.976 -16.297 -25.371  0.00  0.00    +0.025 C 
ATOM     26  C   UNL     1      31.997 -18.269 -26.364  0.00  0.00    +0.015 C 
ATOM     27  C   UNL     1      32.740 -15.587 -26.549  0.00  0.00    +0.070 C 
ATOM     28  C   UNL     1      31.761 -17.560 -27.541  0.00  0.00    +0.002 C 
ATOM     29  C   UNL     1      32.132 -16.219 -27.633  0.00  0.00    +0.010 C 
BRANCH  27  31
ATOM     30  N   UNL     1      33.430 -13.096 -26.721  0.00  0.00    -0.191 NA
ATOM     31  C   UNL     1      33.121 -14.213 -26.644  0.00  0.00    +0.100 C 
ENDBRANCH  27  31
ENDBRANCH  21  24
ENDBRANCH   4  22
TORSDOF 5
ENDMDL
MODEL 6
REMARK VINA RESULT:     -12.3      2.264     10.829
REMARK  Name = 10200651
REMARK  5 active torsions:
REMARK  status: ('A' for Active; 'I' for Inactive)
REMARK    1  A    between atoms: C_1  and  C_7
REMARK    2  A    between atoms: C_4  and  C_22
REMARK    3  A    between atoms: C_10  and  C_17
REMARK    4  A    between atoms: N_21  and  C_24
REMARK    5  A    between atoms: C_27  and  C_31
REMARK                            x       y       z     vdW  Elec       q    Type
REMARK                         _______ _______ _______ _____ _____    ______ ____
ROOT
ATOM      1  C   UNL     1      34.286 -19.553 -21.696  0.00  0.00    -0.000 C 
ATOM      2  C   UNL     1      35.465 -20.074 -21.163  0.00  0.00    +0.000 C 
ATOM      3  C   UNL     1      33.051 -19.969 -21.200  0.00  0.00    +0.000 C 
ATOM      4  C   UNL     1      34.174 -21.407 -19.659  0.00  0.00    +0.054 C 
ATOM      5  C   UNL     1      35.408 -21.012 -20.132  0.00  0.00    +0.005 C 
ATOM      6  C   UNL     1      32.995 -20.907 -20.170  0.00  0.00    +0.005 C 
ENDROOT
BRANCH   1   7
ATOM      7  C   UNL     1      34.345 -18.579 -22.766  0.00  0.00    -0.004 C 
ATOM      8  C   UNL     1      34.535 -18.974 -24.091  0.00  0.00    -0.022 C 
ATOM      9  C   UNL     1      34.208 -17.224 -22.457  0.00  0.00    +0.004 C 
ATOM     10  C   UNL     1      34.263 -16.267 -23.471  0.00  0.00    +0.055 C 
ATOM     11  C   UNL     1      34.590 -18.016 -25.104  0.00  0.00    -0.004 C 
ATOM     12  C   UNL     1      34.452 -16.664 -24.795  0.00  0.00    +0.004 C 
ATOM     13  C   UNL     1      34.686 -20.413 -24.462  0.00  0.00    +0.031 C 
BRANCH  10  17
ATOM     14  O   UNL     1      33.808 -14.055 -24.192  0.00  0.00    -0.420 OA
ATOM     15  N   UNL     1      34.250 -14.247 -22.008  0.00  0.00    -0.107 NA
ATOM     16  N   UNL     1      34.008 -12.913 -22.279  0.00  0.00    -0.111 NA
ATOM     17  C   UNL     1      34.122 -14.868 -23.150  0.00  0.00    +0.250 A 
ATOM     18  C   UNL     1      33.756 -12.848 -23.565  0.00  0.00    +0.227 A 
ATOM     19  C   UNL     1      33.433 -11.684 -24.397  0.00  0.00    +0.097 C 
ENDBRANCH  10  17
ENDBRANCH   1   7
BRANCH   4  22
ATOM     20  O   UNL     1      33.405 -23.394 -18.727  0.00  0.00    -0.270 OA
ATOM     21  N   UNL     1      34.908 -22.121 -17.443  0.00  0.00    -0.280 N 
ATOM     22  C   UNL     1      34.114 -22.408 -18.562  0.00  0.00    +0.249 C 
ATOM     23  H   UNL     1      35.416 -21.278 -17.479  0.00  0.00    +0.155 HD
BRANCH  21  24
ATOM     24  C   UNL     1      35.068 -22.883 -16.285  0.00  0.00    +0.051 C 
ATOM     25  C   UNL     1      36.341 -23.297 -15.893  0.00  0.00    +0.025 C 
ATOM     26  C   UNL     1      33.956 -23.229 -15.519  0.00  0.00    +0.015 C 
ATOM     27  C   UNL     1      36.501 -24.059 -14.736  0.00  0.00    +0.070 C 
ATOM     28  C   UNL     1      34.115 -23.991 -14.361  0.00  0.00    +0.002 C 
ATOM     29  C   UNL     1      35.388 -24.406 -13.970  0.00  0.00    +0.010 C 
BRANCH  27  31
ATOM     30  N   UNL     1      38.865 -24.830 -14.008  0.00  0.00    -0.191 NA
ATOM     31  C   UNL     1      37.804 -24.484 -14.334  0.00  0.00    +0.100 C 
ENDBRANCH  27  31
ENDBRANCH  21  24
ENDBRANCH   4  22
TORSDOF 5
ENDMDL
MODEL 7
REMARK VINA RESULT:     -12.3      3.186     10.938
REMARK  Name = 10200651
REMARK  5 active torsions:
REMARK  status: ('A' for Active; 'I' for Inactive)
REMARK    1  A    between atoms: C_1  and  C_7
REMARK    2  A    between atoms: C_4  and  C_22
REMARK    3  A    between atoms: C_10  and  C_17
REMARK    4  A    between atoms: N_21  and  C_24
REMARK    5  A    between atoms: C_27  and  C_31
REMARK                            x       y       z     vdW  Elec       q    Type
REMARK                         _______ _______ _______ _____ _____    ______ ____
ROOT
ATOM      1  C   UNL     1      34.162 -19.230 -22.254  0.00  0.00    -0.000 C 
ATOM      2  C   UNL     1      32.959 -19.683 -21.711  0.00  0.00    +0.000 C 
ATOM      3  C   UNL     1      35.375 -19.629 -21.693  0.00  0.00    +0.000 C 
ATOM      4  C   UNL     1      34.184 -20.915 -20.072  0.00  0.00    +0.054 C 
ATOM      5  C   UNL     1      32.970 -20.536 -20.607  0.00  0.00    +0.005 C 
ATOM      6  C   UNL     1      35.386 -20.481 -20.590  0.00  0.00    +0.005 C 
ENDROOT
BRANCH   1   7
ATOM      7  C   UNL     1      34.150 -18.345 -23.399  0.00  0.00    -0.004 C 
ATOM      8  C   UNL     1      34.269 -18.843 -24.697  0.00  0.00    -0.022 C 
ATOM      9  C   UNL     1      34.016 -16.971 -23.192  0.00  0.00    +0.004 C 
ATOM     10  C   UNL     1      34.004 -16.097 -24.280  0.00  0.00    +0.055 C 
ATOM     11  C   UNL     1      34.256 -17.970 -25.785  0.00  0.00    -0.004 C 
ATOM     12  C   UNL     1      34.123 -16.598 -25.577  0.00  0.00    +0.004 C 
ATOM     13  C   UNL     1      34.414 -20.307 -24.960  0.00  0.00    +0.031 C 
BRANCH  10  17
ATOM     14  O   UNL     1      33.436 -13.960 -25.134  0.00  0.00    -0.420 OA
ATOM     15  N   UNL     1      34.093 -13.961 -22.995  0.00  0.00    -0.107 NA
ATOM     16  N   UNL     1      33.798 -12.658 -23.351  0.00  0.00    -0.111 NA
ATOM     17  C   UNL     1      33.866 -14.678 -24.064  0.00  0.00    +0.250 A 
ATOM     18  C   UNL     1      33.421 -12.705 -24.607  0.00  0.00    +0.227 A 
ATOM     19  C   UNL     1      32.994 -11.619 -25.497  0.00  0.00    +0.097 C 
ENDBRANCH  10  17
ENDBRANCH   1   7
BRANCH   4  22
ATOM     20  O   UNL     1      35.274 -22.291 -18.546  0.00  0.00    -0.270 OA
ATOM     21  N   UNL     1      32.951 -22.034 -18.286  0.00  0.00    -0.280 N 
ATOM     22  C   UNL     1      34.195 -21.823 -18.895  0.00  0.00    +0.249 C 
ATOM     23  H   UNL     1      32.184 -21.577 -18.703  0.00  0.00    +0.155 HD
BRANCH  21  24
ATOM     24  C   UNL     1      32.665 -22.809 -17.162  0.00  0.00    +0.051 C 
ATOM     25  C   UNL     1      31.346 -23.156 -16.871  0.00  0.00    +0.025 C 
ATOM     26  C   UNL     1      33.698 -23.238 -16.329  0.00  0.00    +0.015 C 
ATOM     27  C   UNL     1      31.059 -23.931 -15.746  0.00  0.00    +0.070 C 
ATOM     28  C   UNL     1      33.413 -24.012 -15.205  0.00  0.00    +0.002 C 
ATOM     29  C   UNL     1      32.094 -24.358 -14.914  0.00  0.00    +0.010 C 
BRANCH  27  31
ATOM     30  N   UNL     1      28.610 -24.575 -15.204  0.00  0.00    -0.191 NA
ATOM     31  C   UNL     1      29.709 -24.286 -15.448  0.00  0.00    +0.100 C 
ENDBRANCH  27  31
ENDBRANCH  21  24
ENDBRANCH   4  22
TORSDOF 5
ENDMDL
MODEL 8
REMARK VINA RESULT:     -12.3      3.563      5.962
REMARK  Name = 10200651
REMARK  5 active torsions:
REMARK  status: ('A' for Active; 'I' for Inactive)
REMARK    1  A    between atoms: C_1  and  C_7
REMARK    2  A    between atoms: C_4  and  C_22
REMARK    3  A    between atoms: C_10  and  C_17
REMARK    4  A    between atoms: N_21  and  C_24
REMARK    5  A    between atoms: C_27  and  C_31
REMARK                            x       y       z     vdW  Elec       q    Type
REMARK                         _______ _______ _______ _____ _____    ______ ____
ROOT
ATOM      1  C   UNL     1      34.748 -18.659 -22.396  0.00  0.00    -0.000 C 
ATOM      2  C   UNL     1      34.869 -17.282 -22.208  0.00  0.00    +0.000 C 
ATOM      3  C   UNL     1      34.259 -19.159 -23.602  0.00  0.00    +0.000 C 
ATOM      4  C   UNL     1      34.020 -16.926 -24.412  0.00  0.00    +0.054 C 
ATOM      5  C   UNL     1      34.500 -16.405 -23.228  0.00  0.00    +0.005 C 
ATOM      6  C   UNL     1      33.891 -18.282 -24.622  0.00  0.00    +0.005 C 
ENDROOT
BRANCH   1   7
ATOM      7  C   UNL     1      35.130 -19.569 -21.337  0.00  0.00    -0.004 C 
ATOM      8  C   UNL     1      36.473 -19.798 -21.031  0.00  0.00    -0.022 C 
ATOM      9  C   UNL     1      34.132 -20.226 -20.615  0.00  0.00    +0.004 C 
ATOM     10  C   UNL     1      34.475 -21.109 -19.591  0.00  0.00    +0.055 C 
ATOM     11  C   UNL     1      36.816 -20.680 -20.007  0.00  0.00    -0.004 C 
ATOM     12  C   UNL     1      35.818 -21.335 -19.286  0.00  0.00    +0.004 C 
ATOM     13  C   UNL     1      37.570 -19.114 -21.781  0.00  0.00    +0.031 C 
BRANCH  10  17
ATOM     14  O   UNL     1      33.867 -22.505 -17.774  0.00  0.00    -0.420 OA
ATOM     15  N   UNL     1      32.151 -21.826 -19.038  0.00  0.00    -0.107 NA
ATOM     16  N   UNL     1      31.647 -22.625 -18.028  0.00  0.00    -0.111 NA
ATOM     17  C   UNL     1      33.443 -21.787 -18.846  0.00  0.00    +0.250 A 
ATOM     18  C   UNL     1      32.684 -23.000 -17.316  0.00  0.00    +0.227 A 
ATOM     19  C   UNL     1      32.741 -23.854 -16.125  0.00  0.00    +0.097 C 
ENDBRANCH  10  17
ENDBRANCH   1   7
BRANCH   4  22
ATOM     20  O   UNL     1      33.597 -16.427 -26.644  0.00  0.00    -0.270 OA
ATOM     21  N   UNL     1      33.304 -14.691 -25.085  0.00  0.00    -0.280 N 
ATOM     22  C   UNL     1      33.626 -15.991 -25.498  0.00  0.00    +0.249 C 
ATOM     23  H   UNL     1      33.384 -14.512 -24.120  0.00  0.00    +0.155 HD
BRANCH  21  24
ATOM     24  C   UNL     1      32.881 -13.619 -25.872  0.00  0.00    +0.051 C 
ATOM     25  C   UNL     1      33.162 -12.311 -25.479  0.00  0.00    +0.025 C 
ATOM     26  C   UNL     1      32.178 -13.856 -27.053  0.00  0.00    +0.015 C 
ATOM     27  C   UNL     1      32.740 -11.239 -26.266  0.00  0.00    +0.070 C 
ATOM     28  C   UNL     1      31.754 -12.786 -27.841  0.00  0.00    +0.002 C 
ATOM     29  C   UNL     1      32.035 -11.477 -27.447  0.00  0.00    +0.010 C 
BRANCH  27  31
ATOM     30  N   UNL     1      33.261  -8.809 -25.537  0.00  0.00    -0.191 NA
ATOM     31  C   UNL     1      33.027  -9.899 -25.864  0.00  0.00    +0.100 C 
ENDBRANCH  27  31
ENDBRANCH  21  24
ENDBRANCH   4  22
TORSDOF 5
ENDMDL
MODEL 9
REMARK VINA RESULT:     -12.3      2.304     11.007
REMARK  Name = 10200651
REMARK  5 active torsions:
REMARK  status: ('A' for Active; 'I' for Inactive)
REMARK    1  A    between atoms: C_1  and  C_7
REMARK    2  A    between atoms: C_4  and  C_22
REMARK    3  A    between atoms: C_10  and  C_17
REMARK    4  A    between atoms: N_21  and  C_24
REMARK    5  A    between atoms: C_27  and  C_31
REMARK                            x       y       z     vdW  Elec       q    Type
REMARK                         _______ _______ _______ _____ _____    ______ ____
ROOT
ATOM      1  C   UNL     1      34.209 -19.201 -22.282  0.00  0.00    -0.000 C 
ATOM      2  C   UNL     1      33.028 -19.683 -21.716  0.00  0.00    +0.000 C 
ATOM      3  C   UNL     1      35.441 -19.557 -21.735  0.00  0.00    +0.000 C 
ATOM      4  C   UNL     1      34.312 -20.860 -20.083  0.00  0.00    +0.054 C 
ATOM      5  C   UNL     1      33.081 -20.523 -20.604  0.00  0.00    +0.005 C 
ATOM      6  C   UNL     1      35.493 -20.397 -20.623  0.00  0.00    +0.005 C 
ENDROOT
BRANCH   1   7
ATOM      7  C   UNL     1      34.154 -18.330 -23.436  0.00  0.00    -0.004 C 
ATOM      8  C   UNL     1      34.227 -18.843 -24.732  0.00  0.00    -0.022 C 
ATOM      9  C   UNL     1      34.026 -16.953 -23.241  0.00  0.00    +0.004 C 
ATOM     10  C   UNL     1      33.972 -16.092 -24.338  0.00  0.00    +0.055 C 
ATOM     11  C   UNL     1      34.173 -17.983 -25.829  0.00  0.00    -0.004 C 
ATOM     12  C   UNL     1      34.045 -16.608 -25.632  0.00  0.00    +0.004 C 
ATOM     13  C   UNL     1      34.364 -20.310 -24.983  0.00  0.00    +0.031 C 
BRANCH  10  17
ATOM     14  O   UNL     1      33.395 -13.963 -25.204  0.00  0.00    -0.420 OA
ATOM     15  N   UNL     1      34.086 -13.944 -23.076  0.00  0.00    -0.107 NA
ATOM     16  N   UNL     1      33.788 -12.644 -23.440  0.00  0.00    -0.111 NA
ATOM     17  C   UNL     1      33.841 -14.671 -24.134  0.00  0.00    +0.250 A 
ATOM     18  C   UNL     1      33.390 -12.702 -24.689  0.00  0.00    +0.227 A 
ATOM     19  C   UNL     1      32.951 -11.625 -25.583  0.00  0.00    +0.097 C 
ENDBRANCH  10  17
ENDBRANCH   1   7
BRANCH   4  22
ATOM     20  O   UNL     1      35.470 -22.150 -18.531  0.00  0.00    -0.270 OA
ATOM     21  N   UNL     1      33.133 -22.038 -18.299  0.00  0.00    -0.280 N 
ATOM     22  C   UNL     1      34.368 -21.754 -18.897  0.00  0.00    +0.249 C 
ATOM     23  H   UNL     1      32.343 -21.634 -18.728  0.00  0.00    +0.155 HD
BRANCH  21  24
ATOM     24  C   UNL     1      32.883 -22.819 -17.169  0.00  0.00    +0.051 C 
ATOM     25  C   UNL     1      33.946 -23.317 -16.418  0.00  0.00    +0.025 C 
ATOM     26  C   UNL     1      31.570 -23.099 -16.792  0.00  0.00    +0.015 C 
ATOM     27  C   UNL     1      33.696 -24.098 -15.288  0.00  0.00    +0.070 C 
ATOM     28  C   UNL     1      31.319 -23.880 -15.664  0.00  0.00    +0.002 C 
ATOM     29  C   UNL     1      32.383 -24.379 -14.913  0.00  0.00    +0.010 C 
BRANCH  27  31
ATOM     30  N   UNL     1      35.671 -25.025 -13.891  0.00  0.00    -0.191 NA
ATOM     31  C   UNL     1      34.785 -24.610 -14.518  0.00  0.00    +0.100 C 
ENDBRANCH  27  31
ENDBRANCH  21  24
ENDBRANCH   4  22
TORSDOF 5
ENDMDL
