MODEL 1
REMARK VINA RESULT:     -13.0      0.000      0.000
REMARK  Name = 71226662
REMARK  4 active torsions:
REMARK  status: ('A' for Active; 'I' for Inactive)
REMARK    1  A    between atoms: C_5  and  C_15
REMARK    2  A    between atoms: C_7  and  C_23
REMARK    3  A    between atoms: C_19  and  C_20
REMARK    4  A    between atoms: C_28  and  C_31
REMARK                            x       y       z     vdW  Elec       q    Type
REMARK                         _______ _______ _______ _____ _____    ______ ____
ROOT
ATOM      1  N   UNL     1      32.731 -12.472 -26.205  0.00  0.00    -0.251 N 
ATOM      2  N   UNL     1      33.956 -12.467 -24.354  0.00  0.00    -0.392 NA
ATOM      3  N   UNL     1      31.525 -14.485 -27.685  0.00  0.00    -0.231 NA
ATOM      4  N   UNL     1      32.271 -16.162 -26.268  0.00  0.00    -0.344 N 
ATOM      5  C   UNL     1      33.418 -11.718 -25.295  0.00  0.00    +0.182 C 
ATOM      6  C   UNL     1      32.839 -13.786 -25.816  0.00  0.00    +0.185 C 
ATOM      7  C   UNL     1      33.600 -13.757 -24.671  0.00  0.00    +0.136 C 
ATOM      8  C   UNL     1      32.020 -12.144 -27.340  0.00  0.00    +0.089 C 
ATOM      9  C   UNL     1      32.201 -14.829 -26.605  0.00  0.00    +0.128 C 
ATOM     10  C   UNL     1      31.450 -13.145 -28.030  0.00  0.00    +0.116 C 
ATOM     11  H   UNL     1      31.823 -16.835 -26.830  0.00  0.00    +0.143 HD
ATOM     12  H   UNL     1      32.768 -16.442 -25.466  0.00  0.00    +0.143 HD
ENDROOT
BRANCH   5  15
ATOM     13  O   UNL     1      31.399  -9.908 -23.445  0.00  0.00    -0.260 OA
ATOM     14  N   UNL     1      33.592  -9.525 -24.099  0.00  0.00    -0.263 N 
ATOM     15  C   UNL     1      33.522 -10.208 -25.395  0.00  0.00    +0.143 C 
ATOM     16  C   UNL     1      34.798  -9.755 -26.118  0.00  0.00    +0.030 C 
ATOM     17  C   UNL     1      35.783  -9.487 -24.985  0.00  0.00    +0.024 C 
ATOM     18  C   UNL     1      34.901  -8.912 -23.887  0.00  0.00    +0.095 C 
ATOM     19  C   UNL     1      32.496  -9.391 -23.261  0.00  0.00    +0.293 C 
BRANCH  19  20
ATOM     20  C   UNL     1      32.664  -8.576 -22.078  0.00  0.00    -0.007 C 
ATOM     21  C   UNL     1      32.804  -7.900 -21.096  0.00  0.00    -0.081 C 
ATOM     22  C   UNL     1      32.973  -7.076 -19.900  0.00  0.00    +0.090 C 
ENDBRANCH  19  20
ENDBRANCH   5  15
BRANCH   7  23
ATOM     23  C   UNL     1      33.998 -14.879 -23.876  0.00  0.00    +0.028 C 
ATOM     24  C   UNL     1      34.192 -14.727 -22.503  0.00  0.00    +0.002 C 
ATOM     25  C   UNL     1      34.192 -16.123 -24.476  0.00  0.00    +0.002 C 
ATOM     26  C   UNL     1      34.581 -15.821 -21.729  0.00  0.00    +0.005 C 
ATOM     27  C   UNL     1      34.581 -17.216 -23.701  0.00  0.00    +0.005 C 
ATOM     28  C   UNL     1      34.775 -17.066 -22.328  0.00  0.00    +0.054 C 
BRANCH  28  31
ATOM     29  O   UNL     1      36.387 -18.393 -21.304  0.00  0.00    -0.270 OA
ATOM     30  N   UNL     1      34.142 -19.030 -21.064  0.00  0.00    -0.266 N 
ATOM     31  C   UNL     1      35.179 -18.206 -21.521  0.00  0.00    +0.251 C 
ATOM     32  H   UNL     1      33.231 -18.753 -21.316  0.00  0.00    +0.157 HD
ATOM     33  N   UNL     1      33.090 -20.854 -19.956  0.00  0.00    -0.229 NA
ATOM     34  C   UNL     1      34.232 -20.211 -20.287  0.00  0.00    +0.134 C 
ATOM     35  C   UNL     1      35.497 -20.635 -19.911  0.00  0.00    +0.034 C 
ATOM     36  C   UNL     1      35.596 -21.794 -19.149  0.00  0.00    +0.004 C 
ATOM     37  C   UNL     1      33.225 -21.976 -19.214  0.00  0.00    +0.100 C 
ATOM     38  C   UNL     1      34.443 -22.483 -18.790  0.00  0.00    +0.021 C 
ENDBRANCH  28  31
ENDBRANCH   7  23
TORSDOF 4
ENDMDL
MODEL 2
REMARK VINA RESULT:     -12.4      5.946     13.741
REMARK  Name = 71226662
REMARK  4 active torsions:
REMARK  status: ('A' for Active; 'I' for Inactive)
REMARK    1  A    between atoms: C_5  and  C_15
REMARK    2  A    between atoms: C_7  and  C_23
REMARK    3  A    between atoms: C_19  and  C_20
REMARK    4  A    between atoms: C_28  and  C_31
REMARK                            x       y       z     vdW  Elec       q    Type
REMARK                         _______ _______ _______ _____ _____    ______ ____
ROOT
ATOM      1  N   UNL     1      32.729 -24.170 -15.060  0.00  0.00    -0.251 N 
ATOM      2  N   UNL     1      34.717 -23.595 -15.860  0.00  0.00    -0.392 NA
ATOM      3  N   UNL     1      30.126 -23.650 -15.868  0.00  0.00    -0.231 NA
ATOM      4  N   UNL     1      30.800 -22.390 -17.694  0.00  0.00    -0.344 N 
ATOM      5  C   UNL     1      34.084 -24.254 -14.911  0.00  0.00    +0.182 C 
ATOM      6  C   UNL     1      32.483 -23.409 -16.176  0.00  0.00    +0.185 C 
ATOM      7  C   UNL     1      33.726 -23.064 -16.653  0.00  0.00    +0.136 C 
ATOM      8  C   UNL     1      31.678 -24.684 -14.329  0.00  0.00    +0.089 C 
ATOM      9  C   UNL     1      31.112 -23.145 -16.586  0.00  0.00    +0.128 C 
ATOM     10  C   UNL     1      30.432 -24.411 -14.752  0.00  0.00    +0.116 C 
ATOM     11  H   UNL     1      29.858 -22.237 -17.936  0.00  0.00    +0.143 HD
ATOM     12  H   UNL     1      31.519 -22.004 -18.246  0.00  0.00    +0.143 HD
ENDROOT
BRANCH   5  15
ATOM     13  O   UNL     1      36.143 -26.691 -15.687  0.00  0.00    -0.260 OA
ATOM     14  N   UNL     1      36.188 -25.185 -13.921  0.00  0.00    -0.263 N 
ATOM     15  C   UNL     1      34.738 -25.024 -13.778  0.00  0.00    +0.143 C 
ATOM     16  C   UNL     1      34.580 -24.319 -12.424  0.00  0.00    +0.030 C 
ATOM     17  C   UNL     1      35.870 -23.519 -12.277  0.00  0.00    +0.024 C 
ATOM     18  C   UNL     1      36.915 -24.426 -12.907  0.00  0.00    +0.095 C 
ATOM     19  C   UNL     1      36.759 -26.056 -14.838  0.00  0.00    +0.293 C 
BRANCH  19  20
ATOM     20  C   UNL     1      38.194 -26.224 -14.783  0.00  0.00    -0.007 C 
ATOM     21  C   UNL     1      39.386 -26.364 -14.738  0.00  0.00    -0.081 C 
ATOM     22  C   UNL     1      40.837 -26.536 -14.682  0.00  0.00    +0.090 C 
ENDBRANCH  19  20
ENDBRANCH   5  15
BRANCH   7  23
ATOM     23  C   UNL     1      34.013 -22.270 -17.807  0.00  0.00    +0.028 C 
ATOM     24  C   UNL     1      32.984 -21.902 -18.676  0.00  0.00    +0.002 C 
ATOM     25  C   UNL     1      35.322 -21.862 -18.065  0.00  0.00    +0.002 C 
ATOM     26  C   UNL     1      33.265 -21.128 -19.801  0.00  0.00    +0.005 C 
ATOM     27  C   UNL     1      35.602 -21.088 -19.191  0.00  0.00    +0.005 C 
ATOM     28  C   UNL     1      34.574 -20.721 -20.059  0.00  0.00    +0.054 C 
BRANCH  28  31
ATOM     29  O   UNL     1      35.984 -19.381 -21.335  0.00  0.00    -0.270 OA
ATOM     30  N   UNL     1      33.825 -19.781 -22.160  0.00  0.00    -0.266 N 
ATOM     31  C   UNL     1      34.866 -19.913 -21.232  0.00  0.00    +0.251 C 
ATOM     32  H   UNL     1      32.994 -20.263 -21.943  0.00  0.00    +0.157 HD
ATOM     33  N   UNL     1      32.684 -19.058 -24.119  0.00  0.00    -0.229 NA
ATOM     34  C   UNL     1      33.809 -19.044 -23.370  0.00  0.00    +0.134 C 
ATOM     35  C   UNL     1      34.960 -18.352 -23.712  0.00  0.00    +0.034 C 
ATOM     36  C   UNL     1      34.955 -17.626 -24.897  0.00  0.00    +0.004 C 
ATOM     37  C   UNL     1      32.716 -18.341 -25.265  0.00  0.00    +0.100 C 
ATOM     38  C   UNL     1      33.815 -17.615 -25.695  0.00  0.00    +0.021 C 
ENDBRANCH  28  31
ENDBRANCH   7  23
TORSDOF 4
ENDMDL
MODEL 3
REMARK VINA RESULT:     -11.8      1.632      2.859
REMARK  Name = 71226662
REMARK  4 active torsions:
REMARK  status: ('A' for Active; 'I' for Inactive)
REMARK    1  A    between atoms: C_5  and  C_15
REMARK    2  A    between atoms: C_7  and  C_23
REMARK    3  A    between atoms: C_19  and  C_20
REMARK    4  A    between atoms: C_28  and  C_31
REMARK                            x       y       z     vdW  Elec       q    Type
REMARK                         _______ _______ _______ _____ _____    ______ ____
ROOT
ATOM      1  N   UNL     1      33.138 -11.657 -25.298  0.00  0.00    -0.251 N 
ATOM      2  N   UNL     1      34.130 -11.980 -23.338  0.00  0.00    -0.392 NA
ATOM      3  N   UNL     1      32.148 -13.374 -27.239  0.00  0.00    -0.231 NA
ATOM      4  N   UNL     1      32.741 -15.276 -26.053  0.00  0.00    -0.344 N 
ATOM      5  C   UNL     1      33.699 -11.076 -24.195  0.00  0.00    +0.182 C 
ATOM      6  C   UNL     1      33.217 -13.018 -25.132  0.00  0.00    +0.185 C 
ATOM      7  C   UNL     1      33.833 -13.194 -23.915  0.00  0.00    +0.136 C 
ATOM      8  C   UNL     1      32.564 -11.131 -26.437  0.00  0.00    +0.089 C 
ATOM      9  C   UNL     1      32.693 -13.904 -26.160  0.00  0.00    +0.128 C 
ATOM     10  C   UNL     1      32.096 -11.994 -27.354  0.00  0.00    +0.116 C 
ATOM     11  H   UNL     1      32.374 -15.839 -26.774  0.00  0.00    +0.143 HD
ATOM     12  H   UNL     1      33.141 -15.694 -25.258  0.00  0.00    +0.143 HD
ENDROOT
BRANCH   5  15
ATOM     13  O   UNL     1      36.151  -9.498 -25.703  0.00  0.00    -0.260 OA
ATOM     14  N   UNL     1      33.970  -8.832 -25.273  0.00  0.00    -0.263 N 
ATOM     15  C   UNL     1      33.793  -9.572 -24.019  0.00  0.00    +0.143 C 
ATOM     16  C   UNL     1      32.517  -8.971 -23.416  0.00  0.00    +0.030 C 
ATOM     17  C   UNL     1      31.717  -8.517 -24.633  0.00  0.00    +0.024 C 
ATOM     18  C   UNL     1      32.792  -8.030 -25.592  0.00  0.00    +0.095 C 
ATOM     19  C   UNL     1      35.165  -8.822 -25.976  0.00  0.00    +0.293 C 
BRANCH  19  20
ATOM     20  C   UNL     1      35.250  -7.943 -27.121  0.00  0.00    -0.007 C 
ATOM     21  C   UNL     1      35.321  -7.214 -28.072  0.00  0.00    -0.081 C 
ATOM     22  C   UNL     1      35.407  -6.326 -29.231  0.00  0.00    +0.090 C 
ENDBRANCH  19  20
ENDBRANCH   5  15
BRANCH   7  23
ATOM     23  C   UNL     1      34.148 -14.439 -23.284  0.00  0.00    +0.028 C 
ATOM     24  C   UNL     1      34.179 -14.527 -21.891  0.00  0.00    +0.002 C 
ATOM     25  C   UNL     1      34.424 -15.564 -24.061  0.00  0.00    +0.002 C 
ATOM     26  C   UNL     1      34.487 -15.741 -21.277  0.00  0.00    +0.005 C 
ATOM     27  C   UNL     1      34.732 -16.777 -23.446  0.00  0.00    +0.005 C 
ATOM     28  C   UNL     1      34.763 -16.866 -22.054  0.00  0.00    +0.054 C 
BRANCH  28  31
ATOM     29  O   UNL     1      36.273 -18.466 -21.298  0.00  0.00    -0.270 OA
ATOM     30  N   UNL     1      33.988 -18.896 -20.989  0.00  0.00    -0.266 N 
ATOM     31  C   UNL     1      35.082 -18.132 -21.413  0.00  0.00    +0.251 C 
ATOM     32  H   UNL     1      33.101 -18.499 -21.147  0.00  0.00    +0.157 HD
ATOM     33  N   UNL     1      32.803 -20.726 -20.035  0.00  0.00    -0.229 NA
ATOM     34  C   UNL     1      33.990 -20.167 -20.362  0.00  0.00    +0.134 C 
ATOM     35  C   UNL     1      35.219 -20.759 -20.121  0.00  0.00    +0.034 C 
ATOM     36  C   UNL     1      35.231 -22.007 -19.508  0.00  0.00    +0.004 C 
ATOM     37  C   UNL     1      32.854 -21.939 -19.439  0.00  0.00    +0.100 C 
ATOM     38  C   UNL     1      34.031 -22.615 -19.156  0.00  0.00    +0.021 C 
ENDBRANCH  28  31
ENDBRANCH   7  23
TORSDOF 4
ENDMDL
MODEL 4
REMARK VINA RESULT:     -11.6      3.754      6.802
REMARK  Name = 71226662
REMARK  4 active torsions:
REMARK  status: ('A' for Active; 'I' for Inactive)
REMARK    1  A    between atoms: C_5  and  C_15
REMARK    2  A    between atoms: C_7  and  C_23
REMARK    3  A    between atoms: C_19  and  C_20
REMARK    4  A    between atoms: C_28  and  C_31
REMARK                            x       y       z     vdW  Elec       q    Type
REMARK                         _______ _______ _______ _____ _____    ______ ____
ROOT
ATOM      1  N   UNL     1      31.248  -6.696 -22.194  0.00  0.00    -0.251 N 
ATOM      2  N   UNL     1      31.506  -7.894 -24.045  0.00  0.00    -0.392 NA
ATOM      3  N   UNL     1      31.660  -7.235 -19.504  0.00  0.00    -0.231 NA
ATOM      4  N   UNL     1      32.376  -9.403 -19.907  0.00  0.00    -0.344 N 
ATOM      5  C   UNL     1      31.143  -6.725 -23.557  0.00  0.00    +0.182 C 
ATOM      6  C   UNL     1      31.708  -7.926 -21.790  0.00  0.00    +0.185 C 
ATOM      7  C   UNL     1      31.859  -8.649 -22.951  0.00  0.00    +0.136 C 
ATOM      8  C   UNL     1      30.987  -5.716 -21.260  0.00  0.00    +0.089 C 
ATOM      9  C   UNL     1      31.918  -8.192 -20.375  0.00  0.00    +0.128 C 
ATOM     10  C   UNL     1      31.199  -6.013 -19.967  0.00  0.00    +0.116 C 
ATOM     11  H   UNL     1      32.505  -9.539 -18.940  0.00  0.00    +0.143 HD
ATOM     12  H   UNL     1      32.576 -10.131 -20.538  0.00  0.00    +0.143 HD
ENDROOT
BRANCH   5  15
ATOM     13  O   UNL     1      32.697  -3.862 -23.154  0.00  0.00    -0.260 OA
ATOM     14  N   UNL     1      31.738  -4.802 -25.046  0.00  0.00    -0.263 N 
ATOM     15  C   UNL     1      30.665  -5.534 -24.366  0.00  0.00    +0.143 C 
ATOM     16  C   UNL     1      29.720  -5.941 -25.505  0.00  0.00    +0.030 C 
ATOM     17  C   UNL     1      30.640  -6.064 -26.716  0.00  0.00    +0.024 C 
ATOM     18  C   UNL     1      31.652  -4.950 -26.497  0.00  0.00    +0.095 C 
ATOM     19  C   UNL     1      32.630  -3.981 -24.373  0.00  0.00    +0.293 C 
BRANCH  19  20
ATOM     20  C   UNL     1      33.552  -3.208 -25.175  0.00  0.00    -0.007 C 
ATOM     21  C   UNL     1      34.317  -2.566 -25.841  0.00  0.00    -0.081 C 
ATOM     22  C   UNL     1      35.249  -1.786 -26.653  0.00  0.00    +0.090 C 
ENDBRANCH  19  20
ENDBRANCH   5  15
BRANCH   7  23
ATOM     23  C   UNL     1      32.316  -9.999 -23.068  0.00  0.00    +0.028 C 
ATOM     24  C   UNL     1      33.394 -10.302 -23.901  0.00  0.00    +0.002 C 
ATOM     25  C   UNL     1      31.683 -11.014 -22.349  0.00  0.00    +0.002 C 
ATOM     26  C   UNL     1      33.838 -11.619 -24.015  0.00  0.00    +0.005 C 
ATOM     27  C   UNL     1      32.128 -12.331 -22.464  0.00  0.00    +0.005 C 
ATOM     28  C   UNL     1      33.205 -12.634 -23.297  0.00  0.00    +0.054 C 
BRANCH  28  31
ATOM     29  O   UNL     1      34.570 -14.406 -22.658  0.00  0.00    -0.270 OA
ATOM     30  N   UNL     1      33.061 -14.775 -24.416  0.00  0.00    -0.266 N 
ATOM     31  C   UNL     1      33.670 -14.007 -23.415  0.00  0.00    +0.251 C 
ATOM     32  H   UNL     1      32.360 -14.322 -24.938  0.00  0.00    +0.157 HD
ATOM     33  N   UNL     1      32.608 -16.668 -25.785  0.00  0.00    -0.229 NA
ATOM     34  C   UNL     1      33.323 -16.120 -24.776  0.00  0.00    +0.134 C 
ATOM     35  C   UNL     1      34.302 -16.794 -24.065  0.00  0.00    +0.034 C 
ATOM     36  C   UNL     1      34.567 -18.114 -24.412  0.00  0.00    +0.004 C 
ATOM     37  C   UNL     1      32.891 -17.953 -26.093  0.00  0.00    +0.100 C 
ATOM     38  C   UNL     1      33.852 -18.713 -25.445  0.00  0.00    +0.021 C 
ENDBRANCH  28  31
ENDBRANCH   7  23
TORSDOF 4
ENDMDL
MODEL 5
REMARK VINA RESULT:     -11.4      3.692      6.385
REMARK  Name = 71226662
REMARK  4 active torsions:
REMARK  status: ('A' for Active; 'I' for Inactive)
REMARK    1  A    between atoms: C_5  and  C_15
REMARK    2  A    between atoms: C_7  and  C_23
REMARK    3  A    between atoms: C_19  and  C_20
REMARK    4  A    between atoms: C_28  and  C_31
REMARK                            x       y       z     vdW  Elec       q    Type
REMARK                         _______ _______ _______ _____ _____    ______ ____
ROOT
ATOM      1  N   UNL     1      31.254  -6.905 -22.145  0.00  0.00    -0.251 N 
ATOM      2  N   UNL     1      31.502  -8.031 -24.041  0.00  0.00    -0.392 NA
ATOM      3  N   UNL     1      31.684  -7.542 -19.479  0.00  0.00    -0.231 NA
ATOM      4  N   UNL     1      32.402  -9.692 -19.967  0.00  0.00    -0.344 N 
ATOM      5  C   UNL     1      31.140  -6.883 -23.507  0.00  0.00    +0.182 C 
ATOM      6  C   UNL     1      31.718  -8.148 -21.790  0.00  0.00    +0.185 C 
ATOM      7  C   UNL     1      31.864  -8.826 -22.978  0.00  0.00    +0.136 C 
ATOM      8  C   UNL     1      30.996  -5.960 -21.173  0.00  0.00    +0.089 C 
ATOM      9  C   UNL     1      31.938  -8.465 -20.387  0.00  0.00    +0.128 C 
ATOM     10  C   UNL     1      31.216  -6.305 -19.894  0.00  0.00    +0.116 C 
ATOM     11  H   UNL     1      32.537  -9.864 -19.007  0.00  0.00    +0.143 HD
ATOM     12  H   UNL     1      32.600 -10.396 -20.626  0.00  0.00    +0.143 HD
ENDROOT
BRANCH   5  15
ATOM     13  O   UNL     1      32.670  -4.026 -22.984  0.00  0.00    -0.260 OA
ATOM     14  N   UNL     1      31.722  -4.895 -24.915  0.00  0.00    -0.263 N 
ATOM     15  C   UNL     1      30.654  -5.664 -24.268  0.00  0.00    +0.143 C 
ATOM     16  C   UNL     1      29.715  -6.031 -25.425  0.00  0.00    +0.030 C 
ATOM     17  C   UNL     1      30.639  -6.097 -26.637  0.00  0.00    +0.024 C 
ATOM     18  C   UNL     1      31.641  -4.985 -26.371  0.00  0.00    +0.095 C 
ATOM     19  C   UNL     1      32.607  -4.096 -24.206  0.00  0.00    +0.293 C 
BRANCH  19  20
ATOM     20  C   UNL     1      33.524  -3.284 -24.974  0.00  0.00    -0.007 C 
ATOM     21  C   UNL     1      34.285  -2.609 -25.611  0.00  0.00    -0.081 C 
ATOM     22  C   UNL     1      35.213  -1.787 -26.387  0.00  0.00    +0.090 C 
ENDBRANCH  19  20
ENDBRANCH   5  15
BRANCH   7  23
ATOM     23  C   UNL     1      32.323 -10.170 -23.148  0.00  0.00    +0.028 C 
ATOM     24  C   UNL     1      31.699 -11.214 -22.463  0.00  0.00    +0.002 C 
ATOM     25  C   UNL     1      33.397 -10.437 -23.998  0.00  0.00    +0.002 C 
ATOM     26  C   UNL     1      32.148 -12.523 -22.629  0.00  0.00    +0.005 C 
ATOM     27  C   UNL     1      33.845 -11.747 -24.164  0.00  0.00    +0.005 C 
ATOM     28  C   UNL     1      33.222 -12.790 -23.479  0.00  0.00    +0.054 C 
BRANCH  28  31
ATOM     29  O   UNL     1      33.686 -14.654 -24.791  0.00  0.00    -0.270 OA
ATOM     30  N   UNL     1      34.090 -14.820 -22.486  0.00  0.00    -0.266 N 
ATOM     31  C   UNL     1      33.688 -14.157 -23.653  0.00  0.00    +0.251 C 
ATOM     32  H   UNL     1      34.037 -14.294 -21.655  0.00  0.00    +0.157 HD
ATOM     33  N   UNL     1      34.898 -16.585 -21.110  0.00  0.00    -0.229 NA
ATOM     34  C   UNL     1      34.562 -16.148 -22.345  0.00  0.00    +0.134 C 
ATOM     35  C   UNL     1      34.652 -16.920 -23.491  0.00  0.00    +0.034 C 
ATOM     36  C   UNL     1      35.114 -18.225 -23.363  0.00  0.00    +0.004 C 
ATOM     37  C   UNL     1      35.343 -17.858 -21.024  0.00  0.00    +0.100 C 
ATOM     38  C   UNL     1      35.468 -18.711 -22.109  0.00  0.00    +0.021 C 
ENDBRANCH  28  31
ENDBRANCH   7  23
TORSDOF 4
ENDMDL
MODEL 6
REMARK VINA RESULT:     -10.9      2.160      3.246
REMARK  Name = 71226662
REMARK  4 active torsions:
REMARK  status: ('A' for Active; 'I' for Inactive)
REMARK    1  A    between atoms: C_5  and  C_15
REMARK    2  A    between atoms: C_7  and  C_23
REMARK    3  A    between atoms: C_19  and  C_20
REMARK    4  A    between atoms: C_28  and  C_31
REMARK                            x       y       z     vdW  Elec       q    Type
REMARK                         _______ _______ _______ _____ _____    ______ ____
ROOT
ATOM      1  N   UNL     1      33.004 -10.945 -23.623  0.00  0.00    -0.251 N 
ATOM      2  N   UNL     1      34.563 -12.366 -24.312  0.00  0.00    -0.392 NA
ATOM      3  N   UNL     1      31.079 -11.048 -21.628  0.00  0.00    -0.231 NA
ATOM      4  N   UNL     1      31.705 -13.173 -20.944  0.00  0.00    -0.344 N 
ATOM      5  C   UNL     1      34.024 -11.180 -24.502  0.00  0.00    +0.182 C 
ATOM      6  C   UNL     1      32.888 -12.054 -22.821  0.00  0.00    +0.185 C 
ATOM      7  C   UNL     1      33.861 -12.919 -23.265  0.00  0.00    +0.136 C 
ATOM      8  C   UNL     1      32.159  -9.870 -23.442  0.00  0.00    +0.089 C 
ATOM      9  C   UNL     1      31.872 -12.092 -21.780  0.00  0.00    +0.128 C 
ATOM     10  C   UNL     1      31.240  -9.956 -22.465  0.00  0.00    +0.116 C 
ATOM     11  H   UNL     1      31.005 -13.156 -20.251  0.00  0.00    +0.143 HD
ATOM     12  H   UNL     1      32.286 -13.962 -21.037  0.00  0.00    +0.143 HD
ENDROOT
BRANCH   5  15
ATOM     13  O   UNL     1      31.832 -10.315 -26.787  0.00  0.00    -0.260 OA
ATOM     14  N   UNL     1      33.495  -9.073 -25.750  0.00  0.00    -0.263 N 
ATOM     15  C   UNL     1      34.449 -10.170 -25.552  0.00  0.00    +0.143 C 
ATOM     16  C   UNL     1      35.756  -9.456 -25.183  0.00  0.00    +0.030 C 
ATOM     17  C   UNL     1      35.291  -8.169 -24.508  0.00  0.00    +0.024 C 
ATOM     18  C   UNL     1      34.041  -7.799 -25.292  0.00  0.00    +0.095 C 
ATOM     19  C   UNL     1      32.285  -9.241 -26.406  0.00  0.00    +0.293 C 
BRANCH  19  20
ATOM     20  C   UNL     1      31.499  -8.053 -26.657  0.00  0.00    -0.007 C 
ATOM     21  C   UNL     1      30.847  -7.067 -26.865  0.00  0.00    -0.081 C 
ATOM     22  C   UNL     1      30.054  -5.865 -27.118  0.00  0.00    +0.090 C 
ENDBRANCH  19  20
ENDBRANCH   5  15
BRANCH   7  23
ATOM     23  C   UNL     1      34.151 -14.222 -22.752  0.00  0.00    +0.028 C 
ATOM     24  C   UNL     1      34.297 -14.414 -21.377  0.00  0.00    +0.002 C 
ATOM     25  C   UNL     1      34.289 -15.301 -23.625  0.00  0.00    +0.002 C 
ATOM     26  C   UNL     1      34.581 -15.684 -20.877  0.00  0.00    +0.005 C 
ATOM     27  C   UNL     1      34.572 -16.571 -23.125  0.00  0.00    +0.005 C 
ATOM     28  C   UNL     1      34.719 -16.763 -21.751  0.00  0.00    +0.054 C 
BRANCH  28  31
ATOM     29  O   UNL     1      36.192 -18.481 -21.211  0.00  0.00    -0.270 OA
ATOM     30  N   UNL     1      33.909 -18.837 -20.800  0.00  0.00    -0.266 N 
ATOM     31  C   UNL     1      35.013 -18.088 -21.229  0.00  0.00    +0.251 C 
ATOM     32  H   UNL     1      33.034 -18.391 -20.875  0.00  0.00    +0.157 HD
ATOM     33  N   UNL     1      32.694 -20.685 -19.922  0.00  0.00    -0.229 NA
ATOM     34  C   UNL     1      33.886 -20.152 -20.274  0.00  0.00    +0.134 C 
ATOM     35  C   UNL     1      35.097 -20.814 -20.154  0.00  0.00    +0.034 C 
ATOM     36  C   UNL     1      35.085 -22.106 -19.639  0.00  0.00    +0.004 C 
ATOM     37  C   UNL     1      32.722 -21.942 -19.425  0.00  0.00    +0.100 C 
ATOM     38  C   UNL     1      33.878 -22.688 -19.265  0.00  0.00    +0.021 C 
ENDBRANCH  28  31
ENDBRANCH   7  23
TORSDOF 4
ENDMDL
MODEL 7
REMARK VINA RESULT:     -10.5      3.476      6.549
REMARK  Name = 71226662
REMARK  4 active torsions:
REMARK  status: ('A' for Active; 'I' for Inactive)
REMARK    1  A    between atoms: C_5  and  C_15
REMARK    2  A    between atoms: C_7  and  C_23
REMARK    3  A    between atoms: C_19  and  C_20
REMARK    4  A    between atoms: C_28  and  C_31
REMARK                            x       y       z     vdW  Elec       q    Type
REMARK                         _______ _______ _______ _____ _____    ______ ____
ROOT
ATOM      1  N   UNL     1      32.119  -6.900 -21.881  0.00  0.00    -0.251 N 
ATOM      2  N   UNL     1      32.625  -7.813 -23.840  0.00  0.00    -0.392 NA
ATOM      3  N   UNL     1      31.757  -7.935 -19.333  0.00  0.00    -0.231 NA
ATOM      4  N   UNL     1      32.180 -10.112 -20.008  0.00  0.00    -0.344 N 
ATOM      5  C   UNL     1      32.352  -6.688 -23.211  0.00  0.00    +0.182 C 
ATOM      6  C   UNL     1      32.253  -8.247 -21.649  0.00  0.00    +0.185 C 
ATOM      7  C   UNL     1      32.565  -8.791 -22.873  0.00  0.00    +0.136 C 
ATOM      8  C   UNL     1      31.801  -6.048 -20.844  0.00  0.00    +0.089 C 
ATOM      9  C   UNL     1      32.060  -8.773 -20.306  0.00  0.00    +0.128 C 
ATOM     10  C   UNL     1      31.634  -6.586 -19.624  0.00  0.00    +0.116 C 
ATOM     11  H   UNL     1      32.041 -10.425 -19.085  0.00  0.00    +0.143 HD
ATOM     12  H   UNL     1      32.406 -10.756 -20.717  0.00  0.00    +0.143 HD
ENDROOT
BRANCH   5  15
ATOM     13  O   UNL     1      33.531  -6.337 -26.254  0.00  0.00    -0.260 OA
ATOM     14  N   UNL     1      31.743  -5.298 -25.203  0.00  0.00    -0.263 N 
ATOM     15  C   UNL     1      32.293  -5.310 -23.844  0.00  0.00    +0.143 C 
ATOM     16  C   UNL     1      31.381  -4.349 -23.070  0.00  0.00    +0.030 C 
ATOM     17  C   UNL     1      30.043  -4.453 -23.795  0.00  0.00    +0.024 C 
ATOM     18  C   UNL     1      30.449  -4.621 -25.251  0.00  0.00    +0.095 C 
ATOM     19  C   UNL     1      32.445  -5.769 -26.302  0.00  0.00    +0.293 C 
BRANCH  19  20
ATOM     20  C   UNL     1      31.846  -5.573 -27.603  0.00  0.00    -0.007 C 
ATOM     21  C   UNL     1      31.349  -5.410 -28.683  0.00  0.00    -0.081 C 
ATOM     22  C   UNL     1      30.743  -5.212 -29.999  0.00  0.00    +0.090 C 
ENDBRANCH  19  20
ENDBRANCH   5  15
BRANCH   7  23
ATOM     23  C   UNL     1      32.807 -10.171 -23.163  0.00  0.00    +0.028 C 
ATOM     24  C   UNL     1      31.983 -11.154 -22.615  0.00  0.00    +0.002 C 
ATOM     25  C   UNL     1      33.866 -10.533 -23.995  0.00  0.00    +0.002 C 
ATOM     26  C   UNL     1      32.219 -12.499 -22.897  0.00  0.00    +0.005 C 
ATOM     27  C   UNL     1      34.102 -11.878 -24.278  0.00  0.00    +0.005 C 
ATOM     28  C   UNL     1      33.279 -12.861 -23.729  0.00  0.00    +0.054 C 
BRANCH  28  31
ATOM     29  O   UNL     1      33.160 -14.721 -25.121  0.00  0.00    -0.270 OA
ATOM     30  N   UNL     1      34.147 -15.004 -23.012  0.00  0.00    -0.266 N 
ATOM     31  C   UNL     1      33.524 -14.264 -24.025  0.00  0.00    +0.251 C 
ATOM     32  H   UNL     1      34.380 -14.503 -22.196  0.00  0.00    +0.157 HD
ATOM     33  N   UNL     1      35.090 -16.890 -21.908  0.00  0.00    -0.229 NA
ATOM     34  C   UNL     1      34.487 -16.379 -23.006  0.00  0.00    +0.134 C 
ATOM     35  C   UNL     1      34.177 -17.119 -24.135  0.00  0.00    +0.034 C 
ATOM     36  C   UNL     1      34.505 -18.471 -24.139  0.00  0.00    +0.004 C 
ATOM     37  C   UNL     1      35.395 -18.206 -21.948  0.00  0.00    +0.100 C 
ATOM     38  C   UNL     1      35.126 -19.032 -23.028  0.00  0.00    +0.021 C 
ENDBRANCH  28  31
ENDBRANCH   7  23
TORSDOF 4
ENDMDL
MODEL 8
REMARK VINA RESULT:     -10.4      3.594      5.377
REMARK  Name = 71226662
REMARK  4 active torsions:
REMARK  status: ('A' for Active; 'I' for Inactive)
REMARK    1  A    between atoms: C_5  and  C_15
REMARK    2  A    between atoms: C_7  and  C_23
REMARK    3  A    between atoms: C_19  and  C_20
REMARK    4  A    between atoms: C_28  and  C_31
REMARK                            x       y       z     vdW  Elec       q    Type
REMARK                         _______ _______ _______ _____ _____    ______ ____
ROOT
ATOM      1  N   UNL     1      32.124  -7.829 -24.651  0.00  0.00    -0.251 N 
ATOM      2  N   UNL     1      32.936  -9.225 -26.173  0.00  0.00    -0.392 NA
ATOM      3  N   UNL     1      31.345  -8.136 -22.006  0.00  0.00    -0.231 NA
ATOM      4  N   UNL     1      31.860 -10.396 -21.974  0.00  0.00    -0.344 N 
ATOM      5  C   UNL     1      32.571  -7.982 -25.933  0.00  0.00    +0.182 C 
ATOM      6  C   UNL     1      32.210  -9.054 -24.035  0.00  0.00    +0.185 C 
ATOM      7  C   UNL     1      32.714  -9.900 -24.994  0.00  0.00    +0.136 C 
ATOM      8  C   UNL     1      31.646  -6.738 -23.956  0.00  0.00    +0.089 C 
ATOM      9  C   UNL     1      31.797  -9.197 -22.647  0.00  0.00    +0.128 C 
ATOM     10  C   UNL     1      31.279  -6.925 -22.677  0.00  0.00    +0.116 C 
ATOM     11  H   UNL     1      31.570 -10.448 -21.034  0.00  0.00    +0.143 HD
ATOM     12  H   UNL     1      32.194 -11.201 -22.431  0.00  0.00    +0.143 HD
ENDROOT
BRANCH   5  15
ATOM     13  O   UNL     1      29.753  -6.984 -27.289  0.00  0.00    -0.260 OA
ATOM     14  N   UNL     1      31.639  -5.779 -26.673  0.00  0.00    -0.263 N 
ATOM     15  C   UNL     1      32.625  -6.835 -26.925  0.00  0.00    +0.143 C 
ATOM     16  C   UNL     1      33.969  -6.096 -26.895  0.00  0.00    +0.030 C 
ATOM     17  C   UNL     1      33.720  -4.925 -25.950  0.00  0.00    +0.024 C 
ATOM     18  C   UNL     1      32.280  -4.537 -26.250  0.00  0.00    +0.095 C 
ATOM     19  C   UNL     1      30.286  -5.938 -26.934  0.00  0.00    +0.293 C 
BRANCH  19  20
ATOM     20  C   UNL     1      29.441  -4.776 -26.773  0.00  0.00    -0.007 C 
ATOM     21  C   UNL     1      28.740  -3.810 -26.639  0.00  0.00    -0.081 C 
ATOM     22  C   UNL     1      27.885  -2.635 -26.477  0.00  0.00    +0.090 C 
ENDBRANCH  19  20
ENDBRANCH   5  15
BRANCH   7  23
ATOM     23  C   UNL     1      32.991 -11.296 -24.848  0.00  0.00    +0.028 C 
ATOM     24  C   UNL     1      33.627 -11.765 -23.697  0.00  0.00    +0.002 C 
ATOM     25  C   UNL     1      32.627 -12.189 -25.856  0.00  0.00    +0.002 C 
ATOM     26  C   UNL     1      33.897 -13.126 -23.555  0.00  0.00    +0.005 C 
ATOM     27  C   UNL     1      32.897 -13.549 -25.713  0.00  0.00    +0.005 C 
ATOM     28  C   UNL     1      33.533 -14.018 -24.563  0.00  0.00    +0.054 C 
BRANCH  28  31
ATOM     29  O   UNL     1      33.623 -16.194 -25.381  0.00  0.00    -0.270 OA
ATOM     30  N   UNL     1      34.265 -15.843 -23.152  0.00  0.00    -0.266 N 
ATOM     31  C   UNL     1      33.813 -15.437 -24.414  0.00  0.00    +0.251 C 
ATOM     32  H   UNL     1      34.370 -15.127 -22.484  0.00  0.00    +0.157 HD
ATOM     33  N   UNL     1      35.013 -17.311 -21.435  0.00  0.00    -0.229 NA
ATOM     34  C   UNL     1      34.592 -17.149 -22.709  0.00  0.00    +0.134 C 
ATOM     35  C   UNL     1      34.459 -18.184 -23.620  0.00  0.00    +0.034 C 
ATOM     36  C   UNL     1      34.776 -19.469 -23.196  0.00  0.00    +0.004 C 
ATOM     37  C   UNL     1      35.313 -18.574 -21.058  0.00  0.00    +0.100 C 
ATOM     38  C   UNL     1      35.213 -19.677 -21.891  0.00  0.00    +0.021 C 
ENDBRANCH  28  31
ENDBRANCH   7  23
TORSDOF 4
ENDMDL
MODEL 9
REMARK VINA RESULT:     -10.3      3.536      6.814
REMARK  Name = 71226662
REMARK  4 active torsions:
REMARK  status: ('A' for Active; 'I' for Inactive)
REMARK    1  A    between atoms: C_5  and  C_15
REMARK    2  A    between atoms: C_7  and  C_23
REMARK    3  A    between atoms: C_19  and  C_20
REMARK    4  A    between atoms: C_28  and  C_31
REMARK                            x       y       z     vdW  Elec       q    Type
REMARK                         _______ _______ _______ _____ _____    ______ ____
ROOT
ATOM      1  N   UNL     1      31.480  -6.639 -22.607  0.00  0.00    -0.251 N 
ATOM      2  N   UNL     1      31.761  -7.927 -24.393  0.00  0.00    -0.392 NA
ATOM      3  N   UNL     1      31.764  -7.072 -19.881  0.00  0.00    -0.231 NA
ATOM      4  N   UNL     1      32.406  -9.282 -20.161  0.00  0.00    -0.344 N 
ATOM      5  C   UNL     1      31.427  -6.725 -23.970  0.00  0.00    +0.182 C 
ATOM      6  C   UNL     1      31.873  -7.867 -22.132  0.00  0.00    +0.185 C 
ATOM      7  C   UNL     1      32.040  -8.646 -23.253  0.00  0.00    +0.136 C 
ATOM      8  C   UNL     1      31.222  -5.608 -21.728  0.00  0.00    +0.089 C 
ATOM      9  C   UNL     1      32.016  -8.077 -20.699  0.00  0.00    +0.128 C 
ATOM     10  C   UNL     1      31.371  -5.856 -20.416  0.00  0.00    +0.116 C 
ATOM     11  H   UNL     1      32.491  -9.380 -19.184  0.00  0.00    +0.143 HD
ATOM     12  H   UNL     1      32.601 -10.046 -20.751  0.00  0.00    +0.143 HD
ENDROOT
BRANCH   5  15
ATOM     13  O   UNL     1      33.819  -4.893 -25.273  0.00  0.00    -0.260 OA
ATOM     14  N   UNL     1      31.747  -5.493 -26.127  0.00  0.00    -0.263 N 
ATOM     15  C   UNL     1      31.029  -5.554 -24.850  0.00  0.00    +0.143 C 
ATOM     16  C   UNL     1      29.552  -5.605 -25.261  0.00  0.00    +0.030 C 
ATOM     17  C   UNL     1      29.577  -6.286 -26.626  0.00  0.00    +0.024 C 
ATOM     18  C   UNL     1      30.856  -5.755 -27.255  0.00  0.00    +0.095 C 
ATOM     19  C   UNL     1      33.077  -5.111 -26.224  0.00  0.00    +0.293 C 
BRANCH  19  20
ATOM     20  C   UNL     1      33.625  -4.958 -27.553  0.00  0.00    -0.007 C 
ATOM     21  C   UNL     1      34.081  -4.832 -28.656  0.00  0.00    -0.081 C 
ATOM     22  C   UNL     1      34.636  -4.679 -30.000  0.00  0.00    +0.090 C 
ENDBRANCH  19  20
ENDBRANCH   5  15
BRANCH   7  23
ATOM     23  C   UNL     1      32.446 -10.017 -23.293  0.00  0.00    +0.028 C 
ATOM     24  C   UNL     1      31.776 -10.967 -22.520  0.00  0.00    +0.002 C 
ATOM     25  C   UNL     1      33.513 -10.405 -24.104  0.00  0.00    +0.002 C 
ATOM     26  C   UNL     1      32.173 -12.303 -22.558  0.00  0.00    +0.005 C 
ATOM     27  C   UNL     1      33.909 -11.741 -24.142  0.00  0.00    +0.005 C 
ATOM     28  C   UNL     1      33.240 -12.691 -23.370  0.00  0.00    +0.054 C 
BRANCH  28  31
ATOM     29  O   UNL     1      34.459 -14.500 -22.561  0.00  0.00    -0.270 OA
ATOM     30  N   UNL     1      33.108 -14.854 -24.447  0.00  0.00    -0.266 N 
ATOM     31  C   UNL     1      33.653 -14.084 -23.411  0.00  0.00    +0.251 C 
ATOM     32  H   UNL     1      32.481 -14.386 -25.044  0.00  0.00    +0.157 HD
ATOM     33  N   UNL     1      32.703 -16.763 -25.809  0.00  0.00    -0.229 NA
ATOM     34  C   UNL     1      33.343 -16.218 -24.749  0.00  0.00    +0.134 C 
ATOM     35  C   UNL     1      34.220 -16.913 -23.932  0.00  0.00    +0.034 C 
ATOM     36  C   UNL     1      34.458 -18.252 -24.221  0.00  0.00    +0.004 C 
ATOM     37  C   UNL     1      32.958 -18.067 -26.058  0.00  0.00    +0.100 C 
ATOM     38  C   UNL     1      33.818 -18.848 -25.303  0.00  0.00    +0.021 C 
ENDBRANCH  28  31
ENDBRANCH   7  23
TORSDOF 4
ENDMDL
