MODEL 1
REMARK VINA RESULT:     -11.9      0.000      0.000
REMARK  Name = 71183216
REMARK  5 active torsions:
REMARK  status: ('A' for Active; 'I' for Inactive)
REMARK    1  A    between atoms: N_3  and  C_24
REMARK    2  A    between atoms: C_10  and  C_13
REMARK    3  A    between atoms: C_18  and  O_19
REMARK    4  A    between atoms: O_19  and  C_23
REMARK    5  A    between atoms: C_24  and  C_27
REMARK                            x       y       z     vdW  Elec       q    Type
REMARK                         _______ _______ _______ _____ _____    ______ ____
ROOT
ATOM      1  O   UNL     1      34.693 -16.569 -25.632  0.00  0.00    -0.473 OA
ATOM      2  O   UNL     1      35.264 -14.937 -22.099  0.00  0.00    -0.270 OA
ATOM      3  N   UNL     1      33.727 -14.591 -23.821  0.00  0.00    -0.259 N 
ATOM      4  C   UNL     1      32.789 -15.195 -24.763  0.00  0.00    +0.142 C 
ATOM      5  C   UNL     1      34.527 -16.833 -23.233  0.00  0.00    +0.087 C 
ATOM      6  C   UNL     1      33.517 -15.815 -25.950  0.00  0.00    +0.227 C 
ATOM      7  C   UNL     1      34.542 -15.369 -22.994  0.00  0.00    +0.253 C 
ATOM      8  C   UNL     1      34.566 -17.365 -24.528  0.00  0.00    +0.143 C 
ATOM      9  C   UNL     1      34.507 -17.690 -22.128  0.00  0.00    +0.008 C 
ATOM     10  C   UNL     1      34.518 -19.071 -22.323  0.00  0.00    +0.000 C 
ATOM     11  C   UNL     1      34.599 -18.746 -24.718  0.00  0.00    +0.037 C 
ATOM     12  C   UNL     1      34.563 -19.599 -23.615  0.00  0.00    +0.003 C 
ENDROOT
BRANCH  10  13
ATOM     13  C   UNL     1      34.488 -19.962 -21.182  0.00  0.00    +0.000 C 
ATOM     14  C   UNL     1      35.681 -20.378 -20.591  0.00  0.00    +0.003 C 
ATOM     15  C   UNL     1      33.266 -20.405 -20.677  0.00  0.00    +0.003 C 
ATOM     16  C   UNL     1      35.651 -21.237 -19.492  0.00  0.00    +0.037 C 
ATOM     17  C   UNL     1      33.237 -21.265 -19.578  0.00  0.00    +0.037 C 
ATOM     18  C   UNL     1      34.430 -21.681 -18.986  0.00  0.00    +0.147 C 
BRANCH  18  19
ATOM     19  O   UNL     1      34.401 -22.521 -17.916  0.00  0.00    -0.404 OA
BRANCH  19  23
ATOM     20  F   UNL     1      32.125 -22.502 -17.694  0.00  0.00    -0.133 F 
ATOM     21  F   UNL     1      33.310 -23.875 -16.476  0.00  0.00    -0.133 F 
ATOM     22  F   UNL     1      33.094 -24.262 -18.616  0.00  0.00    -0.133 F 
ATOM     23  C   UNL     1      33.223 -23.287 -17.691  0.00  0.00    +0.575 C 
ENDBRANCH  19  23
ENDBRANCH  18  19
ENDBRANCH  10  13
BRANCH   3  24
ATOM     24  C   UNL     1      33.760 -13.139 -23.746  0.00  0.00    +0.194 C 
BRANCH  24  27
ATOM     25  N   UNL     1      32.270 -11.406 -22.939  0.00  0.00    -0.217 NA
ATOM     26  N   UNL     1      32.630 -13.388 -21.616  0.00  0.00    -0.195 NA
ATOM     27  C   UNL     1      32.825 -12.609 -22.698  0.00  0.00    +0.028 C 
ATOM     28  C   UNL     1      31.435 -10.960 -21.977  0.00  0.00    +0.164 C 
ATOM     29  C   UNL     1      31.784 -12.882 -20.695  0.00  0.00    +0.107 C 
ATOM     30  C   UNL     1      31.152 -11.662 -20.823  0.00  0.00    +0.022 C 
ENDBRANCH  24  27
ENDBRANCH   3  24
TORSDOF 5
ENDMDL
MODEL 2
REMARK VINA RESULT:     -11.8      5.863      9.837
REMARK  Name = 71183216
REMARK  5 active torsions:
REMARK  status: ('A' for Active; 'I' for Inactive)
REMARK    1  A    between atoms: N_3  and  C_24
REMARK    2  A    between atoms: C_10  and  C_13
REMARK    3  A    between atoms: C_18  and  O_19
REMARK    4  A    between atoms: O_19  and  C_23
REMARK    5  A    between atoms: C_24  and  C_27
REMARK                            x       y       z     vdW  Elec       q    Type
REMARK                         _______ _______ _______ _____ _____    ______ ____
ROOT
ATOM      1  O   UNL     1      35.848 -23.646 -15.839  0.00  0.00    -0.473 OA
ATOM      2  O   UNL     1      32.429 -24.192 -17.706  0.00  0.00    -0.270 OA
ATOM      3  N   UNL     1      33.016 -23.633 -15.517  0.00  0.00    -0.259 N 
ATOM      4  C   UNL     1      33.823 -22.782 -14.647  0.00  0.00    +0.142 C 
ATOM      5  C   UNL     1      34.263 -22.780 -17.449  0.00  0.00    +0.087 C 
ATOM      6  C   UNL     1      35.268 -23.263 -14.585  0.00  0.00    +0.227 C 
ATOM      7  C   UNL     1      33.151 -23.599 -16.908  0.00  0.00    +0.253 C 
ATOM      8  C   UNL     1      35.541 -22.810 -16.876  0.00  0.00    +0.143 C 
ATOM      9  C   UNL     1      34.024 -21.990 -18.578  0.00  0.00    +0.008 C 
ATOM     10  C   UNL     1      35.059 -21.230 -19.123  0.00  0.00    +0.000 C 
ATOM     11  C   UNL     1      36.578 -22.065 -17.437  0.00  0.00    +0.037 C 
ATOM     12  C   UNL     1      36.333 -21.266 -18.553  0.00  0.00    +0.003 C 
ENDROOT
BRANCH  10  13
ATOM     13  C   UNL     1      34.813 -20.404 -20.286  0.00  0.00    +0.000 C 
ATOM     14  C   UNL     1      35.868 -19.727 -20.897  0.00  0.00    +0.003 C 
ATOM     15  C   UNL     1      33.520 -20.283 -20.794  0.00  0.00    +0.003 C 
ATOM     16  C   UNL     1      35.630 -18.930 -22.016  0.00  0.00    +0.037 C 
ATOM     17  C   UNL     1      33.282 -19.487 -21.914  0.00  0.00    +0.037 C 
ATOM     18  C   UNL     1      34.337 -18.809 -22.524  0.00  0.00    +0.147 C 
BRANCH  18  19
ATOM     19  O   UNL     1      34.105 -18.030 -23.616  0.00  0.00    -0.404 OA
BRANCH  19  23
ATOM     20  F   UNL     1      34.502 -19.871 -24.914  0.00  0.00    -0.133 F 
ATOM     21  F   UNL     1      34.398 -17.900 -25.851  0.00  0.00    -0.133 F 
ATOM     22  F   UNL     1      32.564 -18.827 -25.107  0.00  0.00    -0.133 F 
ATOM     23  C   UNL     1      33.883 -18.672 -24.868  0.00  0.00    +0.575 C 
ENDBRANCH  19  23
ENDBRANCH  18  19
ENDBRANCH  10  13
BRANCH   3  24
ATOM     24  C   UNL     1      32.033 -24.498 -14.885  0.00  0.00    +0.194 C 
BRANCH  24  27
ATOM     25  N   UNL     1      30.316 -22.787 -14.927  0.00  0.00    -0.217 NA
ATOM     26  N   UNL     1      29.811 -25.010 -15.708  0.00  0.00    -0.195 NA
ATOM     27  C   UNL     1      30.627 -24.070 -15.194  0.00  0.00    +0.028 C 
ATOM     28  C   UNL     1      29.045 -22.437 -15.215  0.00  0.00    +0.164 C 
ATOM     29  C   UNL     1      28.556 -24.592 -15.973  0.00  0.00    +0.107 C 
ATOM     30  C   UNL     1      28.112 -23.305 -15.745  0.00  0.00    +0.022 C 
ENDBRANCH  24  27
ENDBRANCH   3  24
TORSDOF 5
ENDMDL
MODEL 3
REMARK VINA RESULT:     -11.4      6.044      9.749
REMARK  Name = 71183216
REMARK  5 active torsions:
REMARK  status: ('A' for Active; 'I' for Inactive)
REMARK    1  A    between atoms: N_3  and  C_24
REMARK    2  A    between atoms: C_10  and  C_13
REMARK    3  A    between atoms: C_18  and  O_19
REMARK    4  A    between atoms: O_19  and  C_23
REMARK    5  A    between atoms: C_24  and  C_27
REMARK                            x       y       z     vdW  Elec       q    Type
REMARK                         _______ _______ _______ _____ _____    ______ ____
ROOT
ATOM      1  O   UNL     1      33.352 -18.656 -24.066  0.00  0.00    -0.473 OA
ATOM      2  O   UNL     1      34.565 -16.400 -21.081  0.00  0.00    -0.270 OA
ATOM      3  N   UNL     1      35.510 -18.174 -22.267  0.00  0.00    -0.259 N 
ATOM      4  C   UNL     1      35.806 -18.750 -23.576  0.00  0.00    +0.142 C 
ATOM      5  C   UNL     1      34.127 -16.473 -23.367  0.00  0.00    +0.087 C 
ATOM      6  C   UNL     1      34.570 -19.401 -24.187  0.00  0.00    +0.227 C 
ATOM      7  C   UNL     1      34.753 -17.007 -22.132  0.00  0.00    +0.253 C 
ATOM      8  C   UNL     1      33.492 -17.315 -24.289  0.00  0.00    +0.143 C 
ATOM      9  C   UNL     1      34.150 -15.092 -23.585  0.00  0.00    +0.008 C 
ATOM     10  C   UNL     1      33.547 -14.561 -24.726  0.00  0.00    +0.000 C 
ATOM     11  C   UNL     1      32.871 -16.778 -25.417  0.00  0.00    +0.037 C 
ATOM     12  C   UNL     1      32.910 -15.402 -25.640  0.00  0.00    +0.003 C 
ENDROOT
BRANCH  10  13
ATOM     13  C   UNL     1      33.577 -13.133 -24.959  0.00  0.00    +0.000 C 
ATOM     14  C   UNL     1      33.350 -12.631 -26.241  0.00  0.00    +0.003 C 
ATOM     15  C   UNL     1      33.836 -12.260 -23.903  0.00  0.00    +0.003 C 
ATOM     16  C   UNL     1      33.380 -11.254 -26.466  0.00  0.00    +0.037 C 
ATOM     17  C   UNL     1      33.867 -10.883 -24.128  0.00  0.00    +0.037 C 
ATOM     18  C   UNL     1      33.640 -10.381 -25.410  0.00  0.00    +0.147 C 
BRANCH  18  19
ATOM     19  O   UNL     1      33.671  -9.038 -25.630  0.00  0.00    -0.404 OA
BRANCH  19  23
ATOM     20  F   UNL     1      34.904  -7.230 -26.295  0.00  0.00    -0.133 F 
ATOM     21  F   UNL     1      35.868  -9.184 -26.127  0.00  0.00    -0.133 F 
ATOM     22  F   UNL     1      35.294  -8.116 -24.308  0.00  0.00    -0.133 F 
ATOM     23  C   UNL     1      34.930  -8.376 -25.582  0.00  0.00    +0.575 C 
ENDBRANCH  19  23
ENDBRANCH  18  19
ENDBRANCH  10  13
BRANCH   3  24
ATOM     24  C   UNL     1      36.066 -18.840 -21.100  0.00  0.00    +0.194 C 
BRANCH  24  27
ATOM     25  N   UNL     1      35.663 -20.834 -19.783  0.00  0.00    -0.217 NA
ATOM     26  N   UNL     1      33.811 -19.681 -20.809  0.00  0.00    -0.195 NA
ATOM     27  C   UNL     1      35.117 -19.852 -20.526  0.00  0.00    +0.028 C 
ATOM     28  C   UNL     1      34.782 -21.727 -19.284  0.00  0.00    +0.164 C 
ATOM     29  C   UNL     1      32.988 -20.608 -20.279  0.00  0.00    +0.107 C 
ATOM     30  C   UNL     1      33.421 -21.663 -19.500  0.00  0.00    +0.022 C 
ENDBRANCH  24  27
ENDBRANCH   3  24
TORSDOF 5
ENDMDL
MODEL 4
REMARK VINA RESULT:     -11.2      4.037      6.498
REMARK  Name = 71183216
REMARK  5 active torsions:
REMARK  status: ('A' for Active; 'I' for Inactive)
REMARK    1  A    between atoms: N_3  and  C_24
REMARK    2  A    between atoms: C_10  and  C_13
REMARK    3  A    between atoms: C_18  and  O_19
REMARK    4  A    between atoms: O_19  and  C_23
REMARK    5  A    between atoms: C_24  and  C_27
REMARK                            x       y       z     vdW  Elec       q    Type
REMARK                         _______ _______ _______ _____ _____    ______ ____
ROOT
ATOM      1  O   UNL     1      32.958 -21.031 -20.993  0.00  0.00    -0.473 OA
ATOM      2  O   UNL     1      36.881 -21.037 -20.701  0.00  0.00    -0.270 OA
ATOM      3  N   UNL     1      35.278 -19.375 -21.042  0.00  0.00    -0.259 N 
ATOM      4  C   UNL     1      34.010 -18.791 -20.611  0.00  0.00    +0.142 C 
ATOM      5  C   UNL     1      34.876 -21.270 -19.538  0.00  0.00    +0.087 C 
ATOM      6  C   UNL     1      32.824 -19.609 -21.111  0.00  0.00    +0.227 C 
ATOM      7  C   UNL     1      35.773 -20.553 -20.478  0.00  0.00    +0.253 C 
ATOM      8  C   UNL     1      33.514 -21.445 -19.815  0.00  0.00    +0.143 C 
ATOM      9  C   UNL     1      35.424 -21.807 -18.369  0.00  0.00    +0.008 C 
ATOM     10  C   UNL     1      34.608 -22.507 -17.480  0.00  0.00    +0.000 C 
ATOM     11  C   UNL     1      32.707 -22.165 -18.935  0.00  0.00    +0.037 C 
ATOM     12  C   UNL     1      33.253 -22.686 -17.762  0.00  0.00    +0.003 C 
ENDROOT
BRANCH  10  13
ATOM     13  C   UNL     1      35.170 -23.057 -16.265  0.00  0.00    +0.000 C 
ATOM     14  C   UNL     1      36.537 -22.944 -16.014  0.00  0.00    +0.003 C 
ATOM     15  C   UNL     1      34.343 -23.702 -15.345  0.00  0.00    +0.003 C 
ATOM     16  C   UNL     1      37.078 -23.475 -14.843  0.00  0.00    +0.037 C 
ATOM     17  C   UNL     1      34.884 -24.233 -14.174  0.00  0.00    +0.037 C 
ATOM     18  C   UNL     1      36.252 -24.120 -13.923  0.00  0.00    +0.147 C 
BRANCH  18  19
ATOM     19  O   UNL     1      36.780 -24.639 -12.781  0.00  0.00    -0.404 OA
BRANCH  19  23
ATOM     20  F   UNL     1      36.857 -26.680 -13.810  0.00  0.00    -0.133 F 
ATOM     21  F   UNL     1      37.251 -26.544 -11.665  0.00  0.00    -0.133 F 
ATOM     22  F   UNL     1      38.738 -25.783 -13.074  0.00  0.00    -0.133 F 
ATOM     23  C   UNL     1      37.414 -25.912 -12.850  0.00  0.00    +0.575 C 
ENDBRANCH  19  23
ENDBRANCH  18  19
ENDBRANCH  10  13
BRANCH   3  24
ATOM     24  C   UNL     1      36.031 -18.663 -22.062  0.00  0.00    +0.194 C 
BRANCH  24  27
ATOM     25  N   UNL     1      34.753 -19.369 -23.997  0.00  0.00    -0.217 NA
ATOM     26  N   UNL     1      34.937 -17.024 -23.473  0.00  0.00    -0.195 NA
ATOM     27  C   UNL     1      35.184 -18.330 -23.256  0.00  0.00    +0.028 C 
ATOM     28  C   UNL     1      33.995 -19.034 -25.062  0.00  0.00    +0.164 C 
ATOM     29  C   UNL     1      34.174 -16.761 -24.554  0.00  0.00    +0.107 C 
ATOM     30  C   UNL     1      33.670 -17.734 -25.393  0.00  0.00    +0.022 C 
ENDBRANCH  24  27
ENDBRANCH   3  24
TORSDOF 5
ENDMDL
MODEL 5
REMARK VINA RESULT:     -11.2      4.250      6.979
REMARK  Name = 71183216
REMARK  5 active torsions:
REMARK  status: ('A' for Active; 'I' for Inactive)
REMARK    1  A    between atoms: N_3  and  C_24
REMARK    2  A    between atoms: C_10  and  C_13
REMARK    3  A    between atoms: C_18  and  O_19
REMARK    4  A    between atoms: O_19  and  C_23
REMARK    5  A    between atoms: C_24  and  C_27
REMARK                            x       y       z     vdW  Elec       q    Type
REMARK                         _______ _______ _______ _____ _____    ______ ____
ROOT
ATOM      1  O   UNL     1      31.213  -9.415 -22.471  0.00  0.00    -0.473 OA
ATOM      2  O   UNL     1      33.034 -10.200 -25.868  0.00  0.00    -0.270 OA
ATOM      3  N   UNL     1      33.260  -8.534 -24.250  0.00  0.00    -0.259 N 
ATOM      4  C   UNL     1      33.383  -8.217 -22.829  0.00  0.00    +0.142 C 
ATOM      5  C   UNL     1      32.755 -10.858 -23.652  0.00  0.00    +0.087 C 
ATOM      6  C   UNL     1      32.033  -8.290 -22.125  0.00  0.00    +0.227 C 
ATOM      7  C   UNL     1      33.029  -9.839 -24.694  0.00  0.00    +0.253 C 
ATOM      8  C   UNL     1      31.896 -10.594 -22.576  0.00  0.00    +0.143 C 
ATOM      9  C   UNL     1      33.346 -12.119 -23.776  0.00  0.00    +0.008 C 
ATOM     10  C   UNL     1      33.085 -13.104 -22.824  0.00  0.00    +0.000 C 
ATOM     11  C   UNL     1      31.620 -11.589 -21.639  0.00  0.00    +0.037 C 
ATOM     12  C   UNL     1      32.225 -12.840 -21.757  0.00  0.00    +0.003 C 
ENDROOT
BRANCH  10  13
ATOM     13  C   UNL     1      33.703 -14.407 -22.945  0.00  0.00    +0.000 C 
ATOM     14  C   UNL     1      33.717 -15.062 -24.176  0.00  0.00    +0.003 C 
ATOM     15  C   UNL     1      34.283 -15.009 -21.828  0.00  0.00    +0.003 C 
ATOM     16  C   UNL     1      34.311 -16.318 -24.292  0.00  0.00    +0.037 C 
ATOM     17  C   UNL     1      34.878 -16.266 -21.944  0.00  0.00    +0.037 C 
ATOM     18  C   UNL     1      34.891 -16.921 -23.175  0.00  0.00    +0.147 C 
BRANCH  18  19
ATOM     19  O   UNL     1      35.470 -18.147 -23.288  0.00  0.00    -0.404 OA
BRANCH  19  23
ATOM     20  F   UNL     1      35.032 -20.047 -22.092  0.00  0.00    -0.133 F 
ATOM     21  F   UNL     1      34.758 -20.056 -24.260  0.00  0.00    -0.133 F 
ATOM     22  F   UNL     1      33.347 -18.951 -23.010  0.00  0.00    -0.133 F 
ATOM     23  C   UNL     1      34.644 -19.298 -23.146  0.00  0.00    +0.575 C 
ENDBRANCH  19  23
ENDBRANCH  18  19
ENDBRANCH  10  13
BRANCH   3  24
ATOM     24  C   UNL     1      33.421  -7.443 -25.197  0.00  0.00    +0.194 C 
BRANCH  24  27
ATOM     25  N   UNL     1      31.581  -7.314 -26.769  0.00  0.00    -0.217 NA
ATOM     26  N   UNL     1      31.565  -5.938 -24.791  0.00  0.00    -0.195 NA
ATOM     27  C   UNL     1      32.102  -6.860 -25.613  0.00  0.00    +0.028 C 
ATOM     28  C   UNL     1      30.396  -6.769 -27.113  0.00  0.00    +0.164 C 
ATOM     29  C   UNL     1      30.380  -5.435 -25.195  0.00  0.00    +0.107 C 
ATOM     30  C   UNL     1      29.742  -5.817 -26.358  0.00  0.00    +0.022 C 
ENDBRANCH  24  27
ENDBRANCH   3  24
TORSDOF 5
ENDMDL
MODEL 6
REMARK VINA RESULT:     -10.8      5.559      9.372
REMARK  Name = 71183216
REMARK  5 active torsions:
REMARK  status: ('A' for Active; 'I' for Inactive)
REMARK    1  A    between atoms: N_3  and  C_24
REMARK    2  A    between atoms: C_10  and  C_13
REMARK    3  A    between atoms: C_18  and  O_19
REMARK    4  A    between atoms: O_19  and  C_23
REMARK    5  A    between atoms: C_24  and  C_27
REMARK                            x       y       z     vdW  Elec       q    Type
REMARK                         _______ _______ _______ _____ _____    ______ ____
ROOT
ATOM      1  O   UNL     1      36.666 -22.444 -17.932  0.00  0.00    -0.473 OA
ATOM      2  O   UNL     1      33.197 -23.245 -19.605  0.00  0.00    -0.270 OA
ATOM      3  N   UNL     1      33.903 -22.908 -17.405  0.00  0.00    -0.259 N 
ATOM      4  C   UNL     1      34.661 -22.072 -16.479  0.00  0.00    +0.142 C 
ATOM      5  C   UNL     1      34.830 -21.618 -19.273  0.00  0.00    +0.087 C 
ATOM      6  C   UNL     1      36.159 -22.331 -16.596  0.00  0.00    +0.227 C 
ATOM      7  C   UNL     1      33.900 -22.663 -18.781  0.00  0.00    +0.253 C 
ATOM      8  C   UNL     1      36.148 -21.530 -18.807  0.00  0.00    +0.143 C 
ATOM      9  C   UNL     1      34.378 -20.726 -20.252  0.00  0.00    +0.008 C 
ATOM     10  C   UNL     1      35.240 -19.749 -20.750  0.00  0.00    +0.000 C 
ATOM     11  C   UNL     1      37.013 -20.566 -19.324  0.00  0.00    +0.037 C 
ATOM     12  C   UNL     1      36.554 -19.669 -20.287  0.00  0.00    +0.003 C 
ENDROOT
BRANCH  10  13
ATOM     13  C   UNL     1      34.772 -18.819 -21.755  0.00  0.00    +0.000 C 
ATOM     14  C   UNL     1      34.036 -19.282 -22.846  0.00  0.00    +0.003 C 
ATOM     15  C   UNL     1      35.059 -17.460 -21.634  0.00  0.00    +0.003 C 
ATOM     16  C   UNL     1      33.587 -18.385 -23.816  0.00  0.00    +0.037 C 
ATOM     17  C   UNL     1      34.610 -16.563 -22.603  0.00  0.00    +0.037 C 
ATOM     18  C   UNL     1      33.875 -17.025 -23.694  0.00  0.00    +0.147 C 
BRANCH  18  19
ATOM     19  O   UNL     1      33.437 -16.151 -24.641  0.00  0.00    -0.404 OA
BRANCH  19  23
ATOM     20  F   UNL     1      35.037 -16.900 -26.094  0.00  0.00    -0.133 F 
ATOM     21  F   UNL     1      33.760 -15.224 -26.674  0.00  0.00    -0.133 F 
ATOM     22  F   UNL     1      32.907 -17.235 -26.584  0.00  0.00    -0.133 F 
ATOM     23  C   UNL     1      33.788 -16.396 -25.999  0.00  0.00    +0.575 C 
ENDBRANCH  19  23
ENDBRANCH  18  19
ENDBRANCH  10  13
BRANCH   3  24
ATOM     24  C   UNL     1      33.115 -23.991 -16.840  0.00  0.00    +0.194 C 
BRANCH  24  27
ATOM     25  N   UNL     1      30.904 -23.013 -17.006  0.00  0.00    -0.217 NA
ATOM     26  N   UNL     1      31.809 -23.568 -14.842  0.00  0.00    -0.195 NA
ATOM     27  C   UNL     1      31.860 -23.491 -16.186  0.00  0.00    +0.028 C 
ATOM     28  C   UNL     1      29.790 -22.572 -16.385  0.00  0.00    +0.164 C 
ATOM     29  C   UNL     1      30.667 -23.110 -14.289  0.00  0.00    +0.107 C 
ATOM     30  C   UNL     1      29.614 -22.596 -15.017  0.00  0.00    +0.022 C 
ENDBRANCH  24  27
ENDBRANCH   3  24
TORSDOF 5
ENDMDL
MODEL 7
REMARK VINA RESULT:     -10.6      6.006      8.251
REMARK  Name = 71183216
REMARK  5 active torsions:
REMARK  status: ('A' for Active; 'I' for Inactive)
REMARK    1  A    between atoms: N_3  and  C_24
REMARK    2  A    between atoms: C_10  and  C_13
REMARK    3  A    between atoms: C_18  and  O_19
REMARK    4  A    between atoms: O_19  and  C_23
REMARK    5  A    between atoms: C_24  and  C_27
REMARK                            x       y       z     vdW  Elec       q    Type
REMARK                         _______ _______ _______ _____ _____    ______ ____
ROOT
ATOM      1  O   UNL     1      34.013  -7.893 -24.337  0.00  0.00    -0.473 OA
ATOM      2  O   UNL     1      31.374  -9.943 -22.262  0.00  0.00    -0.270 OA
ATOM      3  N   UNL     1      31.261  -8.038 -23.606  0.00  0.00    -0.259 N 
ATOM      4  C   UNL     1      31.615  -7.417 -24.880  0.00  0.00    +0.142 C 
ATOM      5  C   UNL     1      32.719  -9.929 -24.164  0.00  0.00    +0.087 C 
ATOM      6  C   UNL     1      33.071  -6.965 -24.891  0.00  0.00    +0.227 C 
ATOM      7  C   UNL     1      31.723  -9.309 -23.256  0.00  0.00    +0.253 C 
ATOM      8  C   UNL     1      33.789  -9.194 -24.689  0.00  0.00    +0.143 C 
ATOM      9  C   UNL     1      32.593 -11.289 -24.466  0.00  0.00    +0.008 C 
ATOM     10  C   UNL     1      33.530 -11.903 -25.297  0.00  0.00    +0.000 C 
ATOM     11  C   UNL     1      34.736  -9.818 -25.502  0.00  0.00    +0.037 C 
ATOM     12  C   UNL     1      34.599 -11.169 -25.815  0.00  0.00    +0.003 C 
ENDROOT
BRANCH  10  13
ATOM     13  C   UNL     1      33.398 -13.308 -25.620  0.00  0.00    +0.000 C 
ATOM     14  C   UNL     1      33.540 -14.270 -24.620  0.00  0.00    +0.003 C 
ATOM     15  C   UNL     1      33.130 -13.699 -26.931  0.00  0.00    +0.003 C 
ATOM     16  C   UNL     1      33.414 -15.624 -24.932  0.00  0.00    +0.037 C 
ATOM     17  C   UNL     1      33.004 -15.053 -27.243  0.00  0.00    +0.037 C 
ATOM     18  C   UNL     1      33.147 -16.015 -26.244  0.00  0.00    +0.147 C 
BRANCH  18  19
ATOM     19  O   UNL     1      33.025 -17.336 -26.548  0.00  0.00    -0.404 OA
BRANCH  19  23
ATOM     20  F   UNL     1      30.813 -17.201 -25.984  0.00  0.00    -0.133 F 
ATOM     21  F   UNL     1      31.713 -19.161 -26.333  0.00  0.00    -0.133 F 
ATOM     22  F   UNL     1      31.356 -17.832 -28.031  0.00  0.00    -0.133 F 
ATOM     23  C   UNL     1      31.717 -17.868 -26.731  0.00  0.00    +0.575 C 
ENDBRANCH  19  23
ENDBRANCH  18  19
ENDBRANCH  10  13
BRANCH   3  24
ATOM     24  C   UNL     1      30.375  -7.297 -22.723  0.00  0.00    +0.194 C 
BRANCH  24  27
ATOM     25  N   UNL     1      31.875  -5.645 -21.777  0.00  0.00    -0.217 NA
ATOM     26  N   UNL     1      30.926  -7.350 -20.363  0.00  0.00    -0.195 NA
ATOM     27  C   UNL     1      31.107  -6.726 -21.543  0.00  0.00    +0.028 C 
ATOM     28  C   UNL     1      32.518  -5.158 -20.695  0.00  0.00    +0.164 C 
ATOM     29  C   UNL     1      31.598  -6.811 -19.325  0.00  0.00    +0.107 C 
ATOM     30  C   UNL     1      32.416  -5.705 -19.432  0.00  0.00    +0.022 C 
ENDBRANCH  24  27
ENDBRANCH   3  24
TORSDOF 5
ENDMDL
MODEL 8
REMARK VINA RESULT:     -10.4      7.037     10.884
REMARK  Name = 71183216
REMARK  5 active torsions:
REMARK  status: ('A' for Active; 'I' for Inactive)
REMARK    1  A    between atoms: N_3  and  C_24
REMARK    2  A    between atoms: C_10  and  C_13
REMARK    3  A    between atoms: C_18  and  O_19
REMARK    4  A    between atoms: O_19  and  C_23
REMARK    5  A    between atoms: C_24  and  C_27
REMARK                            x       y       z     vdW  Elec       q    Type
REMARK                         _______ _______ _______ _____ _____    ______ ____
ROOT
ATOM      1  O   UNL     1      33.035 -16.260 -24.404  0.00  0.00    -0.473 OA
ATOM      2  O   UNL     1      33.481 -13.897 -21.291  0.00  0.00    -0.270 OA
ATOM      3  N   UNL     1      34.621 -15.772 -22.087  0.00  0.00    -0.259 N 
ATOM      4  C   UNL     1      35.242 -16.431 -23.233  0.00  0.00    +0.142 C 
ATOM      5  C   UNL     1      33.703 -14.077 -23.602  0.00  0.00    +0.087 C 
ATOM      6  C   UNL     1      34.194 -17.062 -24.143  0.00  0.00    +0.227 C 
ATOM      7  C   UNL     1      33.924 -14.569 -22.220  0.00  0.00    +0.253 C 
ATOM      8  C   UNL     1      33.307 -14.940 -24.633  0.00  0.00    +0.143 C 
ATOM      9  C   UNL     1      33.864 -12.712 -23.861  0.00  0.00    +0.008 C 
ATOM     10  C   UNL     1      33.638 -12.219 -25.146  0.00  0.00    +0.000 C 
ATOM     11  C   UNL     1      33.061 -14.440 -25.911  0.00  0.00    +0.037 C 
ATOM     12  C   UNL     1      33.239 -13.081 -26.170  0.00  0.00    +0.003 C 
ENDROOT
BRANCH  10  13
ATOM     13  C   UNL     1      33.813 -10.809 -25.419  0.00  0.00    +0.000 C 
ATOM     14  C   UNL     1      32.768 -10.071 -25.975  0.00  0.00    +0.003 C 
ATOM     15  C   UNL     1      35.028 -10.189 -25.130  0.00  0.00    +0.003 C 
ATOM     16  C   UNL     1      32.938  -8.712 -26.239  0.00  0.00    +0.037 C 
ATOM     17  C   UNL     1      35.198  -8.830 -25.395  0.00  0.00    +0.037 C 
ATOM     18  C   UNL     1      34.153  -8.091 -25.950  0.00  0.00    +0.147 C 
BRANCH  18  19
ATOM     19  O   UNL     1      34.319  -6.766 -26.209  0.00  0.00    -0.404 OA
BRANCH  19  23
ATOM     20  F   UNL     1      35.429  -7.392 -28.109  0.00  0.00    -0.133 F 
ATOM     21  F   UNL     1      35.614  -5.338 -27.385  0.00  0.00    -0.133 F 
ATOM     22  F   UNL     1      33.729  -5.990 -28.278  0.00  0.00    -0.133 F 
ATOM     23  C   UNL     1      34.764  -6.383 -27.507  0.00  0.00    +0.575 C 
ENDBRANCH  19  23
ENDBRANCH  18  19
ENDBRANCH  10  13
BRANCH   3  24
ATOM     24  C   UNL     1      34.787 -16.396 -20.784  0.00  0.00    +0.194 C 
BRANCH  24  27
ATOM     25  N   UNL     1      33.733 -18.536 -21.214  0.00  0.00    -0.217 NA
ATOM     26  N   UNL     1      36.071 -18.447 -20.633  0.00  0.00    -0.195 NA
ATOM     27  C   UNL     1      34.869 -17.892 -20.884  0.00  0.00    +0.028 C 
ATOM     28  C   UNL     1      33.843 -19.879 -21.295  0.00  0.00    +0.164 C 
ATOM     29  C   UNL     1      36.109 -19.791 -20.732  0.00  0.00    +0.107 C 
ATOM     30  C   UNL     1      35.016 -20.567 -21.062  0.00  0.00    +0.022 C 
ENDBRANCH  24  27
ENDBRANCH   3  24
TORSDOF 5
ENDMDL
MODEL 9
REMARK VINA RESULT:     -10.3      5.561      9.950
REMARK  Name = 71183216
REMARK  5 active torsions:
REMARK  status: ('A' for Active; 'I' for Inactive)
REMARK    1  A    between atoms: N_3  and  C_24
REMARK    2  A    between atoms: C_10  and  C_13
REMARK    3  A    between atoms: C_18  and  O_19
REMARK    4  A    between atoms: O_19  and  C_23
REMARK    5  A    between atoms: C_24  and  C_27
REMARK                            x       y       z     vdW  Elec       q    Type
REMARK                         _______ _______ _______ _____ _____    ______ ____
ROOT
ATOM      1  O   UNL     1      36.854 -22.319 -18.264  0.00  0.00    -0.473 OA
ATOM      2  O   UNL     1      33.172 -22.982 -19.479  0.00  0.00    -0.270 OA
ATOM      3  N   UNL     1      34.152 -22.589 -17.397  0.00  0.00    -0.259 N 
ATOM      4  C   UNL     1      35.060 -21.759 -16.610  0.00  0.00    +0.142 C 
ATOM      5  C   UNL     1      34.920 -21.444 -19.425  0.00  0.00    +0.087 C 
ATOM      6  C   UNL     1      36.516 -22.114 -16.886  0.00  0.00    +0.227 C 
ATOM      7  C   UNL     1      33.999 -22.408 -18.774  0.00  0.00    +0.253 C 
ATOM      8  C   UNL     1      36.287 -21.416 -19.120  0.00  0.00    +0.143 C 
ATOM      9  C   UNL     1      34.405 -20.572 -20.390  0.00  0.00    +0.008 C 
ATOM     10  C   UNL     1      35.254 -19.673 -21.035  0.00  0.00    +0.000 C 
ATOM     11  C   UNL     1      37.136 -20.531 -19.783  0.00  0.00    +0.037 C 
ATOM     12  C   UNL     1      36.616 -19.652 -20.732  0.00  0.00    +0.003 C 
ENDROOT
BRANCH  10  13
ATOM     13  C   UNL     1      34.722 -18.763 -22.026  0.00  0.00    +0.000 C 
ATOM     14  C   UNL     1      34.996 -17.398 -21.939  0.00  0.00    +0.003 C 
ATOM     15  C   UNL     1      33.932 -19.251 -23.068  0.00  0.00    +0.003 C 
ATOM     16  C   UNL     1      34.481 -16.521 -22.894  0.00  0.00    +0.037 C 
ATOM     17  C   UNL     1      33.417 -18.374 -24.023  0.00  0.00    +0.037 C 
ATOM     18  C   UNL     1      33.692 -17.009 -23.936  0.00  0.00    +0.147 C 
BRANCH  18  19
ATOM     19  O   UNL     1      33.189 -16.153 -24.866  0.00  0.00    -0.404 OA
BRANCH  19  23
ATOM     20  F   UNL     1      34.867 -16.828 -26.266  0.00  0.00    -0.133 F 
ATOM     21  F   UNL     1      33.695 -15.055 -26.773  0.00  0.00    -0.133 F 
ATOM     22  F   UNL     1      32.770 -17.029 -26.938  0.00  0.00    -0.133 F 
ATOM     23  C   UNL     1      33.632 -16.284 -26.213  0.00  0.00    +0.575 C 
ENDBRANCH  19  23
ENDBRANCH  18  19
ENDBRANCH  10  13
BRANCH   3  24
ATOM     24  C   UNL     1      33.378 -23.596 -16.688  0.00  0.00    +0.194 C 
BRANCH  24  27
ATOM     25  N   UNL     1      35.143 -24.947 -15.722  0.00  0.00    -0.217 NA
ATOM     26  N   UNL     1      33.655 -23.713 -14.283  0.00  0.00    -0.195 NA
ATOM     27  C   UNL     1      34.107 -24.120 -15.485  0.00  0.00    +0.028 C 
ATOM     28  C   UNL     1      35.775 -25.399 -14.619  0.00  0.00    +0.164 C 
ATOM     29  C   UNL     1      34.332 -24.203 -13.224  0.00  0.00    +0.107 C 
ATOM     30  C   UNL     1      35.410 -25.058 -13.332  0.00  0.00    +0.022 C 
ENDBRANCH  24  27
ENDBRANCH   3  24
TORSDOF 5
ENDMDL
