MODEL 1
REMARK VINA RESULT:     -11.6      0.000      0.000
REMARK  Name = 6914657
REMARK  8 active torsions:
REMARK  status: ('A' for Active; 'I' for Inactive)
REMARK    1  A    between atoms: C_1  and  C_4
REMARK    2  A    between atoms: C_1  and  C_16
REMARK    3  A    between atoms: C_9  and  C_10
REMARK    4  A    between atoms: C_16  and  C_17
REMARK    5  A    between atoms: C_17  and  C_18
REMARK    6  A    between atoms: C_18  and  N_20
REMARK    7  A    between atoms: C_21  and  C_23
REMARK    8  A    between atoms: C_24  and  C_26
REMARK                            x       y       z     vdW  Elec       q    Type
REMARK                         _______ _______ _______ _____ _____    ______ ____
ROOT
ATOM      1  C   UNL     1      36.587 -21.999 -16.709  0.00  0.00    +0.000 C 
ENDROOT
BRANCH   1   4
ATOM      2  O   UNL     1      32.144 -20.215 -20.688  0.00  0.00    -0.270 OA
ATOM      3  N   UNL     1      34.269 -21.058 -20.200  0.00  0.00    -0.276 N 
ATOM      4  C   UNL     1      35.952 -22.114 -18.092  0.00  0.00    +0.003 C 
ATOM      5  C   UNL     1      36.419 -20.969 -19.006  0.00  0.00    +0.022 C 
ATOM      6  C   UNL     1      34.417 -22.123 -17.989  0.00  0.00    +0.022 C 
ATOM      7  C   UNL     1      35.728 -21.034 -20.366  0.00  0.00    +0.094 C 
ATOM      8  C   UNL     1      33.768 -22.153 -19.372  0.00  0.00    +0.094 C 
ATOM      9  C   UNL     1      33.368 -20.170 -20.793  0.00  0.00    +0.249 C 
BRANCH   9  10
ATOM     10  C   UNL     1      33.908 -19.075 -21.608  0.00  0.00    +0.054 C 
ATOM     11  C   UNL     1      34.508 -17.977 -20.990  0.00  0.00    +0.005 C 
ATOM     12  C   UNL     1      33.822 -19.131 -22.998  0.00  0.00    +0.005 C 
ATOM     13  C   UNL     1      35.021 -16.936 -21.764  0.00  0.00    +0.000 C 
ATOM     14  C   UNL     1      34.335 -18.090 -23.772  0.00  0.00    +0.000 C 
ATOM     15  C   UNL     1      34.935 -16.992 -23.155  0.00  0.00    +0.000 C 
ENDBRANCH   9  10
ENDBRANCH   1   4
BRANCH   1  16
ATOM     16  C   UNL     1      35.853 -22.866 -15.689  0.00  0.00    +0.002 C 
BRANCH  16  17
ATOM     17  C   UNL     1      36.788 -23.910 -15.080  0.00  0.00    +0.021 C 
BRANCH  17  18
ATOM     18  C   UNL     1      36.020 -24.911 -14.225  0.00  0.00    +0.090 C 
BRANCH  18  20
ATOM     19  O   UNL     1      34.132 -23.990 -12.229  0.00  0.00    -0.270 OA
ATOM     20  N   UNL     1      34.599 -24.754 -14.376  0.00  0.00    -0.301 N 
ATOM     21  C   UNL     1      33.768 -24.303 -13.358  0.00  0.00    +0.246 C 
ATOM     22  H   UNL     1      34.194 -24.977 -15.245  0.00  0.00    +0.150 HD
BRANCH  21  23
ATOM     23  C   UNL     1      32.342 -24.235 -13.787  0.00  0.00    +0.058 C 
ATOM     24  C   UNL     1      32.029 -23.746 -14.995  0.00  0.00    +0.006 C 
BRANCH  24  26
ATOM     25  N   UNL     1      29.120 -22.606 -17.079  0.00  0.00    -0.242 NA
ATOM     26  C   UNL     1      30.658 -23.640 -15.526  0.00  0.00    +0.019 C 
ATOM     27  C   UNL     1      29.629 -24.426 -15.018  0.00  0.00    +0.003 C 
ATOM     28  C   UNL     1      30.354 -22.754 -16.547  0.00  0.00    +0.099 C 
ATOM     29  C   UNL     1      28.346 -24.303 -15.539  0.00  0.00    +0.021 C 
ATOM     30  C   UNL     1      28.145 -23.387 -16.559  0.00  0.00    +0.099 C 
ENDBRANCH  24  26
ENDBRANCH  21  23
ENDBRANCH  18  20
ENDBRANCH  17  18
ENDBRANCH  16  17
ENDBRANCH   1  16
TORSDOF 8
ENDMDL
MODEL 2
REMARK VINA RESULT:     -11.2      2.186      5.197
REMARK  Name = 6914657
REMARK  8 active torsions:
REMARK  status: ('A' for Active; 'I' for Inactive)
REMARK    1  A    between atoms: C_1  and  C_4
REMARK    2  A    between atoms: C_1  and  C_16
REMARK    3  A    between atoms: C_9  and  C_10
REMARK    4  A    between atoms: C_16  and  C_17
REMARK    5  A    between atoms: C_17  and  C_18
REMARK    6  A    between atoms: C_18  and  N_20
REMARK    7  A    between atoms: C_21  and  C_23
REMARK    8  A    between atoms: C_24  and  C_26
REMARK                            x       y       z     vdW  Elec       q    Type
REMARK                         _______ _______ _______ _____ _____    ______ ____
ROOT
ATOM      1  C   UNL     1      33.454 -22.637 -19.308  0.00  0.00    +0.000 C 
ENDROOT
BRANCH   1   4
ATOM      2  O   UNL     1      36.995 -18.804 -22.704  0.00  0.00    -0.270 OA
ATOM      3  N   UNL     1      35.209 -19.237 -21.258  0.00  0.00    -0.276 N 
ATOM      4  C   UNL     1      34.009 -21.233 -19.538  0.00  0.00    +0.003 C 
ATOM      5  C   UNL     1      33.194 -20.492 -20.610  0.00  0.00    +0.022 C 
ATOM      6  C   UNL     1      35.492 -21.291 -19.938  0.00  0.00    +0.022 C 
ATOM      7  C   UNL     1      33.790 -19.116 -20.900  0.00  0.00    +0.094 C 
ATOM      8  C   UNL     1      36.037 -19.899 -20.252  0.00  0.00    +0.094 C 
ATOM      9  C   UNL     1      35.800 -18.741 -22.423  0.00  0.00    +0.249 C 
BRANCH   9  10
ATOM     10  C   UNL     1      34.935 -18.093 -23.417  0.00  0.00    +0.054 C 
ATOM     11  C   UNL     1      34.239 -18.867 -24.346  0.00  0.00    +0.005 C 
ATOM     12  C   UNL     1      34.809 -16.704 -23.433  0.00  0.00    +0.005 C 
ATOM     13  C   UNL     1      33.418 -18.252 -25.290  0.00  0.00    +0.000 C 
ATOM     14  C   UNL     1      33.987 -16.089 -24.377  0.00  0.00    +0.000 C 
ATOM     15  C   UNL     1      33.292 -16.863 -25.307  0.00  0.00    +0.000 C 
ENDBRANCH   9  10
ENDBRANCH   1   4
BRANCH   1  16
ATOM     16  C   UNL     1      33.310 -22.938 -17.819  0.00  0.00    +0.002 C 
BRANCH  16  17
ATOM     17  C   UNL     1      31.849 -22.851 -17.378  0.00  0.00    +0.021 C 
BRANCH  17  18
ATOM     18  C   UNL     1      31.681 -23.274 -15.924  0.00  0.00    +0.090 C 
BRANCH  18  20
ATOM     19  O   UNL     1      32.192 -23.962 -13.156  0.00  0.00    -0.270 OA
ATOM     20  N   UNL     1      32.933 -23.674 -15.342  0.00  0.00    -0.301 N 
ATOM     21  C   UNL     1      33.085 -23.987 -13.998  0.00  0.00    +0.246 C 
ATOM     22  H   UNL     1      33.723 -23.730 -15.927  0.00  0.00    +0.150 HD
BRANCH  21  23
ATOM     23  C   UNL     1      34.487 -24.370 -13.666  0.00  0.00    +0.058 C 
ATOM     24  C   UNL     1      35.278 -24.900 -14.610  0.00  0.00    +0.006 C 
BRANCH  24  26
ATOM     25  N   UNL     1      38.479 -26.844 -14.885  0.00  0.00    -0.242 NA
ATOM     26  C   UNL     1      36.678 -25.305 -14.398  0.00  0.00    +0.019 C 
ATOM     27  C   UNL     1      37.514 -24.584 -13.552  0.00  0.00    +0.003 C 
ATOM     28  C   UNL     1      37.204 -26.418 -15.035  0.00  0.00    +0.099 C 
ATOM     29  C   UNL     1      38.831 -24.992 -13.372  0.00  0.00    +0.021 C 
ATOM     30  C   UNL     1      39.261 -26.118 -14.054  0.00  0.00    +0.099 C 
ENDBRANCH  24  26
ENDBRANCH  21  23
ENDBRANCH  18  20
ENDBRANCH  17  18
ENDBRANCH  16  17
ENDBRANCH   1  16
TORSDOF 8
ENDMDL
MODEL 3
REMARK VINA RESULT:     -11.1      5.440     12.358
REMARK  Name = 6914657
REMARK  8 active torsions:
REMARK  status: ('A' for Active; 'I' for Inactive)
REMARK    1  A    between atoms: C_1  and  C_4
REMARK    2  A    between atoms: C_1  and  C_16
REMARK    3  A    between atoms: C_9  and  C_10
REMARK    4  A    between atoms: C_16  and  C_17
REMARK    5  A    between atoms: C_17  and  C_18
REMARK    6  A    between atoms: C_18  and  N_20
REMARK    7  A    between atoms: C_21  and  C_23
REMARK    8  A    between atoms: C_24  and  C_26
REMARK                            x       y       z     vdW  Elec       q    Type
REMARK                         _______ _______ _______ _____ _____    ______ ____
ROOT
ATOM      1  C   UNL     1      33.054 -17.953 -26.535  0.00  0.00    +0.000 C 
ENDROOT
BRANCH   1   4
ATOM      2  O   UNL     1      34.832 -17.172 -20.620  0.00  0.00    -0.270 OA
ATOM      3  N   UNL     1      35.060 -18.128 -22.741  0.00  0.00    -0.276 N 
ATOM      4  C   UNL     1      34.170 -17.980 -25.494  0.00  0.00    +0.003 C 
ATOM      5  C   UNL     1      34.150 -19.299 -24.705  0.00  0.00    +0.022 C 
ATOM      6  C   UNL     1      34.052 -16.783 -24.536  0.00  0.00    +0.022 C 
ATOM      7  C   UNL     1      35.214 -19.302 -23.610  0.00  0.00    +0.094 C 
ATOM      8  C   UNL     1      35.113 -16.844 -23.438  0.00  0.00    +0.094 C 
ATOM      9  C   UNL     1      34.919 -18.156 -21.352  0.00  0.00    +0.249 C 
BRANCH   9  10
ATOM     10  C   UNL     1      34.857 -19.464 -20.688  0.00  0.00    +0.054 C 
ATOM     11  C   UNL     1      33.626 -20.096 -20.507  0.00  0.00    +0.005 C 
ATOM     12  C   UNL     1      36.027 -20.075 -20.238  0.00  0.00    +0.005 C 
ATOM     13  C   UNL     1      33.566 -21.338 -19.876  0.00  0.00    +0.000 C 
ATOM     14  C   UNL     1      35.967 -21.318 -19.607  0.00  0.00    +0.000 C 
ATOM     15  C   UNL     1      34.736 -21.949 -19.426  0.00  0.00    +0.000 C 
ENDBRANCH   9  10
ENDBRANCH   1   4
BRANCH   1  16
ATOM     16  C   UNL     1      31.737 -17.483 -25.922  0.00  0.00    +0.002 C 
BRANCH  16  17
ATOM     17  C   UNL     1      30.826 -16.865 -26.983  0.00  0.00    +0.021 C 
BRANCH  17  18
ATOM     18  C   UNL     1      31.543 -15.766 -27.758  0.00  0.00    +0.090 C 
BRANCH  18  20
ATOM     19  O   UNL     1      33.931 -14.130 -27.872  0.00  0.00    -0.270 OA
ATOM     20  N   UNL     1      31.879 -14.655 -26.911  0.00  0.00    -0.301 N 
ATOM     21  C   UNL     1      33.053 -13.924 -27.040  0.00  0.00    +0.246 C 
ATOM     22  H   UNL     1      31.244 -14.398 -26.204  0.00  0.00    +0.150 HD
BRANCH  21  23
ATOM     23  C   UNL     1      33.145 -12.828 -26.034  0.00  0.00    +0.058 C 
ATOM     24  C   UNL     1      33.848 -11.721 -26.312  0.00  0.00    +0.006 C 
BRANCH  24  26
ATOM     25  N   UNL     1      32.983  -9.025 -23.845  0.00  0.00    -0.242 NA
ATOM     26  C   UNL     1      33.998 -10.574 -25.399  0.00  0.00    +0.019 C 
ATOM     27  C   UNL     1      35.233  -9.961 -25.215  0.00  0.00    +0.003 C 
ATOM     28  C   UNL     1      32.914 -10.073 -24.697  0.00  0.00    +0.099 C 
ATOM     29  C   UNL     1      35.343  -8.880 -24.348  0.00  0.00    +0.021 C 
ATOM     30  C   UNL     1      34.199  -8.454 -23.693  0.00  0.00    +0.099 C 
ENDBRANCH  24  26
ENDBRANCH  21  23
ENDBRANCH  18  20
ENDBRANCH  17  18
ENDBRANCH  16  17
ENDBRANCH   1  16
TORSDOF 8
ENDMDL
MODEL 4
REMARK VINA RESULT:     -11.0      2.349      9.581
REMARK  Name = 6914657
REMARK  8 active torsions:
REMARK  status: ('A' for Active; 'I' for Inactive)
REMARK    1  A    between atoms: C_1  and  C_4
REMARK    2  A    between atoms: C_1  and  C_16
REMARK    3  A    between atoms: C_9  and  C_10
REMARK    4  A    between atoms: C_16  and  C_17
REMARK    5  A    between atoms: C_17  and  C_18
REMARK    6  A    between atoms: C_18  and  N_20
REMARK    7  A    between atoms: C_21  and  C_23
REMARK    8  A    between atoms: C_24  and  C_26
REMARK                            x       y       z     vdW  Elec       q    Type
REMARK                         _______ _______ _______ _____ _____    ______ ____
ROOT
ATOM      1  C   UNL     1      32.183 -23.441 -16.203  0.00  0.00    +0.000 C 
ENDROOT
BRANCH   1   4
ATOM      2  O   UNL     1      35.900 -25.793 -11.798  0.00  0.00    -0.270 OA
ATOM      3  N   UNL     1      35.349 -24.179 -13.397  0.00  0.00    -0.276 N 
ATOM      4  C   UNL     1      33.237 -23.207 -15.124  0.00  0.00    +0.003 C 
ATOM      5  C   UNL     1      34.645 -23.514 -15.659  0.00  0.00    +0.022 C 
ATOM      6  C   UNL     1      32.941 -24.059 -13.878  0.00  0.00    +0.022 C 
ATOM      7  C   UNL     1      35.696 -23.357 -14.563  0.00  0.00    +0.094 C 
ATOM      8  C   UNL     1      34.034 -23.897 -12.823  0.00  0.00    +0.094 C 
ATOM      9  C   UNL     1      36.174 -25.134 -12.799  0.00  0.00    +0.249 C 
BRANCH   9  10
ATOM     10  C   UNL     1      37.482 -25.399 -13.410  0.00  0.00    +0.054 C 
ATOM     11  C   UNL     1      37.609 -26.389 -14.386  0.00  0.00    +0.005 C 
ATOM     12  C   UNL     1      38.599 -24.663 -13.017  0.00  0.00    +0.005 C 
ATOM     13  C   UNL     1      38.852 -26.641 -14.966  0.00  0.00    +0.000 C 
ATOM     14  C   UNL     1      39.842 -24.914 -13.598  0.00  0.00    +0.000 C 
ATOM     15  C   UNL     1      39.968 -25.905 -14.572  0.00  0.00    +0.000 C 
ENDBRANCH   9  10
ENDBRANCH   1   4
BRANCH   1  16
ATOM     16  C   UNL     1      32.823 -23.561 -17.584  0.00  0.00    +0.002 C 
BRANCH  16  17
ATOM     17  C   UNL     1      32.679 -22.260 -18.373  0.00  0.00    +0.021 C 
BRANCH  17  18
ATOM     18  C   UNL     1      33.962 -21.922 -19.123  0.00  0.00    +0.090 C 
BRANCH  18  20
ATOM     19  O   UNL     1      35.882 -20.036 -20.195  0.00  0.00    -0.270 OA
ATOM     20  N   UNL     1      33.735 -20.928 -20.136  0.00  0.00    -0.301 N 
ATOM     21  C   UNL     1      34.721 -20.062 -20.591  0.00  0.00    +0.246 C 
ATOM     22  H   UNL     1      32.835 -20.858 -20.528  0.00  0.00    +0.150 HD
BRANCH  21  23
ATOM     23  C   UNL     1      34.213 -19.136 -21.643  0.00  0.00    +0.058 C 
ATOM     24  C   UNL     1      34.702 -19.206 -22.889  0.00  0.00    +0.006 C 
BRANCH  24  26
ATOM     25  N   UNL     1      33.471 -18.173 -26.283  0.00  0.00    -0.242 NA
ATOM     26  C   UNL     1      34.269 -18.350 -24.007  0.00  0.00    +0.019 C 
ATOM     27  C   UNL     1      34.238 -16.965 -23.882  0.00  0.00    +0.003 C 
ATOM     28  C   UNL     1      33.878 -18.899 -25.218  0.00  0.00    +0.099 C 
ATOM     29  C   UNL     1      33.826 -16.184 -24.954  0.00  0.00    +0.021 C 
ATOM     30  C   UNL     1      33.456 -16.830 -26.123  0.00  0.00    +0.099 C 
ENDBRANCH  24  26
ENDBRANCH  21  23
ENDBRANCH  18  20
ENDBRANCH  17  18
ENDBRANCH  16  17
ENDBRANCH   1  16
TORSDOF 8
ENDMDL
MODEL 5
REMARK VINA RESULT:     -11.0      5.218     11.294
REMARK  Name = 6914657
REMARK  8 active torsions:
REMARK  status: ('A' for Active; 'I' for Inactive)
REMARK    1  A    between atoms: C_1  and  C_4
REMARK    2  A    between atoms: C_1  and  C_16
REMARK    3  A    between atoms: C_9  and  C_10
REMARK    4  A    between atoms: C_16  and  C_17
REMARK    5  A    between atoms: C_17  and  C_18
REMARK    6  A    between atoms: C_18  and  N_20
REMARK    7  A    between atoms: C_21  and  C_23
REMARK    8  A    between atoms: C_24  and  C_26
REMARK                            x       y       z     vdW  Elec       q    Type
REMARK                         _______ _______ _______ _____ _____    ______ ____
ROOT
ATOM      1  C   UNL     1      32.610 -17.792 -26.385  0.00  0.00    +0.000 C 
ENDROOT
BRANCH   1   4
ATOM      2  O   UNL     1      34.934 -17.134 -20.647  0.00  0.00    -0.270 OA
ATOM      3  N   UNL     1      34.941 -18.072 -22.788  0.00  0.00    -0.276 N 
ATOM      4  C   UNL     1      33.814 -17.865 -25.448  0.00  0.00    +0.003 C 
ATOM      5  C   UNL     1      33.823 -19.192 -24.672  0.00  0.00    +0.022 C 
ATOM      6  C   UNL     1      33.819 -16.676 -24.473  0.00  0.00    +0.022 C 
ATOM      7  C   UNL     1      34.981 -19.239 -23.678  0.00  0.00    +0.094 C 
ATOM      8  C   UNL     1      34.971 -16.781 -23.476  0.00  0.00    +0.094 C 
ATOM      9  C   UNL     1      34.925 -18.111 -21.392  0.00  0.00    +0.249 C 
BRANCH   9  10
ATOM     10  C   UNL     1      34.882 -19.424 -20.737  0.00  0.00    +0.054 C 
ATOM     11  C   UNL     1      33.657 -20.061 -20.530  0.00  0.00    +0.005 C 
ATOM     12  C   UNL     1      36.064 -20.036 -20.321  0.00  0.00    +0.005 C 
ATOM     13  C   UNL     1      33.616 -21.308 -19.908  0.00  0.00    +0.000 C 
ATOM     14  C   UNL     1      36.022 -21.284 -19.698  0.00  0.00    +0.000 C 
ATOM     15  C   UNL     1      34.798 -21.919 -19.491  0.00  0.00    +0.000 C 
ENDBRANCH   9  10
ENDBRANCH   1   4
BRANCH   1  16
ATOM     16  C   UNL     1      31.973 -16.406 -26.359  0.00  0.00    +0.002 C 
BRANCH  16  17
ATOM     17  C   UNL     1      32.198 -15.671 -27.681  0.00  0.00    +0.021 C 
BRANCH  17  18
ATOM     18  C   UNL     1      33.208 -14.541 -27.522  0.00  0.00    +0.090 C 
BRANCH  18  20
ATOM     19  O   UNL     1      34.016 -11.805 -27.015  0.00  0.00    -0.270 OA
ATOM     20  N   UNL     1      32.946 -13.759 -26.345  0.00  0.00    -0.301 N 
ATOM     21  C   UNL     1      33.374 -12.447 -26.189  0.00  0.00    +0.246 C 
ATOM     22  H   UNL     1      32.436 -14.174 -25.613  0.00  0.00    +0.150 HD
BRANCH  21  23
ATOM     23  C   UNL     1      32.964 -11.876 -24.874  0.00  0.00    +0.058 C 
ATOM     24  C   UNL     1      32.637 -12.692 -23.862  0.00  0.00    +0.006 C 
BRANCH  24  26
ATOM     25  N   UNL     1      31.463 -10.446 -21.092  0.00  0.00    -0.242 NA
ATOM     26  C   UNL     1      32.227 -12.240 -22.522  0.00  0.00    +0.019 C 
ATOM     27  C   UNL     1      32.207 -13.117 -21.443  0.00  0.00    +0.003 C 
ATOM     28  C   UNL     1      31.849 -10.926 -22.295  0.00  0.00    +0.099 C 
ATOM     29  C   UNL     1      31.816 -12.661 -20.190  0.00  0.00    +0.021 C 
ATOM     30  C   UNL     1      31.457 -11.329 -20.067  0.00  0.00    +0.099 C 
ENDBRANCH  24  26
ENDBRANCH  21  23
ENDBRANCH  18  20
ENDBRANCH  17  18
ENDBRANCH  16  17
ENDBRANCH   1  16
TORSDOF 8
ENDMDL
MODEL 6
REMARK VINA RESULT:     -10.7      7.249     11.001
REMARK  Name = 6914657
REMARK  8 active torsions:
REMARK  status: ('A' for Active; 'I' for Inactive)
REMARK    1  A    between atoms: C_1  and  C_4
REMARK    2  A    between atoms: C_1  and  C_16
REMARK    3  A    between atoms: C_9  and  C_10
REMARK    4  A    between atoms: C_16  and  C_17
REMARK    5  A    between atoms: C_17  and  C_18
REMARK    6  A    between atoms: C_18  and  N_20
REMARK    7  A    between atoms: C_21  and  C_23
REMARK    8  A    between atoms: C_24  and  C_26
REMARK                            x       y       z     vdW  Elec       q    Type
REMARK                         _______ _______ _______ _____ _____    ______ ____
ROOT
ATOM      1  C   UNL     1      32.252 -13.398 -20.748  0.00  0.00    +0.000 C 
ENDROOT
BRANCH   1   4
ATOM      2  O   UNL     1      31.730  -7.341 -19.406  0.00  0.00    -0.270 OA
ATOM      3  N   UNL     1      31.042  -9.284 -20.509  0.00  0.00    -0.276 N 
ATOM      4  C   UNL     1      31.367 -12.160 -20.628  0.00  0.00    +0.003 C 
ATOM      5  C   UNL     1      31.489 -11.277 -21.881  0.00  0.00    +0.022 C 
ATOM      6  C   UNL     1      31.725 -11.352 -19.369  0.00  0.00    +0.022 C 
ATOM      7  C   UNL     1      30.667  -9.999 -21.736  0.00  0.00    +0.094 C 
ATOM      8  C   UNL     1      30.905 -10.067 -19.282  0.00  0.00    +0.094 C 
ATOM      9  C   UNL     1      31.456  -7.952 -20.437  0.00  0.00    +0.249 C 
BRANCH   9  10
ATOM     10  C   UNL     1      31.595  -7.201 -21.691  0.00  0.00    +0.054 C 
ATOM     11  C   UNL     1      32.714  -7.397 -22.501  0.00  0.00    +0.005 C 
ATOM     12  C   UNL     1      30.609  -6.292 -22.072  0.00  0.00    +0.005 C 
ATOM     13  C   UNL     1      32.846  -6.683 -23.692  0.00  0.00    +0.000 C 
ATOM     14  C   UNL     1      30.741  -5.578 -23.264  0.00  0.00    +0.000 C 
ATOM     15  C   UNL     1      31.860  -5.774 -24.074  0.00  0.00    +0.000 C 
ENDBRANCH   9  10
ENDBRANCH   1   4
BRANCH   1  16
ATOM     16  C   UNL     1      32.969 -13.437 -22.095  0.00  0.00    +0.002 C 
BRANCH  16  17
ATOM     17  C   UNL     1      34.318 -14.146 -21.980  0.00  0.00    +0.021 C 
BRANCH  17  18
ATOM     18  C   UNL     1      34.515 -15.151 -23.109  0.00  0.00    +0.090 C 
BRANCH  18  20
ATOM     19  O   UNL     1      34.586 -17.589 -24.674  0.00  0.00    -0.270 OA
ATOM     20  N   UNL     1      34.531 -16.502 -22.618  0.00  0.00    -0.301 N 
ATOM     21  C   UNL     1      34.566 -17.616 -23.447  0.00  0.00    +0.246 C 
ATOM     22  H   UNL     1      34.517 -16.644 -21.644  0.00  0.00    +0.150 HD
BRANCH  21  23
ATOM     23  C   UNL     1      34.576 -18.890 -22.674  0.00  0.00    +0.058 C 
ATOM     24  C   UNL     1      34.013 -18.941 -21.459  0.00  0.00    +0.006 C 
BRANCH  24  26
ATOM     25  N   UNL     1      32.621 -21.786 -19.441  0.00  0.00    -0.242 NA
ATOM     26  C   UNL     1      33.957 -20.145 -20.612  0.00  0.00    +0.019 C 
ATOM     27  C   UNL     1      35.120 -20.776 -20.184  0.00  0.00    +0.003 C 
ATOM     28  C   UNL     1      32.744 -20.686 -20.217  0.00  0.00    +0.099 C 
ATOM     29  C   UNL     1      35.035 -21.910 -19.385  0.00  0.00    +0.021 C 
ATOM     30  C   UNL     1      33.774 -22.371 -19.044  0.00  0.00    +0.099 C 
ENDBRANCH  24  26
ENDBRANCH  21  23
ENDBRANCH  18  20
ENDBRANCH  17  18
ENDBRANCH  16  17
ENDBRANCH   1  16
TORSDOF 8
ENDMDL
MODEL 7
REMARK VINA RESULT:     -10.5      3.747      6.638
REMARK  Name = 6914657
REMARK  8 active torsions:
REMARK  status: ('A' for Active; 'I' for Inactive)
REMARK    1  A    between atoms: C_1  and  C_4
REMARK    2  A    between atoms: C_1  and  C_16
REMARK    3  A    between atoms: C_9  and  C_10
REMARK    4  A    between atoms: C_16  and  C_17
REMARK    5  A    between atoms: C_17  and  C_18
REMARK    6  A    between atoms: C_18  and  N_20
REMARK    7  A    between atoms: C_21  and  C_23
REMARK    8  A    between atoms: C_24  and  C_26
REMARK                            x       y       z     vdW  Elec       q    Type
REMARK                         _______ _______ _______ _____ _____    ______ ____
ROOT
ATOM      1  C   UNL     1      34.689 -19.010 -21.191  0.00  0.00    +0.000 C 
ENDROOT
BRANCH   1   4
ATOM      2  O   UNL     1      32.444 -17.408 -26.774  0.00  0.00    -0.270 OA
ATOM      3  N   UNL     1      34.109 -17.402 -25.132  0.00  0.00    -0.276 N 
ATOM      4  C   UNL     1      34.957 -18.612 -22.641  0.00  0.00    +0.003 C 
ATOM      5  C   UNL     1      34.873 -17.087 -22.814  0.00  0.00    +0.022 C 
ATOM      6  C   UNL     1      33.972 -19.313 -23.591  0.00  0.00    +0.022 C 
ATOM      7  C   UNL     1      35.064 -16.688 -24.276  0.00  0.00    +0.094 C 
ATOM      8  C   UNL     1      34.176 -18.860 -25.036  0.00  0.00    +0.094 C 
ATOM      9  C   UNL     1      33.214 -16.809 -26.026  0.00  0.00    +0.249 C 
BRANCH   9  10
ATOM     10  C   UNL     1      33.166 -15.343 -26.086  0.00  0.00    +0.054 C 
ATOM     11  C   UNL     1      33.095 -14.598 -24.908  0.00  0.00    +0.005 C 
ATOM     12  C   UNL     1      33.189 -14.694 -27.320  0.00  0.00    +0.005 C 
ATOM     13  C   UNL     1      33.049 -13.205 -24.966  0.00  0.00    +0.000 C 
ATOM     14  C   UNL     1      33.143 -13.301 -27.378  0.00  0.00    +0.000 C 
ATOM     15  C   UNL     1      33.072 -12.556 -26.200  0.00  0.00    +0.000 C 
ENDBRANCH   9  10
ENDBRANCH   1   4
BRANCH   1  16
ATOM     16  C   UNL     1      33.400 -19.818 -21.070  0.00  0.00    +0.002 C 
BRANCH  16  17
ATOM     17  C   UNL     1      33.519 -20.884 -19.982  0.00  0.00    +0.021 C 
BRANCH  17  18
ATOM     18  C   UNL     1      34.967 -21.321 -19.790  0.00  0.00    +0.090 C 
BRANCH  18  20
ATOM     19  O   UNL     1      36.831 -20.735 -17.651  0.00  0.00    -0.270 OA
ATOM     20  N   UNL     1      35.141 -22.048 -18.562  0.00  0.00    -0.301 N 
ATOM     21  C   UNL     1      36.065 -21.691 -17.588  0.00  0.00    +0.246 C 
ATOM     22  H   UNL     1      34.577 -22.839 -18.404  0.00  0.00    +0.150 HD
BRANCH  21  23
ATOM     23  C   UNL     1      36.033 -22.616 -16.419  0.00  0.00    +0.058 C 
ATOM     24  C   UNL     1      37.179 -23.006 -15.842  0.00  0.00    +0.006 C 
BRANCH  24  26
ATOM     25  N   UNL     1      38.309 -25.814 -13.620  0.00  0.00    -0.242 NA
ATOM     26  C   UNL     1      37.266 -23.907 -14.680  0.00  0.00    +0.019 C 
ATOM     27  C   UNL     1      36.439 -23.737 -13.576  0.00  0.00    +0.003 C 
ATOM     28  C   UNL     1      38.177 -24.951 -14.653  0.00  0.00    +0.099 C 
ATOM     29  C   UNL     1      36.544 -24.604 -12.495  0.00  0.00    +0.021 C 
ATOM     30  C   UNL     1      37.486 -25.617 -12.565  0.00  0.00    +0.099 C 
ENDBRANCH  24  26
ENDBRANCH  21  23
ENDBRANCH  18  20
ENDBRANCH  17  18
ENDBRANCH  16  17
ENDBRANCH   1  16
TORSDOF 8
ENDMDL
MODEL 8
REMARK VINA RESULT:     -10.5      1.712      8.570
REMARK  Name = 6914657
REMARK  8 active torsions:
REMARK  status: ('A' for Active; 'I' for Inactive)
REMARK    1  A    between atoms: C_1  and  C_4
REMARK    2  A    between atoms: C_1  and  C_16
REMARK    3  A    between atoms: C_9  and  C_10
REMARK    4  A    between atoms: C_16  and  C_17
REMARK    5  A    between atoms: C_17  and  C_18
REMARK    6  A    between atoms: C_18  and  N_20
REMARK    7  A    between atoms: C_21  and  C_23
REMARK    8  A    between atoms: C_24  and  C_26
REMARK                            x       y       z     vdW  Elec       q    Type
REMARK                         _______ _______ _______ _____ _____    ______ ____
ROOT
ATOM      1  C   UNL     1      35.987 -22.224 -15.470  0.00  0.00    +0.000 C 
ENDROOT
BRANCH   1   4
ATOM      2  O   UNL     1      30.886 -24.496 -12.716  0.00  0.00    -0.270 OA
ATOM      3  N   UNL     1      32.394 -24.368 -14.499  0.00  0.00    -0.276 N 
ATOM      4  C   UNL     1      34.986 -23.367 -15.316  0.00  0.00    +0.003 C 
ATOM      5  C   UNL     1      33.715 -23.095 -16.138  0.00  0.00    +0.022 C 
ATOM      6  C   UNL     1      34.629 -23.585 -13.837  0.00  0.00    +0.022 C 
ATOM      7  C   UNL     1      32.678 -24.196 -15.929  0.00  0.00    +0.094 C 
ATOM      8  C   UNL     1      33.565 -24.669 -13.676  0.00  0.00    +0.094 C 
ATOM      9  C   UNL     1      31.130 -24.311 -13.907  0.00  0.00    +0.249 C 
BRANCH   9  10
ATOM     10  C   UNL     1      29.979 -23.992 -14.761  0.00  0.00    +0.054 C 
ATOM     11  C   UNL     1      29.311 -25.012 -15.441  0.00  0.00    +0.005 C 
ATOM     12  C   UNL     1      29.552 -22.671 -14.894  0.00  0.00    +0.005 C 
ATOM     13  C   UNL     1      28.218 -24.710 -16.252  0.00  0.00    +0.000 C 
ATOM     14  C   UNL     1      28.458 -22.369 -15.705  0.00  0.00    +0.000 C 
ATOM     15  C   UNL     1      27.792 -23.389 -16.385  0.00  0.00    +0.000 C 
ENDBRANCH   9  10
ENDBRANCH   1   4
BRANCH   1  16
ATOM     16  C   UNL     1      36.833 -22.396 -16.729  0.00  0.00    +0.002 C 
BRANCH  16  17
ATOM     17  C   UNL     1      36.441 -21.378 -17.799  0.00  0.00    +0.021 C 
BRANCH  17  18
ATOM     18  C   UNL     1      35.424 -21.961 -18.773  0.00  0.00    +0.090 C 
BRANCH  18  20
ATOM     19  O   UNL     1      32.694 -21.403 -19.567  0.00  0.00    -0.270 OA
ATOM     20  N   UNL     1      34.975 -20.977 -19.721  0.00  0.00    -0.301 N 
ATOM     21  C   UNL     1      33.638 -20.779 -20.040  0.00  0.00    +0.246 C 
ATOM     22  H   UNL     1      35.651 -20.415 -20.164  0.00  0.00    +0.150 HD
BRANCH  21  23
ATOM     23  C   UNL     1      33.458 -19.696 -21.049  0.00  0.00    +0.058 C 
ATOM     24  C   UNL     1      34.527 -19.155 -21.649  0.00  0.00    +0.006 C 
BRANCH  24  26
ATOM     25  N   UNL     1      34.919 -15.795 -23.279  0.00  0.00    -0.242 NA
ATOM     26  C   UNL     1      34.467 -18.089 -22.665  0.00  0.00    +0.019 C 
ATOM     27  C   UNL     1      33.930 -18.328 -23.925  0.00  0.00    +0.003 C 
ATOM     28  C   UNL     1      34.945 -16.817 -22.394  0.00  0.00    +0.099 C 
ATOM     29  C   UNL     1      33.886 -17.302 -24.862  0.00  0.00    +0.021 C 
ATOM     30  C   UNL     1      34.389 -16.065 -24.493  0.00  0.00    +0.099 C 
ENDBRANCH  24  26
ENDBRANCH  21  23
ENDBRANCH  18  20
ENDBRANCH  17  18
ENDBRANCH  16  17
ENDBRANCH   1  16
TORSDOF 8
ENDMDL
MODEL 9
REMARK VINA RESULT:     -10.4      6.435     10.928
REMARK  Name = 6914657
REMARK  8 active torsions:
REMARK  status: ('A' for Active; 'I' for Inactive)
REMARK    1  A    between atoms: C_1  and  C_4
REMARK    2  A    between atoms: C_1  and  C_16
REMARK    3  A    between atoms: C_9  and  C_10
REMARK    4  A    between atoms: C_16  and  C_17
REMARK    5  A    between atoms: C_17  and  C_18
REMARK    6  A    between atoms: C_18  and  N_20
REMARK    7  A    between atoms: C_21  and  C_23
REMARK    8  A    between atoms: C_24  and  C_26
REMARK                            x       y       z     vdW  Elec       q    Type
REMARK                         _______ _______ _______ _____ _____    ______ ____
ROOT
ATOM      1  C   UNL     1      32.939 -13.878 -26.223  0.00  0.00    +0.000 C 
ENDROOT
BRANCH   1   4
ATOM      2  O   UNL     1      31.681  -7.924 -24.905  0.00  0.00    -0.270 OA
ATOM      3  N   UNL     1      33.025  -9.833 -24.780  0.00  0.00    -0.276 N 
ATOM      4  C   UNL     1      33.450 -12.483 -25.868  0.00  0.00    +0.003 C 
ATOM      5  C   UNL     1      33.353 -12.234 -24.354  0.00  0.00    +0.022 C 
ATOM      6  C   UNL     1      32.672 -11.403 -26.638  0.00  0.00    +0.022 C 
ATOM      7  C   UNL     1      33.790 -10.815 -24.001  0.00  0.00    +0.094 C 
ATOM      8  C   UNL     1      33.117 -10.001 -26.230  0.00  0.00    +0.094 C 
ATOM      9  C   UNL     1      32.288  -8.771 -24.252  0.00  0.00    +0.249 C 
BRANCH   9  10
ATOM     10  C   UNL     1      32.207  -8.641 -22.792  0.00  0.00    +0.054 C 
ATOM     11  C   UNL     1      31.280  -9.399 -22.075  0.00  0.00    +0.005 C 
ATOM     12  C   UNL     1      33.055  -7.761 -22.121  0.00  0.00    +0.005 C 
ATOM     13  C   UNL     1      31.203  -9.276 -20.688  0.00  0.00    +0.000 C 
ATOM     14  C   UNL     1      32.978  -7.639 -20.733  0.00  0.00    +0.000 C 
ATOM     15  C   UNL     1      32.051  -8.397 -20.017  0.00  0.00    +0.000 C 
ENDBRANCH   9  10
ENDBRANCH   1   4
BRANCH   1  16
ATOM     16  C   UNL     1      33.065 -14.831 -25.038  0.00  0.00    +0.002 C 
BRANCH  16  17
ATOM     17  C   UNL     1      33.158 -16.283 -25.507  0.00  0.00    +0.021 C 
BRANCH  17  18
ATOM     18  C   UNL     1      34.568 -16.834 -25.327  0.00  0.00    +0.090 C 
BRANCH  18  20
ATOM     19  O   UNL     1      35.206 -16.002 -22.626  0.00  0.00    -0.270 OA
ATOM     20  N   UNL     1      34.665 -17.666 -24.159  0.00  0.00    -0.301 N 
ATOM     21  C   UNL     1      34.978 -17.177 -22.897  0.00  0.00    +0.246 C 
ATOM     22  H   UNL     1      34.501 -18.631 -24.258  0.00  0.00    +0.150 HD
BRANCH  21  23
ATOM     23  C   UNL     1      35.010 -18.256 -21.869  0.00  0.00    +0.058 C 
ATOM     24  C   UNL     1      33.950 -19.060 -21.709  0.00  0.00    +0.006 C 
BRANCH  24  26
ATOM     25  N   UNL     1      32.513 -21.630 -19.379  0.00  0.00    -0.242 NA
ATOM     26  C   UNL     1      33.875 -20.162 -20.734  0.00  0.00    +0.019 C 
ATOM     27  C   UNL     1      35.027 -20.771 -20.248  0.00  0.00    +0.003 C 
ATOM     28  C   UNL     1      32.653 -20.625 -20.272  0.00  0.00    +0.099 C 
ATOM     29  C   UNL     1      34.924 -21.807 -19.328  0.00  0.00    +0.021 C 
ATOM     30  C   UNL     1      33.656 -22.196 -18.929  0.00  0.00    +0.099 C 
ENDBRANCH  24  26
ENDBRANCH  21  23
ENDBRANCH  18  20
ENDBRANCH  17  18
ENDBRANCH  16  17
ENDBRANCH   1  16
TORSDOF 8
ENDMDL
