MODEL 1
REMARK VINA RESULT:     -12.6      0.000      0.000
REMARK  Name = 204109
REMARK  5 active torsions:
REMARK  status: ('A' for Active; 'I' for Inactive)
REMARK    1  A    between atoms: C_1  and  C_20
REMARK    2  A    between atoms: C_9  and  O_11
REMARK    3  A    between atoms: O_11  and  C_12
REMARK    4  A    between atoms: C_12  and  C_14
REMARK    5  A    between atoms: C_20  and  C_25
REMARK                            x       y       z     vdW  Elec       q    Type
REMARK                         _______ _______ _______ _____ _____    ______ ____
ROOT
ATOM      1  C   UNL     1      34.652 -19.838 -21.195  0.00  0.00    -0.021 C 
ATOM      2  C   UNL     1      34.892 -21.305 -19.270  0.00  0.00    -0.000 C 
ATOM      3  C   UNL     1      35.456 -20.462 -20.241  0.00  0.00    -0.004 C 
ATOM      4  C   UNL     1      33.493 -21.518 -19.267  0.00  0.00    +0.003 C 
ATOM      5  C   UNL     1      33.277 -20.048 -21.193  0.00  0.00    -0.004 C 
ATOM      6  C   UNL     1      32.699 -20.882 -20.234  0.00  0.00    -0.000 C 
ATOM      7  C   UNL     1      32.929 -22.361 -18.296  0.00  0.00    +0.037 C 
ATOM      8  C   UNL     1      35.686 -21.941 -18.301  0.00  0.00    +0.003 C 
ATOM      9  C   UNL     1      33.734 -22.986 -17.341  0.00  0.00    +0.139 C 
ATOM     10  C   UNL     1      35.109 -22.775 -17.344  0.00  0.00    +0.037 C 
ENDROOT
BRANCH   9  11
ATOM     11  O   UNL     1      33.173 -23.800 -16.405  0.00  0.00    -0.471 OA
BRANCH  11  12
ATOM     12  C   UNL     1      32.383 -23.179 -15.393  0.00  0.00    +0.234 C 
BRANCH  12  14
ATOM     13  F   UNL     1      31.468 -25.447 -13.976  0.00  0.00    -0.204 F 
ATOM     14  C   UNL     1      30.965 -23.640 -15.432  0.00  0.00    +0.049 C 
ATOM     15  C   UNL     1      30.576 -24.767 -14.710  0.00  0.00    +0.140 C 
ATOM     16  C   UNL     1      30.029 -22.941 -16.193  0.00  0.00    +0.002 C 
ATOM     17  C   UNL     1      29.248 -25.196 -14.748  0.00  0.00    +0.029 C 
ATOM     18  C   UNL     1      28.702 -23.370 -16.233  0.00  0.00    -0.000 C 
ATOM     19  C   UNL     1      28.311 -24.497 -15.509  0.00  0.00    +0.002 C 
ENDBRANCH  12  14
ENDBRANCH  11  12
ENDBRANCH   9  11
BRANCH   1  20
ATOM     20  C   UNL     1      35.268 -18.945 -22.220  0.00  0.00    +0.047 C 
BRANCH  20  25
ATOM     21  S   UNL     1      34.052 -18.615 -24.676  0.00  0.00    -0.048 S 
ATOM     22  O   UNL     1      34.904 -15.969 -21.998  0.00  0.00    -0.274 OA
ATOM     23  O   UNL     1      34.431 -16.780 -26.520  0.00  0.00    -0.263 OA
ATOM     24  N   UNL     1      34.703 -16.175 -24.292  0.00  0.00    -0.246 N 
ATOM     25  C   UNL     1      34.230 -18.090 -22.944  0.00  0.00    +0.137 C 
ATOM     26  C   UNL     1      34.651 -16.638 -22.994  0.00  0.00    +0.239 C 
ATOM     27  C   UNL     1      34.426 -17.033 -25.325  0.00  0.00    +0.279 C 
ATOM     28  H   UNL     1      34.939 -15.237 -24.476  0.00  0.00    +0.158 HD
ENDBRANCH  20  25
ENDBRANCH   1  20
TORSDOF 5
ENDMDL
MODEL 2
REMARK VINA RESULT:     -12.5      1.142      2.014
REMARK  Name = 204109
REMARK  5 active torsions:
REMARK  status: ('A' for Active; 'I' for Inactive)
REMARK    1  A    between atoms: C_1  and  C_20
REMARK    2  A    between atoms: C_9  and  O_11
REMARK    3  A    between atoms: O_11  and  C_12
REMARK    4  A    between atoms: C_12  and  C_14
REMARK    5  A    between atoms: C_20  and  C_25
REMARK                            x       y       z     vdW  Elec       q    Type
REMARK                         _______ _______ _______ _____ _____    ______ ____
ROOT
ATOM      1  C   UNL     1      35.437 -18.805 -21.656  0.00  0.00    -0.021 C 
ATOM      2  C   UNL     1      34.021 -20.327 -20.393  0.00  0.00    -0.000 C 
ATOM      3  C   UNL     1      34.170 -19.271 -21.306  0.00  0.00    -0.004 C 
ATOM      4  C   UNL     1      35.175 -20.918 -19.826  0.00  0.00    +0.003 C 
ATOM      5  C   UNL     1      36.571 -19.387 -21.098  0.00  0.00    -0.004 C 
ATOM      6  C   UNL     1      36.443 -20.438 -20.189  0.00  0.00    -0.000 C 
ATOM      7  C   UNL     1      35.026 -21.974 -18.912  0.00  0.00    +0.037 C 
ATOM      8  C   UNL     1      32.753 -20.808 -20.029  0.00  0.00    +0.003 C 
ATOM      9  C   UNL     1      33.758 -22.440 -18.562  0.00  0.00    +0.139 C 
ATOM     10  C   UNL     1      32.624 -21.858 -19.120  0.00  0.00    +0.037 C 
ENDROOT
BRANCH   9  11
ATOM     11  O   UNL     1      33.630 -23.465 -17.675  0.00  0.00    -0.471 OA
BRANCH  11  12
ATOM     12  C   UNL     1      33.675 -23.135 -16.289  0.00  0.00    +0.234 C 
BRANCH  12  14
ATOM     13  F   UNL     1      33.793 -24.633 -13.895  0.00  0.00    -0.204 F 
ATOM     14  C   UNL     1      32.458 -23.601 -15.565  0.00  0.00    +0.049 C 
ATOM     15  C   UNL     1      32.582 -24.337 -14.388  0.00  0.00    +0.140 C 
ATOM     16  C   UNL     1      31.193 -23.300 -16.069  0.00  0.00    +0.002 C 
ATOM     17  C   UNL     1      31.441 -24.772 -13.713  0.00  0.00    +0.029 C 
ATOM     18  C   UNL     1      30.051 -23.735 -15.395  0.00  0.00    -0.000 C 
ATOM     19  C   UNL     1      30.175 -24.470 -14.217  0.00  0.00    +0.002 C 
ENDBRANCH  12  14
ENDBRANCH  11  12
ENDBRANCH   9  11
BRANCH   1  20
ATOM     20  C   UNL     1      35.576 -17.682 -22.629  0.00  0.00    +0.047 C 
BRANCH  20  25
ATOM     21  S   UNL     1      33.937 -18.122 -24.806  0.00  0.00    -0.048 S 
ATOM     22  O   UNL     1      34.422 -14.908 -22.724  0.00  0.00    -0.274 OA
ATOM     23  O   UNL     1      33.476 -16.613 -26.910  0.00  0.00    -0.263 OA
ATOM     24  N   UNL     1      33.921 -15.568 -24.882  0.00  0.00    -0.246 N 
ATOM     25  C   UNL     1      34.236 -17.265 -23.229  0.00  0.00    +0.137 C 
ATOM     26  C   UNL     1      34.212 -15.787 -23.552  0.00  0.00    +0.239 C 
ATOM     27  C   UNL     1      33.736 -16.640 -25.716  0.00  0.00    +0.279 C 
ATOM     28  H   UNL     1      33.847 -14.650 -25.230  0.00  0.00    +0.158 HD
ENDBRANCH  20  25
ENDBRANCH   1  20
TORSDOF 5
ENDMDL
MODEL 3
REMARK VINA RESULT:     -12.3      4.649      9.847
REMARK  Name = 204109
REMARK  5 active torsions:
REMARK  status: ('A' for Active; 'I' for Inactive)
REMARK    1  A    between atoms: C_1  and  C_20
REMARK    2  A    between atoms: C_9  and  O_11
REMARK    3  A    between atoms: O_11  and  C_12
REMARK    4  A    between atoms: C_12  and  C_14
REMARK    5  A    between atoms: C_20  and  C_25
REMARK                            x       y       z     vdW  Elec       q    Type
REMARK                         _______ _______ _______ _____ _____    ______ ____
ROOT
ATOM      1  C   UNL     1      33.432 -22.678 -18.123  0.00  0.00    -0.021 C 
ATOM      2  C   UNL     1      33.465 -21.028 -19.911  0.00  0.00    -0.000 C 
ATOM      3  C   UNL     1      32.760 -21.904 -19.070  0.00  0.00    -0.004 C 
ATOM      4  C   UNL     1      34.872 -20.935 -19.790  0.00  0.00    +0.003 C 
ATOM      5  C   UNL     1      34.816 -22.586 -18.004  0.00  0.00    -0.004 C 
ATOM      6  C   UNL     1      35.533 -21.719 -18.830  0.00  0.00    -0.000 C 
ATOM      7  C   UNL     1      35.577 -20.058 -20.630  0.00  0.00    +0.037 C 
ATOM      8  C   UNL     1      32.805 -20.242 -20.870  0.00  0.00    +0.003 C 
ATOM      9  C   UNL     1      34.905 -19.285 -21.578  0.00  0.00    +0.139 C 
ATOM     10  C   UNL     1      33.521 -19.377 -21.697  0.00  0.00    +0.037 C 
ENDROOT
BRANCH   9  11
ATOM     11  O   UNL     1      35.602 -18.438 -22.385  0.00  0.00    -0.471 OA
BRANCH  11  12
ATOM     12  C   UNL     1      34.989 -18.064 -23.617  0.00  0.00    +0.234 C 
BRANCH  12  14
ATOM     13  F   UNL     1      33.628 -16.871 -25.788  0.00  0.00    -0.204 F 
ATOM     14  C   UNL     1      34.502 -16.655 -23.591  0.00  0.00    +0.049 C 
ATOM     15  C   UNL     1      33.836 -16.124 -24.695  0.00  0.00    +0.140 C 
ATOM     16  C   UNL     1      34.714 -15.868 -22.459  0.00  0.00    +0.002 C 
ATOM     17  C   UNL     1      33.381 -14.805 -24.667  0.00  0.00    +0.029 C 
ATOM     18  C   UNL     1      34.260 -14.549 -22.431  0.00  0.00    -0.000 C 
ATOM     19  C   UNL     1      33.593 -14.018 -23.535  0.00  0.00    +0.002 C 
ENDBRANCH  12  14
ENDBRANCH  11  12
ENDBRANCH   9  11
BRANCH   1  20
ATOM     20  C   UNL     1      32.667 -23.603 -17.239  0.00  0.00    +0.047 C 
BRANCH  20  25
ATOM     21  S   UNL     1      32.471 -23.696 -14.486  0.00  0.00    -0.048 S 
ATOM     22  O   UNL     1      29.879 -22.490 -17.080  0.00  0.00    -0.274 OA
ATOM     23  O   UNL     1      30.482 -24.480 -12.957  0.00  0.00    -0.263 OA
ATOM     24  N   UNL     1      29.977 -23.485 -14.995  0.00  0.00    -0.246 N 
ATOM     25  C   UNL     1      32.032 -22.881 -16.053  0.00  0.00    +0.137 C 
ATOM     26  C   UNL     1      30.522 -22.918 -16.128  0.00  0.00    +0.239 C 
ATOM     27  C   UNL     1      30.806 -23.954 -14.011  0.00  0.00    +0.279 C 
ATOM     28  H   UNL     1      29.000 -23.552 -14.895  0.00  0.00    +0.158 HD
ENDBRANCH  20  25
ENDBRANCH   1  20
TORSDOF 5
ENDMDL
MODEL 4
REMARK VINA RESULT:     -12.3      2.937      4.619
REMARK  Name = 204109
REMARK  5 active torsions:
REMARK  status: ('A' for Active; 'I' for Inactive)
REMARK    1  A    between atoms: C_1  and  C_20
REMARK    2  A    between atoms: C_9  and  O_11
REMARK    3  A    between atoms: O_11  and  C_12
REMARK    4  A    between atoms: C_12  and  C_14
REMARK    5  A    between atoms: C_20  and  C_25
REMARK                            x       y       z     vdW  Elec       q    Type
REMARK                         _______ _______ _______ _____ _____    ______ ____
ROOT
ATOM      1  C   UNL     1      33.976 -20.463 -20.554  0.00  0.00    -0.021 C 
ATOM      2  C   UNL     1      33.253 -21.862 -18.699  0.00  0.00    -0.000 C 
ATOM      3  C   UNL     1      32.956 -21.057 -19.811  0.00  0.00    -0.004 C 
ATOM      4  C   UNL     1      34.605 -22.067 -18.336  0.00  0.00    +0.003 C 
ATOM      5  C   UNL     1      35.306 -20.665 -20.196  0.00  0.00    -0.004 C 
ATOM      6  C   UNL     1      35.620 -21.462 -19.095  0.00  0.00    -0.000 C 
ATOM      7  C   UNL     1      34.903 -22.872 -17.224  0.00  0.00    +0.037 C 
ATOM      8  C   UNL     1      32.238 -22.468 -17.940  0.00  0.00    +0.003 C 
ATOM      9  C   UNL     1      33.882 -23.466 -16.481  0.00  0.00    +0.139 C 
ATOM     10  C   UNL     1      32.552 -23.264 -16.839  0.00  0.00    +0.037 C 
ENDROOT
BRANCH   9  11
ATOM     11  O   UNL     1      34.186 -24.244 -15.406  0.00  0.00    -0.471 OA
BRANCH  11  12
ATOM     12  C   UNL     1      34.958 -23.645 -14.368  0.00  0.00    +0.234 C 
BRANCH  12  14
ATOM     13  F   UNL     1      36.698 -23.021 -12.230  0.00  0.00    -0.204 F 
ATOM     14  C   UNL     1      36.209 -24.408 -14.094  0.00  0.00    +0.049 C 
ATOM     15  C   UNL     1      37.027 -24.050 -13.023  0.00  0.00    +0.140 C 
ATOM     16  C   UNL     1      36.561 -25.481 -14.913  0.00  0.00    +0.002 C 
ATOM     17  C   UNL     1      38.198 -24.767 -12.769  0.00  0.00    +0.029 C 
ATOM     18  C   UNL     1      37.732 -26.197 -14.660  0.00  0.00    -0.000 C 
ATOM     19  C   UNL     1      38.550 -25.840 -13.588  0.00  0.00    +0.002 C 
ENDBRANCH  12  14
ENDBRANCH  11  12
ENDBRANCH   9  11
BRANCH   1  20
ATOM     20  C   UNL     1      33.642 -19.612 -21.732  0.00  0.00    +0.047 C 
BRANCH  20  25
ATOM     21  S   UNL     1      34.915 -17.169 -21.535  0.00  0.00    -0.048 S 
ATOM     22  O   UNL     1      34.681 -19.564 -24.553  0.00  0.00    -0.274 OA
ATOM     23  O   UNL     1      34.979 -15.153 -23.220  0.00  0.00    -0.263 OA
ATOM     24  N   UNL     1      34.841 -17.306 -24.084  0.00  0.00    -0.246 N 
ATOM     25  C   UNL     1      34.853 -18.840 -22.253  0.00  0.00    +0.137 C 
ATOM     26  C   UNL     1      34.778 -18.643 -23.750  0.00  0.00    +0.239 C 
ATOM     27  C   UNL     1      34.919 -16.366 -23.090  0.00  0.00    +0.279 C 
ATOM     28  H   UNL     1      34.829 -17.029 -25.029  0.00  0.00    +0.158 HD
ENDBRANCH  20  25
ENDBRANCH   1  20
TORSDOF 5
ENDMDL
MODEL 5
REMARK VINA RESULT:     -12.3      5.334     10.039
REMARK  Name = 204109
REMARK  5 active torsions:
REMARK  status: ('A' for Active; 'I' for Inactive)
REMARK    1  A    between atoms: C_1  and  C_20
REMARK    2  A    between atoms: C_9  and  O_11
REMARK    3  A    between atoms: O_11  and  C_12
REMARK    4  A    between atoms: C_12  and  C_14
REMARK    5  A    between atoms: C_20  and  C_25
REMARK                            x       y       z     vdW  Elec       q    Type
REMARK                         _______ _______ _______ _____ _____    ______ ____
ROOT
ATOM      1  C   UNL     1      35.714 -22.745 -16.820  0.00  0.00    -0.021 C 
ATOM      2  C   UNL     1      35.752 -21.330 -18.799  0.00  0.00    -0.000 C 
ATOM      3  C   UNL     1      36.404 -21.909 -17.699  0.00  0.00    -0.004 C 
ATOM      4  C   UNL     1      34.380 -21.603 -19.012  0.00  0.00    +0.003 C 
ATOM      5  C   UNL     1      34.364 -23.013 -17.030  0.00  0.00    -0.004 C 
ATOM      6  C   UNL     1      33.700 -22.447 -18.119  0.00  0.00    -0.000 C 
ATOM      7  C   UNL     1      33.728 -21.025 -20.113  0.00  0.00    +0.037 C 
ATOM      8  C   UNL     1      36.431 -20.486 -19.693  0.00  0.00    +0.003 C 
ATOM      9  C   UNL     1      34.418 -20.188 -20.991  0.00  0.00    +0.139 C 
ATOM     10  C   UNL     1      35.768 -19.920 -20.782  0.00  0.00    +0.037 C 
ENDROOT
BRANCH   9  11
ATOM     11  O   UNL     1      33.773 -19.635 -22.055  0.00  0.00    -0.471 OA
BRANCH  11  12
ATOM     12  C   UNL     1      34.560 -19.325 -23.203  0.00  0.00    +0.234 C 
BRANCH  12  14
ATOM     13  F   UNL     1      35.313 -16.870 -22.022  0.00  0.00    -0.204 F 
ATOM     14  C   UNL     1      34.196 -18.002 -23.786  0.00  0.00    +0.049 C 
ATOM     15  C   UNL     1      34.598 -16.825 -23.155  0.00  0.00    +0.140 C 
ATOM     16  C   UNL     1      33.452 -17.942 -24.964  0.00  0.00    +0.002 C 
ATOM     17  C   UNL     1      34.257 -15.587 -23.703  0.00  0.00    +0.029 C 
ATOM     18  C   UNL     1      33.109 -16.706 -25.512  0.00  0.00    -0.000 C 
ATOM     19  C   UNL     1      33.513 -15.528 -24.882  0.00  0.00    +0.002 C 
ENDBRANCH  12  14
ENDBRANCH  11  12
ENDBRANCH   9  11
BRANCH   1  20
ATOM     20  C   UNL     1      36.422 -23.351 -15.656  0.00  0.00    +0.047 C 
BRANCH  20  25
ATOM     21  S   UNL     1      35.713 -23.696 -13.010  0.00  0.00    -0.048 S 
ATOM     22  O   UNL     1      35.751 -26.273 -15.883  0.00  0.00    -0.274 OA
ATOM     23  O   UNL     1      36.295 -25.641 -11.341  0.00  0.00    -0.263 OA
ATOM     24  N   UNL     1      36.047 -26.160 -13.593  0.00  0.00    -0.246 N 
ATOM     25  C   UNL     1      35.483 -24.151 -14.757  0.00  0.00    +0.137 C 
ATOM     26  C   UNL     1      35.770 -25.634 -14.837  0.00  0.00    +0.239 C 
ATOM     27  C   UNL     1      36.067 -25.332 -12.501  0.00  0.00    +0.279 C 
ATOM     28  H   UNL     1      36.229 -27.122 -13.490  0.00  0.00    +0.158 HD
ENDBRANCH  20  25
ENDBRANCH   1  20
TORSDOF 5
ENDMDL
MODEL 6
REMARK VINA RESULT:     -12.3      1.109      1.525
REMARK  Name = 204109
REMARK  5 active torsions:
REMARK  status: ('A' for Active; 'I' for Inactive)
REMARK    1  A    between atoms: C_1  and  C_20
REMARK    2  A    between atoms: C_9  and  O_11
REMARK    3  A    between atoms: O_11  and  C_12
REMARK    4  A    between atoms: C_12  and  C_14
REMARK    5  A    between atoms: C_20  and  C_25
REMARK                            x       y       z     vdW  Elec       q    Type
REMARK                         _______ _______ _______ _____ _____    ______ ____
ROOT
ATOM      1  C   UNL     1      34.802 -19.411 -21.555  0.00  0.00    -0.021 C 
ATOM      2  C   UNL     1      35.256 -20.896 -19.681  0.00  0.00    -0.000 C 
ATOM      3  C   UNL     1      35.698 -19.978 -20.648  0.00  0.00    -0.004 C 
ATOM      4  C   UNL     1      33.885 -21.243 -19.634  0.00  0.00    +0.003 C 
ATOM      5  C   UNL     1      33.454 -19.753 -21.508  0.00  0.00    -0.004 C 
ATOM      6  C   UNL     1      32.996 -20.662 -20.553  0.00  0.00    -0.000 C 
ATOM      7  C   UNL     1      33.442 -22.159 -18.666  0.00  0.00    +0.037 C 
ATOM      8  C   UNL     1      36.144 -21.476 -18.761  0.00  0.00    +0.003 C 
ATOM      9  C   UNL     1      34.339 -22.727 -17.760  0.00  0.00    +0.139 C 
ATOM     10  C   UNL     1      35.687 -22.385 -17.807  0.00  0.00    +0.037 C 
ENDROOT
BRANCH   9  11
ATOM     11  O   UNL     1      33.895 -23.614 -16.827  0.00  0.00    -0.471 OA
BRANCH  11  12
ATOM     12  C   UNL     1      33.441 -23.079 -15.586  0.00  0.00    +0.234 C 
BRANCH  12  14
ATOM     13  F   UNL     1      31.014 -22.534 -16.928  0.00  0.00    -0.204 F 
ATOM     14  C   UNL     1      32.136 -23.669 -15.169  0.00  0.00    +0.049 C 
ATOM     15  C   UNL     1      30.972 -23.361 -15.873  0.00  0.00    +0.140 C 
ATOM     16  C   UNL     1      32.081 -24.529 -14.073  0.00  0.00    +0.002 C 
ATOM     17  C   UNL     1      29.753 -23.914 -15.482  0.00  0.00    +0.029 C 
ATOM     18  C   UNL     1      30.862 -25.082 -13.681  0.00  0.00    -0.000 C 
ATOM     19  C   UNL     1      29.698 -24.776 -14.385  0.00  0.00    +0.002 C 
ENDBRANCH  12  14
ENDBRANCH  11  12
ENDBRANCH   9  11
BRANCH   1  20
ATOM     20  C   UNL     1      35.289 -18.439 -22.575  0.00  0.00    +0.047 C 
BRANCH  20  25
ATOM     21  S   UNL     1      33.752 -18.263 -24.862  0.00  0.00    -0.048 S 
ATOM     22  O   UNL     1      34.913 -15.458 -22.479  0.00  0.00    -0.274 OA
ATOM     23  O   UNL     1      33.855 -16.537 -26.842  0.00  0.00    -0.263 OA
ATOM     24  N   UNL     1      34.412 -15.800 -24.710  0.00  0.00    -0.246 N 
ATOM     25  C   UNL     1      34.152 -17.635 -23.202  0.00  0.00    +0.137 C 
ATOM     26  C   UNL     1      34.540 -16.186 -23.392  0.00  0.00    +0.239 C 
ATOM     27  C   UNL     1      34.013 -16.719 -25.644  0.00  0.00    +0.279 C 
ATOM     28  H   UNL     1      34.606 -14.873 -24.977  0.00  0.00    +0.158 HD
ENDBRANCH  20  25
ENDBRANCH   1  20
TORSDOF 5
ENDMDL
MODEL 7
REMARK VINA RESULT:     -12.2      2.737      4.038
REMARK  Name = 204109
REMARK  5 active torsions:
REMARK  status: ('A' for Active; 'I' for Inactive)
REMARK    1  A    between atoms: C_1  and  C_20
REMARK    2  A    between atoms: C_9  and  O_11
REMARK    3  A    between atoms: O_11  and  C_12
REMARK    4  A    between atoms: C_12  and  C_14
REMARK    5  A    between atoms: C_20  and  C_25
REMARK                            x       y       z     vdW  Elec       q    Type
REMARK                         _______ _______ _______ _____ _____    ______ ____
ROOT
ATOM      1  C   UNL     1      35.564 -19.157 -21.621  0.00  0.00    -0.021 C 
ATOM      2  C   UNL     1      34.175 -20.612 -20.251  0.00  0.00    -0.000 C 
ATOM      3  C   UNL     1      34.310 -19.663 -21.278  0.00  0.00    -0.004 C 
ATOM      4  C   UNL     1      35.330 -21.053 -19.562  0.00  0.00    +0.003 C 
ATOM      5  C   UNL     1      36.699 -19.591 -20.943  0.00  0.00    -0.004 C 
ATOM      6  C   UNL     1      36.585 -20.534 -19.921  0.00  0.00    -0.000 C 
ATOM      7  C   UNL     1      35.196 -22.002 -18.536  0.00  0.00    +0.037 C 
ATOM      8  C   UNL     1      32.921 -21.132 -19.893  0.00  0.00    +0.003 C 
ATOM      9  C   UNL     1      33.942 -22.508 -18.193  0.00  0.00    +0.139 C 
ATOM     10  C   UNL     1      32.807 -22.074 -18.871  0.00  0.00    +0.037 C 
ENDROOT
BRANCH   9  11
ATOM     11  O   UNL     1      33.828 -23.428 -17.196  0.00  0.00    -0.471 OA
BRANCH  11  12
ATOM     12  C   UNL     1      34.323 -23.059 -15.911  0.00  0.00    +0.234 C 
BRANCH  12  14
ATOM     13  F   UNL     1      36.983 -22.127 -15.705  0.00  0.00    -0.204 F 
ATOM     14  C   UNL     1      35.454 -23.929 -15.479  0.00  0.00    +0.049 C 
ATOM     15  C   UNL     1      36.745 -23.410 -15.397  0.00  0.00    +0.140 C 
ATOM     16  C   UNL     1      35.217 -25.265 -15.157  0.00  0.00    +0.002 C 
ATOM     17  C   UNL     1      37.802 -24.227 -14.992  0.00  0.00    +0.029 C 
ATOM     18  C   UNL     1      36.274 -26.083 -14.752  0.00  0.00    -0.000 C 
ATOM     19  C   UNL     1      37.565 -25.563 -14.670  0.00  0.00    +0.002 C 
ENDBRANCH  12  14
ENDBRANCH  11  12
ENDBRANCH   9  11
BRANCH   1  20
ATOM     20  C   UNL     1      35.688 -18.149 -22.714  0.00  0.00    +0.047 C 
BRANCH  20  25
ATOM     21  S   UNL     1      33.937 -18.424 -24.830  0.00  0.00    -0.048 S 
ATOM     22  O   UNL     1      34.586 -15.355 -22.582  0.00  0.00    -0.274 OA
ATOM     23  O   UNL     1      33.405 -16.781 -26.812  0.00  0.00    -0.263 OA
ATOM     24  N   UNL     1      33.968 -15.871 -24.749  0.00  0.00    -0.246 N 
ATOM     25  C   UNL     1      34.328 -17.672 -23.221  0.00  0.00    +0.137 C 
ATOM     26  C   UNL     1      34.319 -16.178 -23.451  0.00  0.00    +0.239 C 
ATOM     27  C   UNL     1      33.722 -16.885 -25.637  0.00  0.00    +0.279 C 
ATOM     28  H   UNL     1      33.896 -14.932 -25.036  0.00  0.00    +0.158 HD
ENDBRANCH  20  25
ENDBRANCH   1  20
TORSDOF 5
ENDMDL
MODEL 8
REMARK VINA RESULT:     -12.0      5.289      9.728
REMARK  Name = 204109
REMARK  5 active torsions:
REMARK  status: ('A' for Active; 'I' for Inactive)
REMARK    1  A    between atoms: C_1  and  C_20
REMARK    2  A    between atoms: C_9  and  O_11
REMARK    3  A    between atoms: O_11  and  C_12
REMARK    4  A    between atoms: C_12  and  C_14
REMARK    5  A    between atoms: C_20  and  C_25
REMARK                            x       y       z     vdW  Elec       q    Type
REMARK                         _______ _______ _______ _____ _____    ______ ____
ROOT
ATOM      1  C   UNL     1      35.704 -23.585 -14.990  0.00  0.00    -0.021 C 
ATOM      2  C   UNL     1      34.673 -22.832 -17.061  0.00  0.00    -0.000 C 
ATOM      3  C   UNL     1      34.609 -23.545 -15.853  0.00  0.00    -0.004 C 
ATOM      4  C   UNL     1      35.866 -22.149 -17.398  0.00  0.00    +0.003 C 
ATOM      5  C   UNL     1      36.877 -22.914 -15.322  0.00  0.00    -0.004 C 
ATOM      6  C   UNL     1      36.959 -22.199 -16.518  0.00  0.00    -0.000 C 
ATOM      7  C   UNL     1      35.931 -21.436 -18.606  0.00  0.00    +0.037 C 
ATOM      8  C   UNL     1      33.580 -22.781 -17.941  0.00  0.00    +0.003 C 
ATOM      9  C   UNL     1      34.835 -21.396 -19.469  0.00  0.00    +0.139 C 
ATOM     10  C   UNL     1      33.661 -22.067 -19.137  0.00  0.00    +0.037 C 
ENDROOT
BRANCH   9  11
ATOM     11  O   UNL     1      34.912 -20.699 -20.636  0.00  0.00    -0.471 OA
BRANCH  11  12
ATOM     12  C   UNL     1      33.861 -19.776 -20.912  0.00  0.00    +0.234 C 
BRANCH  12  14
ATOM     13  F   UNL     1      34.989 -17.224 -20.460  0.00  0.00    -0.204 F 
ATOM     14  C   UNL     1      34.217 -18.841 -22.018  0.00  0.00    +0.049 C 
ATOM     15  C   UNL     1      34.771 -17.595 -21.730  0.00  0.00    +0.140 C 
ATOM     16  C   UNL     1      33.995 -19.216 -23.343  0.00  0.00    +0.002 C 
ATOM     17  C   UNL     1      35.105 -16.722 -22.767  0.00  0.00    +0.029 C 
ATOM     18  C   UNL     1      34.328 -18.344 -24.380  0.00  0.00    -0.000 C 
ATOM     19  C   UNL     1      34.883 -17.098 -24.092  0.00  0.00    +0.002 C 
ENDBRANCH  12  14
ENDBRANCH  11  12
ENDBRANCH   9  11
BRANCH   1  20
ATOM     20  C   UNL     1      35.618 -24.347 -13.711  0.00  0.00    +0.047 C 
BRANCH  20  25
ATOM     21  S   UNL     1      38.247 -24.979 -13.152  0.00  0.00    -0.048 S 
ATOM     22  O   UNL     1      35.842 -26.580 -15.711  0.00  0.00    -0.274 OA
ATOM     23  O   UNL     1      40.239 -25.524 -14.779  0.00  0.00    -0.263 OA
ATOM     24  N   UNL     1      38.094 -26.148 -15.418  0.00  0.00    -0.246 N 
ATOM     25  C   UNL     1      36.590 -25.525 -13.670  0.00  0.00    +0.137 C 
ATOM     26  C   UNL     1      36.768 -26.142 -15.039  0.00  0.00    +0.239 C 
ATOM     27  C   UNL     1      39.035 -25.598 -14.588  0.00  0.00    +0.279 C 
ATOM     28  H   UNL     1      38.362 -26.544 -16.279  0.00  0.00    +0.158 HD
ENDBRANCH  20  25
ENDBRANCH   1  20
TORSDOF 5
ENDMDL
MODEL 9
REMARK VINA RESULT:     -11.8      2.967      4.215
REMARK  Name = 204109
REMARK  5 active torsions:
REMARK  status: ('A' for Active; 'I' for Inactive)
REMARK    1  A    between atoms: C_1  and  C_20
REMARK    2  A    between atoms: C_9  and  O_11
REMARK    3  A    between atoms: O_11  and  C_12
REMARK    4  A    between atoms: C_12  and  C_14
REMARK    5  A    between atoms: C_20  and  C_25
REMARK                            x       y       z     vdW  Elec       q    Type
REMARK                         _______ _______ _______ _____ _____    ______ ____
ROOT
ATOM      1  C   UNL     1      34.939 -20.501 -20.574  0.00  0.00    -0.021 C 
ATOM      2  C   UNL     1      35.462 -21.639 -18.488  0.00  0.00    -0.000 C 
ATOM      3  C   UNL     1      35.856 -20.855 -19.585  0.00  0.00    -0.004 C 
ATOM      4  C   UNL     1      34.117 -22.070 -18.395  0.00  0.00    +0.003 C 
ATOM      5  C   UNL     1      33.617 -20.925 -20.482  0.00  0.00    -0.004 C 
ATOM      6  C   UNL     1      33.206 -21.704 -19.399  0.00  0.00    -0.000 C 
ATOM      7  C   UNL     1      33.722 -22.853 -17.298  0.00  0.00    +0.037 C 
ATOM      8  C   UNL     1      36.372 -22.005 -17.483  0.00  0.00    +0.003 C 
ATOM      9  C   UNL     1      34.640 -23.208 -16.309  0.00  0.00    +0.139 C 
ATOM     10  C   UNL     1      35.962 -22.783 -16.401  0.00  0.00    +0.037 C 
ENDROOT
BRANCH   9  11
ATOM     11  O   UNL     1      34.243 -23.967 -15.251  0.00  0.00    -0.471 OA
BRANCH  11  12
ATOM     12  C   UNL     1      35.024 -25.121 -14.949  0.00  0.00    +0.234 C 
BRANCH  12  14
ATOM     13  F   UNL     1      37.671 -26.091 -15.153  0.00  0.00    -0.204 F 
ATOM     14  C   UNL     1      36.073 -24.831 -13.929  0.00  0.00    +0.049 C 
ATOM     15  C   UNL     1      37.362 -25.340 -14.087  0.00  0.00    +0.140 C 
ATOM     16  C   UNL     1      35.763 -24.051 -12.816  0.00  0.00    +0.002 C 
ATOM     17  C   UNL     1      38.342 -25.067 -13.132  0.00  0.00    +0.029 C 
ATOM     18  C   UNL     1      36.742 -23.778 -11.860  0.00  0.00    -0.000 C 
ATOM     19  C   UNL     1      38.031 -24.285 -12.018  0.00  0.00    +0.002 C 
ENDBRANCH  12  14
ENDBRANCH  11  12
ENDBRANCH   9  11
BRANCH   1  20
ATOM     20  C   UNL     1      35.375 -19.668 -21.732  0.00  0.00    +0.047 C 
BRANCH  20  25
ATOM     21  S   UNL     1      34.141 -18.536 -23.927  0.00  0.00    -0.048 S 
ATOM     22  O   UNL     1      35.017 -16.938 -20.525  0.00  0.00    -0.274 OA
ATOM     23  O   UNL     1      34.509 -16.189 -25.053  0.00  0.00    -0.263 OA
ATOM     24  N   UNL     1      34.799 -16.365 -22.754  0.00  0.00    -0.246 N 
ATOM     25  C   UNL     1      34.334 -18.621 -22.120  0.00  0.00    +0.137 C 
ATOM     26  C   UNL     1      34.755 -17.235 -21.685  0.00  0.00    +0.239 C 
ATOM     27  C   UNL     1      34.512 -16.828 -24.011  0.00  0.00    +0.279 C 
ATOM     28  H   UNL     1      35.034 -15.419 -22.615  0.00  0.00    +0.158 HD
ENDBRANCH  20  25
ENDBRANCH   1  20
TORSDOF 5
ENDMDL
