MODEL 1
REMARK VINA RESULT:     -12.8      0.000      0.000
REMARK  Name = 11697676
REMARK  7 active torsions:
REMARK  status: ('A' for Active; 'I' for Inactive)
REMARK    1  A    between atoms: N_1  and  C_18
REMARK    2  A    between atoms: N_2  and  C_8
REMARK    3  A    between atoms: C_18  and  C_19
REMARK    4  A    between atoms: C_19  and  C_20
REMARK    5  A    between atoms: C_20  and  C_21
REMARK    6  A    between atoms: C_21  and  O_22
REMARK    7  A    between atoms: O_22  and  C_28
REMARK                            x       y       z     vdW  Elec       q    Type
REMARK                         _______ _______ _______ _____ _____    ______ ____
ROOT
ATOM      1  N   UNL     1      35.165 -20.820 -19.370  0.00  0.00    +0.389 N 
ATOM      2  N   UNL     1      34.756 -19.288 -21.745  0.00  0.00    -0.312 N 
ATOM      3  C   UNL     1      36.306 -20.435 -20.210  0.00  0.00    -0.055 C 
ATOM      4  C   UNL     1      33.982 -21.050 -20.208  0.00  0.00    -0.055 C 
ATOM      5  C   UNL     1      36.006 -19.151 -20.988  0.00  0.00    +0.068 C 
ATOM      6  C   UNL     1      33.606 -19.786 -20.986  0.00  0.00    +0.068 C 
ATOM      7  H   UNL     1      34.965 -20.061 -18.718  0.00  0.00    -0.080 HD
ENDROOT
BRANCH   2   8
ATOM      8  C   UNL     1      34.552 -18.434 -22.835  0.00  0.00    +0.048 C 
ATOM      9  C   UNL     1      34.483 -17.018 -22.702  0.00  0.00    +0.013 C 
ATOM     10  C   UNL     1      34.405 -18.992 -24.123  0.00  0.00    +0.015 C 
ATOM     11  C   UNL     1      34.274 -16.201 -23.837  0.00  0.00    +0.001 C 
ATOM     12  C   UNL     1      34.623 -16.419 -21.440  0.00  0.00    +0.001 C 
ATOM     13  C   UNL     1      34.201 -18.187 -25.241  0.00  0.00    +0.001 C 
ATOM     14  C   UNL     1      34.136 -16.801 -25.100  0.00  0.00    +0.000 C 
ATOM     15  C   UNL     1      34.211 -14.807 -23.678  0.00  0.00    +0.000 C 
ATOM     16  C   UNL     1      34.558 -15.032 -21.299  0.00  0.00    +0.000 C 
ATOM     17  C   UNL     1      34.352 -14.228 -22.416  0.00  0.00    +0.000 C 
ENDBRANCH   2   8
BRANCH   1  18
ATOM     18  C   UNL     1      35.482 -22.017 -18.591  0.00  0.00    -0.077 C 
BRANCH  18  19
ATOM     19  C   UNL     1      36.441 -21.671 -17.453  0.00  0.00    -0.019 C 
BRANCH  19  20
ATOM     20  C   UNL     1      36.163 -22.525 -16.218  0.00  0.00    +0.045 C 
BRANCH  20  21
ATOM     21  C   UNL     1      34.806 -23.212 -16.302  0.00  0.00    +0.208 C 
BRANCH  21  22
ATOM     22  O   UNL     1      34.155 -23.151 -15.041  0.00  0.00    -0.452 OA
BRANCH  22  28
ATOM     23  O   UNL     1      27.758 -22.781 -17.811  0.00  0.00    -0.275 OA
ATOM     24  N   UNL     1      29.857 -22.974 -16.897  0.00  0.00    -0.263 N 
ATOM     25  N   UNL     1      32.023 -23.071 -15.951  0.00  0.00    -0.357 NA
ATOM     26  C   UNL     1      30.234 -24.353 -14.952  0.00  0.00    +0.090 C 
ATOM     27  C   UNL     1      28.819 -24.839 -15.033  0.00  0.00    +0.022 C 
ATOM     28  C   UNL     1      32.848 -23.561 -14.999  0.00  0.00    +0.278 C 
ATOM     29  C   UNL     1      30.729 -23.466 -15.907  0.00  0.00    +0.170 C 
ATOM     30  C   UNL     1      27.916 -23.774 -15.634  0.00  0.00    +0.086 C 
ATOM     31  C   UNL     1      31.122 -24.846 -13.995  0.00  0.00    -0.012 C 
ATOM     32  C   UNL     1      32.450 -24.439 -14.008  0.00  0.00    +0.068 C 
ATOM     33  C   UNL     1      28.489 -23.164 -16.896  0.00  0.00    +0.228 C 
ATOM     34  H   UNL     1      30.249 -22.461 -17.641  0.00  0.00    +0.157 HD
ENDBRANCH  22  28
ENDBRANCH  21  22
ENDBRANCH  20  21
ENDBRANCH  19  20
ENDBRANCH  18  19
ENDBRANCH   1  18
TORSDOF 7
ENDMDL
MODEL 2
REMARK VINA RESULT:     -12.6      0.480      2.141
REMARK  Name = 11697676
REMARK  7 active torsions:
REMARK  status: ('A' for Active; 'I' for Inactive)
REMARK    1  A    between atoms: N_1  and  C_18
REMARK    2  A    between atoms: N_2  and  C_8
REMARK    3  A    between atoms: C_18  and  C_19
REMARK    4  A    between atoms: C_19  and  C_20
REMARK    5  A    between atoms: C_20  and  C_21
REMARK    6  A    between atoms: C_21  and  O_22
REMARK    7  A    between atoms: O_22  and  C_28
REMARK                            x       y       z     vdW  Elec       q    Type
REMARK                         _______ _______ _______ _____ _____    ______ ____
ROOT
ATOM      1  N   UNL     1      35.056 -21.275 -19.869  0.00  0.00    +0.389 N 
ATOM      2  N   UNL     1      34.769 -18.788 -21.244  0.00  0.00    -0.312 N 
ATOM      3  C   UNL     1      33.754 -20.596 -19.911  0.00  0.00    -0.055 C 
ATOM      4  C   UNL     1      36.137 -20.282 -19.843  0.00  0.00    -0.055 C 
ATOM      5  C   UNL     1      33.635 -19.716 -21.158  0.00  0.00    +0.068 C 
ATOM      6  C   UNL     1      36.095 -19.391 -21.087  0.00  0.00    +0.068 C 
ATOM      7  H   UNL     1      35.155 -21.848 -20.707  0.00  0.00    -0.080 HD
ENDROOT
BRANCH   2   8
ATOM      8  C   UNL     1      34.618 -17.636 -22.025  0.00  0.00    +0.048 C 
ATOM      9  C   UNL     1      34.357 -17.683 -23.423  0.00  0.00    +0.013 C 
ATOM     10  C   UNL     1      34.728 -16.372 -21.407  0.00  0.00    +0.015 C 
ATOM     11  C   UNL     1      34.214 -16.488 -24.166  0.00  0.00    +0.001 C 
ATOM     12  C   UNL     1      34.240 -18.918 -24.080  0.00  0.00    +0.001 C 
ATOM     13  C   UNL     1      34.586 -15.195 -22.139  0.00  0.00    +0.001 C 
ATOM     14  C   UNL     1      34.330 -15.252 -23.508  0.00  0.00    +0.000 C 
ATOM     15  C   UNL     1      33.957 -16.562 -25.545  0.00  0.00    +0.000 C 
ATOM     16  C   UNL     1      33.985 -18.974 -25.451  0.00  0.00    +0.000 C 
ATOM     17  C   UNL     1      33.844 -17.799 -26.182  0.00  0.00    +0.000 C 
ENDBRANCH   2   8
BRANCH   1  18
ATOM     18  C   UNL     1      35.138 -22.154 -18.703  0.00  0.00    -0.077 C 
BRANCH  18  19
ATOM     19  C   UNL     1      36.292 -21.728 -17.798  0.00  0.00    -0.019 C 
BRANCH  19  20
ATOM     20  C   UNL     1      36.136 -22.309 -16.394  0.00  0.00    +0.045 C 
BRANCH  20  21
ATOM     21  C   UNL     1      34.948 -23.258 -16.306  0.00  0.00    +0.208 C 
BRANCH  21  22
ATOM     22  O   UNL     1      34.229 -23.021 -15.103  0.00  0.00    -0.452 OA
BRANCH  22  28
ATOM     23  O   UNL     1      27.777 -22.771 -17.757  0.00  0.00    -0.275 OA
ATOM     24  N   UNL     1      29.897 -22.925 -16.884  0.00  0.00    -0.263 N 
ATOM     25  N   UNL     1      32.080 -22.981 -15.977  0.00  0.00    -0.357 NA
ATOM     26  C   UNL     1      30.352 -24.356 -14.994  0.00  0.00    +0.090 C 
ATOM     27  C   UNL     1      28.952 -24.886 -15.070  0.00  0.00    +0.022 C 
ATOM     28  C   UNL     1      32.937 -23.475 -15.055  0.00  0.00    +0.278 C 
ATOM     29  C   UNL     1      30.801 -23.420 -15.926  0.00  0.00    +0.170 C 
ATOM     30  C   UNL     1      28.005 -23.832 -15.619  0.00  0.00    +0.086 C 
ATOM     31  C   UNL     1      31.272 -24.852 -14.069  0.00  0.00    -0.012 C 
ATOM     32  C   UNL     1      32.586 -24.401 -14.089  0.00  0.00    +0.068 C 
ATOM     33  C   UNL     1      28.536 -23.160 -16.868  0.00  0.00    +0.228 C 
ATOM     34  H   UNL     1      30.258 -22.373 -17.615  0.00  0.00    +0.157 HD
ENDBRANCH  22  28
ENDBRANCH  21  22
ENDBRANCH  20  21
ENDBRANCH  19  20
ENDBRANCH  18  19
ENDBRANCH   1  18
TORSDOF 7
ENDMDL
MODEL 3
REMARK VINA RESULT:     -12.5      2.686      4.977
REMARK  Name = 11697676
REMARK  7 active torsions:
REMARK  status: ('A' for Active; 'I' for Inactive)
REMARK    1  A    between atoms: N_1  and  C_18
REMARK    2  A    between atoms: N_2  and  C_8
REMARK    3  A    between atoms: C_18  and  C_19
REMARK    4  A    between atoms: C_19  and  C_20
REMARK    5  A    between atoms: C_20  and  C_21
REMARK    6  A    between atoms: C_21  and  O_22
REMARK    7  A    between atoms: O_22  and  C_28
REMARK                            x       y       z     vdW  Elec       q    Type
REMARK                         _______ _______ _______ _____ _____    ______ ____
ROOT
ATOM      1  N   UNL     1      34.242 -21.692 -19.493  0.00  0.00    +0.389 N 
ATOM      2  N   UNL     1      34.363 -19.533 -21.358  0.00  0.00    -0.312 N 
ATOM      3  C   UNL     1      33.083 -20.811 -19.684  0.00  0.00    -0.055 C 
ATOM      4  C   UNL     1      35.484 -20.929 -19.667  0.00  0.00    -0.055 C 
ATOM      5  C   UNL     1      33.084 -20.200 -21.088  0.00  0.00    +0.068 C 
ATOM      6  C   UNL     1      35.564 -20.322 -21.070  0.00  0.00    +0.068 C 
ATOM      7  H   UNL     1      34.210 -22.434 -20.192  0.00  0.00    -0.080 HD
ENDROOT
BRANCH   2   8
ATOM      8  C   UNL     1      34.397 -18.560 -22.364  0.00  0.00    +0.048 C 
ATOM      9  C   UNL     1      34.461 -17.166 -22.085  0.00  0.00    +0.013 C 
ATOM     10  C   UNL     1      34.367 -18.971 -23.714  0.00  0.00    +0.015 C 
ATOM     11  C   UNL     1      34.492 -16.224 -23.140  0.00  0.00    +0.001 C 
ATOM     12  C   UNL     1      34.492 -16.711 -20.756  0.00  0.00    +0.001 C 
ATOM     13  C   UNL     1      34.400 -18.043 -24.752  0.00  0.00    +0.001 C 
ATOM     14  C   UNL     1      34.462 -16.680 -24.468  0.00  0.00    +0.000 C 
ATOM     15  C   UNL     1      34.555 -14.854 -22.836  0.00  0.00    +0.000 C 
ATOM     16  C   UNL     1      34.554 -15.346 -20.473  0.00  0.00    +0.000 C 
ATOM     17  C   UNL     1      34.585 -14.420 -21.511  0.00  0.00    +0.000 C 
ENDBRANCH   2   8
BRANCH   1  18
ATOM     18  C   UNL     1      34.202 -22.311 -18.168  0.00  0.00    -0.077 C 
BRANCH  18  19
ATOM     19  C   UNL     1      33.140 -23.409 -18.128  0.00  0.00    -0.019 C 
BRANCH  19  20
ATOM     20  C   UNL     1      32.150 -23.180 -16.987  0.00  0.00    +0.045 C 
BRANCH  20  21
ATOM     21  C   UNL     1      32.859 -23.048 -15.646  0.00  0.00    +0.208 C 
BRANCH  21  22
ATOM     22  O   UNL     1      33.225 -24.334 -15.166  0.00  0.00    -0.452 OA
BRANCH  22  28
ATOM     23  O   UNL     1      40.016 -25.846 -15.737  0.00  0.00    -0.275 OA
ATOM     24  N   UNL     1      37.799 -25.290 -15.513  0.00  0.00    -0.263 N 
ATOM     25  N   UNL     1      35.491 -24.805 -15.326  0.00  0.00    -0.357 NA
ATOM     26  C   UNL     1      36.896 -24.661 -13.364  0.00  0.00    +0.090 C 
ATOM     27  C   UNL     1      38.278 -24.693 -12.784  0.00  0.00    +0.022 C 
ATOM     28  C   UNL     1      34.446 -24.440 -14.551  0.00  0.00    +0.278 C 
ATOM     29  C   UNL     1      36.696 -24.920 -14.720  0.00  0.00    +0.170 C 
ATOM     30  C   UNL     1      39.143 -25.711 -13.508  0.00  0.00    +0.086 C 
ATOM     31  C   UNL     1      35.793 -24.272 -12.603  0.00  0.00    -0.012 C 
ATOM     32  C   UNL     1      34.542 -24.168 -13.198  0.00  0.00    +0.068 C 
ATOM     33  C   UNL     1      39.052 -25.593 -15.015  0.00  0.00    +0.228 C 
ATOM     34  H   UNL     1      37.669 -25.335 -16.488  0.00  0.00    +0.157 HD
ENDBRANCH  22  28
ENDBRANCH  21  22
ENDBRANCH  20  21
ENDBRANCH  19  20
ENDBRANCH  18  19
ENDBRANCH   1  18
TORSDOF 7
ENDMDL
MODEL 4
REMARK VINA RESULT:     -12.4      2.661      5.302
REMARK  Name = 11697676
REMARK  7 active torsions:
REMARK  status: ('A' for Active; 'I' for Inactive)
REMARK    1  A    between atoms: N_1  and  C_18
REMARK    2  A    between atoms: N_2  and  C_8
REMARK    3  A    between atoms: C_18  and  C_19
REMARK    4  A    between atoms: C_19  and  C_20
REMARK    5  A    between atoms: C_20  and  C_21
REMARK    6  A    between atoms: C_21  and  O_22
REMARK    7  A    between atoms: O_22  and  C_28
REMARK                            x       y       z     vdW  Elec       q    Type
REMARK                         _______ _______ _______ _____ _____    ______ ____
ROOT
ATOM      1  N   UNL     1      34.830 -21.172 -20.172  0.00  0.00    +0.389 N 
ATOM      2  N   UNL     1      34.628 -18.557 -21.305  0.00  0.00    -0.312 N 
ATOM      3  C   UNL     1      33.529 -20.494 -20.247  0.00  0.00    -0.055 C 
ATOM      4  C   UNL     1      35.896 -20.185 -19.960  0.00  0.00    -0.055 C 
ATOM      5  C   UNL     1      33.499 -19.491 -21.403  0.00  0.00    +0.068 C 
ATOM      6  C   UNL     1      35.944 -19.172 -21.107  0.00  0.00    +0.068 C 
ATOM      7  H   UNL     1      34.999 -21.656 -21.054  0.00  0.00    -0.080 HD
ENDROOT
BRANCH   2   8
ATOM      8  C   UNL     1      34.528 -17.332 -21.974  0.00  0.00    +0.048 C 
ATOM      9  C   UNL     1      34.272 -17.237 -23.371  0.00  0.00    +0.013 C 
ATOM     10  C   UNL     1      34.687 -16.137 -21.240  0.00  0.00    +0.015 C 
ATOM     11  C   UNL     1      34.180 -15.972 -23.998  0.00  0.00    +0.001 C 
ATOM     12  C   UNL     1      34.107 -18.399 -24.141  0.00  0.00    +0.001 C 
ATOM     13  C   UNL     1      34.596 -14.892 -21.858  0.00  0.00    +0.001 C 
ATOM     14  C   UNL     1      34.344 -14.809 -23.227  0.00  0.00    +0.000 C 
ATOM     15  C   UNL     1      33.927 -15.906 -25.378  0.00  0.00    +0.000 C 
ATOM     16  C   UNL     1      33.856 -18.315 -25.511  0.00  0.00    +0.000 C 
ATOM     17  C   UNL     1      33.766 -17.071 -26.128  0.00  0.00    +0.000 C 
ENDBRANCH   2   8
BRANCH   1  18
ATOM     18  C   UNL     1      34.829 -22.165 -19.099  0.00  0.00    -0.077 C 
BRANCH  18  19
ATOM     19  C   UNL     1      33.418 -22.340 -18.539  0.00  0.00    -0.019 C 
BRANCH  19  20
ATOM     20  C   UNL     1      33.281 -23.665 -17.791  0.00  0.00    +0.045 C 
BRANCH  20  21
ATOM     21  C   UNL     1      32.967 -23.449 -16.316  0.00  0.00    +0.208 C 
BRANCH  21  22
ATOM     22  O   UNL     1      34.017 -22.714 -15.703  0.00  0.00    -0.452 OA
BRANCH  22  28
ATOM     23  O   UNL     1      40.476 -25.345 -15.391  0.00  0.00    -0.275 OA
ATOM     24  N   UNL     1      38.358 -24.455 -15.427  0.00  0.00    -0.263 N 
ATOM     25  N   UNL     1      36.164 -23.581 -15.556  0.00  0.00    -0.357 NA
ATOM     26  C   UNL     1      36.819 -24.860 -13.612  0.00  0.00    +0.090 C 
ATOM     27  C   UNL     1      37.914 -25.542 -12.848  0.00  0.00    +0.022 C 
ATOM     28  C   UNL     1      34.944 -23.434 -14.994  0.00  0.00    +0.278 C 
ATOM     29  C   UNL     1      37.079 -24.300 -14.862  0.00  0.00    +0.170 C 
ATOM     30  C   UNL     1      38.904 -26.200 -13.795  0.00  0.00    +0.086 C 
ATOM     31  C   UNL     1      35.551 -24.672 -13.061  0.00  0.00    -0.012 C 
ATOM     32  C   UNL     1      34.590 -23.956 -13.763  0.00  0.00    +0.068 C 
ATOM     33  C   UNL     1      39.342 -25.280 -14.916  0.00  0.00    +0.228 C 
ATOM     34  H   UNL     1      38.567 -23.942 -16.241  0.00  0.00    +0.157 HD
ENDBRANCH  22  28
ENDBRANCH  21  22
ENDBRANCH  20  21
ENDBRANCH  19  20
ENDBRANCH  18  19
ENDBRANCH   1  18
TORSDOF 7
ENDMDL
MODEL 5
REMARK VINA RESULT:     -12.3      2.955      5.051
REMARK  Name = 11697676
REMARK  7 active torsions:
REMARK  status: ('A' for Active; 'I' for Inactive)
REMARK    1  A    between atoms: N_1  and  C_18
REMARK    2  A    between atoms: N_2  and  C_8
REMARK    3  A    between atoms: C_18  and  C_19
REMARK    4  A    between atoms: C_19  and  C_20
REMARK    5  A    between atoms: C_20  and  C_21
REMARK    6  A    between atoms: C_21  and  O_22
REMARK    7  A    between atoms: O_22  and  C_28
REMARK                            x       y       z     vdW  Elec       q    Type
REMARK                         _______ _______ _______ _____ _____    ______ ____
ROOT
ATOM      1  N   UNL     1      35.068 -20.447 -20.758  0.00  0.00    +0.389 N 
ATOM      2  N   UNL     1      34.483 -18.372 -22.632  0.00  0.00    -0.312 N 
ATOM      3  C   UNL     1      33.688 -19.979 -20.941  0.00  0.00    -0.055 C 
ATOM      4  C   UNL     1      36.002 -19.330 -20.947  0.00  0.00    -0.055 C 
ATOM      5  C   UNL     1      33.484 -19.409 -22.347  0.00  0.00    +0.068 C 
ATOM      6  C   UNL     1      35.874 -18.738 -22.353  0.00  0.00    +0.068 C 
ATOM      7  H   UNL     1      35.267 -21.165 -21.454  0.00  0.00    -0.080 HD
ENDROOT
BRANCH   2   8
ATOM      8  C   UNL     1      34.198 -17.445 -23.641  0.00  0.00    +0.048 C 
ATOM      9  C   UNL     1      34.106 -16.046 -23.398  0.00  0.00    +0.013 C 
ATOM     10  C   UNL     1      33.992 -17.909 -24.958  0.00  0.00    +0.015 C 
ATOM     11  C   UNL     1      33.816 -15.152 -24.455  0.00  0.00    +0.001 C 
ATOM     12  C   UNL     1      34.304 -15.538 -22.104  0.00  0.00    +0.001 C 
ATOM     13  C   UNL     1      33.707 -17.029 -25.999  0.00  0.00    +0.001 C 
ATOM     14  C   UNL     1      33.619 -15.660 -25.750  0.00  0.00    +0.000 C 
ATOM     15  C   UNL     1      33.731 -13.776 -24.188  0.00  0.00    +0.000 C 
ATOM     16  C   UNL     1      34.216 -14.168 -21.856  0.00  0.00    +0.000 C 
ATOM     17  C   UNL     1      33.929 -13.288 -22.895  0.00  0.00    +0.000 C 
ENDBRANCH   2   8
BRANCH   1  18
ATOM     18  C   UNL     1      35.237 -21.038 -19.431  0.00  0.00    -0.077 C 
BRANCH  18  19
ATOM     19  C   UNL     1      34.615 -22.433 -19.389  0.00  0.00    -0.019 C 
BRANCH  19  20
ATOM     20  C   UNL     1      33.333 -22.442 -18.560  0.00  0.00    +0.045 C 
BRANCH  20  21
ATOM     21  C   UNL     1      33.511 -23.207 -17.255  0.00  0.00    +0.208 C 
BRANCH  21  22
ATOM     22  O   UNL     1      34.419 -22.514 -16.410  0.00  0.00    -0.452 OA
BRANCH  22  28
ATOM     23  O   UNL     1      40.634 -25.371 -15.018  0.00  0.00    -0.275 OA
ATOM     24  N   UNL     1      38.585 -24.408 -15.409  0.00  0.00    -0.263 N 
ATOM     25  N   UNL     1      36.477 -23.457 -15.905  0.00  0.00    -0.357 NA
ATOM     26  C   UNL     1      36.736 -24.786 -13.902  0.00  0.00    +0.090 C 
ATOM     27  C   UNL     1      37.656 -25.517 -12.971  0.00  0.00    +0.022 C 
ATOM     28  C   UNL     1      35.181 -23.276 -15.564  0.00  0.00    +0.278 C 
ATOM     29  C   UNL     1      37.231 -24.217 -15.075  0.00  0.00    +0.170 C 
ATOM     30  C   UNL     1      38.778 -26.194 -13.742  0.00  0.00    +0.086 C 
ATOM     31  C   UNL     1      35.397 -24.562 -13.580  0.00  0.00    -0.012 C 
ATOM     32  C   UNL     1      34.599 -23.803 -14.426  0.00  0.00    +0.068 C 
ATOM     33  C   UNL     1      39.436 -25.274 -14.749  0.00  0.00    +0.228 C 
ATOM     34  H   UNL     1      38.951 -23.891 -16.162  0.00  0.00    +0.157 HD
ENDBRANCH  22  28
ENDBRANCH  21  22
ENDBRANCH  20  21
ENDBRANCH  19  20
ENDBRANCH  18  19
ENDBRANCH   1  18
TORSDOF 7
ENDMDL
MODEL 6
REMARK VINA RESULT:     -12.0      2.440      4.273
REMARK  Name = 11697676
REMARK  7 active torsions:
REMARK  status: ('A' for Active; 'I' for Inactive)
REMARK    1  A    between atoms: N_1  and  C_18
REMARK    2  A    between atoms: N_2  and  C_8
REMARK    3  A    between atoms: C_18  and  C_19
REMARK    4  A    between atoms: C_19  and  C_20
REMARK    5  A    between atoms: C_20  and  C_21
REMARK    6  A    between atoms: C_21  and  O_22
REMARK    7  A    between atoms: O_22  and  C_28
REMARK                            x       y       z     vdW  Elec       q    Type
REMARK                         _______ _______ _______ _____ _____    ______ ____
ROOT
ATOM      1  N   UNL     1      35.117 -17.413 -21.754  0.00  0.00    +0.389 N 
ATOM      2  N   UNL     1      33.993 -14.899 -22.514  0.00  0.00    -0.312 N 
ATOM      3  C   UNL     1      34.321 -17.297 -22.982  0.00  0.00    -0.055 C 
ATOM      4  C   UNL     1      34.600 -16.491 -20.735  0.00  0.00    -0.055 C 
ATOM      5  C   UNL     1      34.380 -15.873 -23.542  0.00  0.00    +0.068 C 
ATOM      6  C   UNL     1      34.667 -15.040 -21.220  0.00  0.00    +0.068 C 
ATOM      7  H   UNL     1      36.084 -17.164 -21.963  0.00  0.00    -0.080 HD
ENDROOT
BRANCH   2   8
ATOM      8  C   UNL     1      33.557 -13.638 -22.935  0.00  0.00    +0.048 C 
ATOM      9  C   UNL     1      32.701 -12.817 -22.148  0.00  0.00    +0.013 C 
ATOM     10  C   UNL     1      33.978 -13.153 -24.192  0.00  0.00    +0.015 C 
ATOM     11  C   UNL     1      32.289 -11.549 -22.622  0.00  0.00    +0.001 C 
ATOM     12  C   UNL     1      32.256 -13.258 -20.892  0.00  0.00    +0.001 C 
ATOM     13  C   UNL     1      33.574 -11.904 -24.658  0.00  0.00    +0.001 C 
ATOM     14  C   UNL     1      32.735 -11.107 -23.879  0.00  0.00    +0.000 C 
ATOM     15  C   UNL     1      31.444 -10.759 -21.825  0.00  0.00    +0.000 C 
ATOM     16  C   UNL     1      31.417 -12.461 -20.113  0.00  0.00    +0.000 C 
ATOM     17  C   UNL     1      31.011 -11.214 -20.579  0.00  0.00    +0.000 C 
ENDBRANCH   2   8
BRANCH   1  18
ATOM     18  C   UNL     1      35.097 -18.788 -21.258  0.00  0.00    -0.077 C 
BRANCH  18  19
ATOM     19  C   UNL     1      33.798 -19.481 -21.666  0.00  0.00    -0.019 C 
BRANCH  19  20
ATOM     20  C   UNL     1      33.207 -20.276 -20.504  0.00  0.00    +0.045 C 
BRANCH  20  21
ATOM     21  C   UNL     1      34.285 -21.018 -19.724  0.00  0.00    +0.208 C 
BRANCH  21  22
ATOM     22  O   UNL     1      33.887 -22.366 -19.515  0.00  0.00    -0.452 OA
BRANCH  22  28
ATOM     23  O   UNL     1      28.092 -22.893 -15.658  0.00  0.00    -0.275 OA
ATOM     24  N   UNL     1      30.020 -22.783 -16.903  0.00  0.00    -0.263 N 
ATOM     25  N   UNL     1      31.979 -22.576 -18.212  0.00  0.00    -0.357 NA
ATOM     26  C   UNL     1      32.165 -23.252 -15.899  0.00  0.00    +0.090 C 
ATOM     27  C   UNL     1      31.473 -23.666 -14.636  0.00  0.00    +0.022 C 
ATOM     28  C   UNL     1      33.325 -22.664 -18.301  0.00  0.00    +0.278 C 
ATOM     29  C   UNL     1      31.421 -22.860 -17.012  0.00  0.00    +0.170 C 
ATOM     30  C   UNL     1      30.169 -22.905 -14.460  0.00  0.00    +0.086 C 
ATOM     31  C   UNL     1      33.551 -23.345 -16.038  0.00  0.00    -0.012 C 
ATOM     32  C   UNL     1      34.147 -23.038 -17.254  0.00  0.00    +0.068 C 
ATOM     33  C   UNL     1      29.322 -22.896 -15.716  0.00  0.00    +0.228 C 
ATOM     34  H   UNL     1      29.502 -22.640 -17.728  0.00  0.00    +0.157 HD
ENDBRANCH  22  28
ENDBRANCH  21  22
ENDBRANCH  20  21
ENDBRANCH  19  20
ENDBRANCH  18  19
ENDBRANCH   1  18
TORSDOF 7
ENDMDL
MODEL 7
REMARK VINA RESULT:     -12.0      6.357     10.779
REMARK  Name = 11697676
REMARK  7 active torsions:
REMARK  status: ('A' for Active; 'I' for Inactive)
REMARK    1  A    between atoms: N_1  and  C_18
REMARK    2  A    between atoms: N_2  and  C_8
REMARK    3  A    between atoms: C_18  and  C_19
REMARK    4  A    between atoms: C_19  and  C_20
REMARK    5  A    between atoms: C_20  and  C_21
REMARK    6  A    between atoms: C_21  and  O_22
REMARK    7  A    between atoms: O_22  and  C_28
REMARK                            x       y       z     vdW  Elec       q    Type
REMARK                         _______ _______ _______ _____ _____    ______ ____
ROOT
ATOM      1  N   UNL     1      33.455 -11.544 -26.511  0.00  0.00    +0.389 N 
ATOM      2  N   UNL     1      32.860  -9.963 -24.208  0.00  0.00    -0.312 N 
ATOM      3  C   UNL     1      32.430 -10.495 -26.576  0.00  0.00    -0.055 C 
ATOM      4  C   UNL     1      33.470 -12.146 -25.172  0.00  0.00    -0.055 C 
ATOM      5  C   UNL     1      32.709  -9.392 -25.551  0.00  0.00    +0.068 C 
ATOM      6  C   UNL     1      33.782 -11.098 -24.101  0.00  0.00    +0.068 C 
ATOM      7  H   UNL     1      34.367 -11.126 -26.694  0.00  0.00    -0.080 HD
ENDROOT
BRANCH   2   8
ATOM      8  C   UNL     1      32.671  -9.117 -23.109  0.00  0.00    +0.048 C 
ATOM      9  C   UNL     1      32.019  -9.539 -21.916  0.00  0.00    +0.013 C 
ATOM     10  C   UNL     1      33.142  -7.789 -23.179  0.00  0.00    +0.015 C 
ATOM     11  C   UNL     1      31.853  -8.643 -20.834  0.00  0.00    +0.001 C 
ATOM     12  C   UNL     1      31.533 -10.852 -21.801  0.00  0.00    +0.001 C 
ATOM     13  C   UNL     1      32.980  -6.907 -22.114  0.00  0.00    +0.001 C 
ATOM     14  C   UNL     1      32.340  -7.330 -20.949  0.00  0.00    +0.000 C 
ATOM     15  C   UNL     1      31.206  -9.085 -19.669  0.00  0.00    +0.000 C 
ATOM     16  C   UNL     1      30.893 -11.274 -20.636  0.00  0.00    +0.000 C 
ATOM     17  C   UNL     1      30.729 -10.392 -19.572  0.00  0.00    +0.000 C 
ENDBRANCH   2   8
BRANCH   1  18
ATOM     18  C   UNL     1      33.209 -12.565 -27.529  0.00  0.00    -0.077 C 
BRANCH  18  19
ATOM     19  C   UNL     1      33.123 -13.947 -26.885  0.00  0.00    -0.019 C 
BRANCH  19  20
ATOM     20  C   UNL     1      32.092 -14.824 -27.594  0.00  0.00    +0.045 C 
BRANCH  20  21
ATOM     21  C   UNL     1      32.208 -16.282 -27.172  0.00  0.00    +0.208 C 
BRANCH  21  22
ATOM     22  O   UNL     1      33.570 -16.609 -26.934  0.00  0.00    -0.452 OA
BRANCH  22  28
ATOM     23  O   UNL     1      35.032 -16.591 -20.108  0.00  0.00    -0.275 OA
ATOM     24  N   UNL     1      34.503 -16.649 -22.343  0.00  0.00    -0.263 N 
ATOM     25  N   UNL     1      34.033 -16.640 -24.661  0.00  0.00    -0.357 NA
ATOM     26  C   UNL     1      34.389 -18.747 -23.531  0.00  0.00    +0.090 C 
ATOM     27  C   UNL     1      34.586 -19.480 -22.238  0.00  0.00    +0.022 C 
ATOM     28  C   UNL     1      33.844 -17.336 -25.805  0.00  0.00    +0.278 C 
ATOM     29  C   UNL     1      34.313 -17.355 -23.545  0.00  0.00    +0.170 C 
ATOM     30  C   UNL     1      35.418 -18.653 -21.270  0.00  0.00    +0.086 C 
ATOM     31  C   UNL     1      34.173 -19.427 -24.730  0.00  0.00    -0.012 C 
ATOM     32  C   UNL     1      33.905 -18.715 -25.892  0.00  0.00    +0.068 C 
ATOM     33  C   UNL     1      34.940 -17.220 -21.163  0.00  0.00    +0.228 C 
ATOM     34  H   UNL     1      34.311 -15.683 -22.341  0.00  0.00    +0.157 HD
ENDBRANCH  22  28
ENDBRANCH  21  22
ENDBRANCH  20  21
ENDBRANCH  19  20
ENDBRANCH  18  19
ENDBRANCH   1  18
TORSDOF 7
ENDMDL
MODEL 8
REMARK VINA RESULT:     -12.0      3.265      6.531
REMARK  Name = 11697676
REMARK  7 active torsions:
REMARK  status: ('A' for Active; 'I' for Inactive)
REMARK    1  A    between atoms: N_1  and  C_18
REMARK    2  A    between atoms: N_2  and  C_8
REMARK    3  A    between atoms: C_18  and  C_19
REMARK    4  A    between atoms: C_19  and  C_20
REMARK    5  A    between atoms: C_20  and  C_21
REMARK    6  A    between atoms: C_21  and  O_22
REMARK    7  A    between atoms: O_22  and  C_28
REMARK                            x       y       z     vdW  Elec       q    Type
REMARK                         _______ _______ _______ _____ _____    ______ ____
ROOT
ATOM      1  N   UNL     1      34.419 -16.124 -24.149  0.00  0.00    +0.389 N 
ATOM      2  N   UNL     1      33.361 -13.500 -23.755  0.00  0.00    -0.312 N 
ATOM      3  C   UNL     1      33.262 -15.666 -24.928  0.00  0.00    -0.055 C 
ATOM      4  C   UNL     1      34.384 -15.530 -22.806  0.00  0.00    -0.055 C 
ATOM      5  C   UNL     1      33.266 -14.142 -25.072  0.00  0.00    +0.068 C 
ATOM      6  C   UNL     1      34.425 -14.001 -22.880  0.00  0.00    +0.068 C 
ATOM      7  H   UNL     1      35.273 -15.824 -24.620  0.00  0.00    -0.080 HD
ENDROOT
BRANCH   2   8
ATOM      8  C   UNL     1      32.934 -12.172 -23.639  0.00  0.00    +0.048 C 
ATOM      9  C   UNL     1      32.233 -11.685 -22.501  0.00  0.00    +0.013 C 
ATOM     10  C   UNL     1      33.208 -11.272 -24.691  0.00  0.00    +0.015 C 
ATOM     11  C   UNL     1      31.824 -10.333 -22.435  0.00  0.00    +0.001 C 
ATOM     12  C   UNL     1      31.938 -12.545 -21.430  0.00  0.00    +0.001 C 
ATOM     13  C   UNL     1      32.807  -9.940 -24.626  0.00  0.00    +0.001 C 
ATOM     14  C   UNL     1      32.120  -9.473 -23.506  0.00  0.00    +0.000 C 
ATOM     15  C   UNL     1      31.133  -9.879 -21.300  0.00  0.00    +0.000 C 
ATOM     16  C   UNL     1      31.251 -12.077 -20.310  0.00  0.00    +0.000 C 
ATOM     17  C   UNL     1      30.848 -10.746 -20.245  0.00  0.00    +0.000 C 
ENDBRANCH   2   8
BRANCH   1  18
ATOM     18  C   UNL     1      34.435 -17.584 -24.063  0.00  0.00    -0.077 C 
BRANCH  18  19
ATOM     19  C   UNL     1      34.674 -18.029 -22.622  0.00  0.00    -0.019 C 
BRANCH  19  20
ATOM     20  C   UNL     1      34.163 -19.449 -22.390  0.00  0.00    +0.045 C 
BRANCH  20  21
ATOM     21  C   UNL     1      34.046 -19.770 -20.906  0.00  0.00    +0.208 C 
BRANCH  21  22
ATOM     22  O   UNL     1      35.003 -20.757 -20.549  0.00  0.00    -0.452 OA
BRANCH  22  28
ATOM     23  O   UNL     1      37.411 -23.071 -14.418  0.00  0.00    -0.275 OA
ATOM     24  N   UNL     1      36.558 -22.289 -16.403  0.00  0.00    -0.263 N 
ATOM     25  N   UNL     1      35.763 -21.521 -18.494  0.00  0.00    -0.357 NA
ATOM     26  C   UNL     1      34.320 -22.868 -17.098  0.00  0.00    +0.090 C 
ATOM     27  C   UNL     1      34.091 -23.534 -15.775  0.00  0.00    +0.022 C 
ATOM     28  C   UNL     1      34.761 -21.466 -19.401  0.00  0.00    +0.278 C 
ATOM     29  C   UNL     1      35.531 -22.229 -17.363  0.00  0.00    +0.170 C 
ATOM     30  C   UNL     1      35.392 -24.088 -15.217  0.00  0.00    +0.086 C 
ATOM     31  C   UNL     1      33.308 -22.775 -18.054  0.00  0.00    -0.012 C 
ATOM     32  C   UNL     1      33.529 -22.072 -19.231  0.00  0.00    +0.068 C 
ATOM     33  C   UNL     1      36.529 -23.089 -15.277  0.00  0.00    +0.228 C 
ATOM     34  H   UNL     1      37.351 -21.722 -16.542  0.00  0.00    +0.157 HD
ENDBRANCH  22  28
ENDBRANCH  21  22
ENDBRANCH  20  21
ENDBRANCH  19  20
ENDBRANCH  18  19
ENDBRANCH   1  18
TORSDOF 7
ENDMDL
MODEL 9
REMARK VINA RESULT:     -12.0      3.834     11.015
REMARK  Name = 11697676
REMARK  7 active torsions:
REMARK  status: ('A' for Active; 'I' for Inactive)
REMARK    1  A    between atoms: N_1  and  C_18
REMARK    2  A    between atoms: N_2  and  C_8
REMARK    3  A    between atoms: C_18  and  C_19
REMARK    4  A    between atoms: C_19  and  C_20
REMARK    5  A    between atoms: C_20  and  C_21
REMARK    6  A    between atoms: C_21  and  O_22
REMARK    7  A    between atoms: O_22  and  C_28
REMARK                            x       y       z     vdW  Elec       q    Type
REMARK                         _______ _______ _______ _____ _____    ______ ____
ROOT
ATOM      1  N   UNL     1      34.976 -21.558 -18.390  0.00  0.00    +0.389 N 
ATOM      2  N   UNL     1      35.537 -23.088 -16.044  0.00  0.00    -0.312 N 
ATOM      3  C   UNL     1      34.185 -22.755 -18.078  0.00  0.00    -0.055 C 
ATOM      4  C   UNL     1      36.360 -21.741 -17.936  0.00  0.00    -0.055 C 
ATOM      5  C   UNL     1      34.169 -23.024 -16.571  0.00  0.00    +0.068 C 
ATOM      6  C   UNL     1      36.415 -21.978 -16.424  0.00  0.00    +0.068 C 
ATOM      7  H   UNL     1      34.571 -20.759 -17.902  0.00  0.00    -0.080 HD
ENDROOT
BRANCH   2   8
ATOM      8  C   UNL     1      35.744 -23.752 -14.830  0.00  0.00    +0.048 C 
ATOM      9  C   UNL     1      36.952 -24.438 -14.523  0.00  0.00    +0.013 C 
ATOM     10  C   UNL     1      34.714 -23.746 -13.864  0.00  0.00    +0.015 C 
ATOM     11  C   UNL     1      37.109 -25.094 -13.279  0.00  0.00    +0.001 C 
ATOM     12  C   UNL     1      38.003 -24.471 -15.454  0.00  0.00    +0.001 C 
ATOM     13  C   UNL     1      34.869 -24.390 -12.639  0.00  0.00    +0.001 C 
ATOM     14  C   UNL     1      36.057 -25.059 -12.348  0.00  0.00    +0.000 C 
ATOM     15  C   UNL     1      38.311 -25.763 -13.002  0.00  0.00    +0.000 C 
ATOM     16  C   UNL     1      39.191 -25.141 -15.162  0.00  0.00    +0.000 C 
ATOM     17  C   UNL     1      39.345 -25.786 -13.939  0.00  0.00    +0.000 C 
ENDBRANCH   2   8
BRANCH   1  18
ATOM     18  C   UNL     1      34.940 -21.280 -19.826  0.00  0.00    -0.077 C 
BRANCH  18  19
ATOM     19  C   UNL     1      33.578 -20.713 -20.223  0.00  0.00    -0.019 C 
BRANCH  19  20
ATOM     20  C   UNL     1      33.709 -19.714 -21.370  0.00  0.00    +0.045 C 
BRANCH  20  21
ATOM     21  C   UNL     1      35.088 -19.069 -21.401  0.00  0.00    +0.208 C 
BRANCH  21  22
ATOM     22  O   UNL     1      35.416 -18.694 -22.731  0.00  0.00    -0.452 OA
BRANCH  22  28
ATOM     23  O   UNL     1      32.120 -15.327 -27.882  0.00  0.00    -0.275 OA
ATOM     24  N   UNL     1      33.159 -16.406 -26.140  0.00  0.00    -0.263 N 
ATOM     25  N   UNL     1      34.299 -17.551 -24.413  0.00  0.00    -0.357 NA
ATOM     26  C   UNL     1      33.799 -15.201 -24.149  0.00  0.00    +0.090 C 
ATOM     27  C   UNL     1      33.099 -13.983 -24.671  0.00  0.00    +0.022 C 
ATOM     28  C   UNL     1      34.880 -17.520 -23.193  0.00  0.00    +0.278 C 
ATOM     29  C   UNL     1      33.777 -16.390 -24.876  0.00  0.00    +0.170 C 
ATOM     30  C   UNL     1      33.124 -13.956 -26.191  0.00  0.00    +0.086 C 
ATOM     31  C   UNL     1      34.396 -15.215 -22.887  0.00  0.00    -0.012 C 
ATOM     32  C   UNL     1      34.956 -16.389 -22.400  0.00  0.00    +0.068 C 
ATOM     33  C   UNL     1      32.719 -15.279 -26.808  0.00  0.00    +0.228 C 
ATOM     34  H   UNL     1      33.031 -17.278 -26.579  0.00  0.00    +0.157 HD
ENDBRANCH  22  28
ENDBRANCH  21  22
ENDBRANCH  20  21
ENDBRANCH  19  20
ENDBRANCH  18  19
ENDBRANCH   1  18
TORSDOF 7
ENDMDL
