MODEL 1
REMARK VINA RESULT:     -12.2      0.000      0.000
REMARK  Name = 70798655
REMARK  2 active torsions:
REMARK  status: ('A' for Active; 'I' for Inactive)
REMARK    1  A    between atoms: C_3  and  C_29
REMARK    2  A    between atoms: C_5  and  C_13
REMARK                            x       y       z     vdW  Elec       q    Type
REMARK                         _______ _______ _______ _____ _____    ______ ____
ROOT
ATOM      1  N   UNL     1      33.402 -23.719 -15.206  0.00  0.00    -0.245 N 
ATOM      2  N   UNL     1      31.875 -24.733 -13.926  0.00  0.00    -0.227 NA
ATOM      3  C   UNL     1      34.061 -24.151 -14.083  0.00  0.00    +0.130 C 
ATOM      4  C   UNL     1      32.073 -24.098 -15.063  0.00  0.00    +0.139 C 
ATOM      5  C   UNL     1      33.065 -22.698 -17.320  0.00  0.00    +0.012 C 
ATOM      6  C   UNL     1      33.899 -23.032 -16.311  0.00  0.00    +0.071 C 
ATOM      7  C   UNL     1      33.103 -24.769 -13.315  0.00  0.00    +0.120 C 
ATOM      8  C   UNL     1      31.187 -23.753 -16.121  0.00  0.00    +0.035 C 
ATOM      9  C   UNL     1      31.656 -23.088 -17.195  0.00  0.00    +0.004 C 
ENDROOT
BRANCH   5  13
ATOM     10  O   UNL     1      34.896 -19.918 -21.768  0.00  0.00    -0.414 OA
ATOM     11  N   UNL     1      32.670 -19.779 -21.367  0.00  0.00    -0.356 NA
ATOM     12  N   UNL     1      33.671 -18.650 -23.241  0.00  0.00    -0.302 N 
ATOM     13  C   UNL     1      33.599 -21.976 -18.491  0.00  0.00    -0.014 C 
ATOM     14  C   UNL     1      32.723 -21.240 -19.302  0.00  0.00    +0.089 C 
ATOM     15  C   UNL     1      34.971 -22.039 -18.772  0.00  0.00    -0.001 C 
ATOM     16  C   UNL     1      33.260 -20.564 -20.408  0.00  0.00    +0.152 C 
ATOM     17  C   UNL     1      34.624 -20.653 -20.650  0.00  0.00    +0.175 C 
ATOM     18  C   UNL     1      35.521 -21.370 -19.870  0.00  0.00    +0.040 C 
ATOM     19  C   UNL     1      33.678 -19.429 -22.135  0.00  0.00    +0.341 C 
ATOM     20  H   UNL     1      34.511 -18.471 -23.723  0.00  0.00    +0.148 HD
ATOM     21  H   UNL     1      32.826 -18.263 -23.564  0.00  0.00    +0.148 HD
ENDBRANCH   5  13
BRANCH   3  29
ATOM     22  O   UNL     1      38.167 -27.015 -14.782  0.00  0.00    -0.350 OA
ATOM     23  O   UNL     1      35.784 -23.036 -13.052  0.00  0.00    -0.268 OA
ATOM     24  N   UNL     1      36.396 -24.862 -14.375  0.00  0.00    -0.270 N 
ATOM     25  C   UNL     1      37.827 -24.713 -14.117  0.00  0.00    +0.126 C 
ATOM     26  C   UNL     1      36.059 -25.937 -15.317  0.00  0.00    +0.126 C 
ATOM     27  C   UNL     1      36.759 -27.228 -14.916  0.00  0.00    +0.164 C 
ATOM     28  C   UNL     1      38.445 -26.056 -13.758  0.00  0.00    +0.164 C 
ATOM     29  C   UNL     1      35.490 -23.974 -13.793  0.00  0.00    +0.265 C 
ENDBRANCH   3  29
TORSDOF 2
ENDMDL
MODEL 2
REMARK VINA RESULT:     -11.8      1.217      1.812
REMARK  Name = 70798655
REMARK  2 active torsions:
REMARK  status: ('A' for Active; 'I' for Inactive)
REMARK    1  A    between atoms: C_3  and  C_29
REMARK    2  A    between atoms: C_5  and  C_13
REMARK                            x       y       z     vdW  Elec       q    Type
REMARK                         _______ _______ _______ _____ _____    ______ ____
ROOT
ATOM      1  N   UNL     1      33.156 -23.900 -15.635  0.00  0.00    -0.245 N 
ATOM      2  N   UNL     1      31.555 -24.623 -14.251  0.00  0.00    -0.227 NA
ATOM      3  C   UNL     1      33.782 -24.654 -14.675  0.00  0.00    +0.130 C 
ATOM      4  C   UNL     1      31.799 -23.913 -15.333  0.00  0.00    +0.139 C 
ATOM      5  C   UNL     1      32.894 -22.536 -17.557  0.00  0.00    +0.012 C 
ATOM      6  C   UNL     1      33.702 -23.228 -16.725  0.00  0.00    +0.071 C 
ATOM      7  C   UNL     1      32.780 -25.084 -13.839  0.00  0.00    +0.120 C 
ATOM      8  C   UNL     1      30.939 -23.189 -16.205  0.00  0.00    +0.035 C 
ATOM      9  C   UNL     1      31.456 -22.534 -17.263  0.00  0.00    +0.004 C 
ENDROOT
BRANCH   5  13
ATOM     10  O   UNL     1      34.919 -19.814 -21.957  0.00  0.00    -0.414 OA
ATOM     11  N   UNL     1      32.693 -19.588 -21.597  0.00  0.00    -0.356 NA
ATOM     12  N   UNL     1      33.774 -18.492 -23.447  0.00  0.00    -0.302 N 
ATOM     13  C   UNL     1      33.479 -21.832 -18.714  0.00  0.00    -0.014 C 
ATOM     14  C   UNL     1      32.649 -21.057 -19.538  0.00  0.00    +0.089 C 
ATOM     15  C   UNL     1      34.852 -21.948 -18.969  0.00  0.00    -0.001 C 
ATOM     16  C   UNL     1      33.233 -20.400 -20.630  0.00  0.00    +0.152 C 
ATOM     17  C   UNL     1      34.596 -20.542 -20.848  0.00  0.00    +0.175 C 
ATOM     18  C   UNL     1      35.450 -21.298 -20.054  0.00  0.00    +0.040 C 
ATOM     19  C   UNL     1      33.729 -19.275 -22.344  0.00  0.00    +0.341 C 
ATOM     20  H   UNL     1      34.629 -18.345 -23.911  0.00  0.00    +0.148 HD
ATOM     21  H   UNL     1      32.951 -18.070 -23.784  0.00  0.00    +0.148 HD
ENDBRANCH   5  13
BRANCH   3  29
ATOM     22  O   UNL     1      37.231 -24.140 -11.015  0.00  0.00    -0.350 OA
ATOM     23  O   UNL     1      35.805 -25.137 -15.649  0.00  0.00    -0.268 OA
ATOM     24  N   UNL     1      35.818 -24.923 -13.323  0.00  0.00    -0.270 N 
ATOM     25  C   UNL     1      37.248 -25.196 -13.192  0.00  0.00    +0.126 C 
ATOM     26  C   UNL     1      35.116 -24.742 -12.046  0.00  0.00    +0.126 C 
ATOM     27  C   UNL     1      35.865 -23.744 -11.171  0.00  0.00    +0.164 C 
ATOM     28  C   UNL     1      37.902 -24.171 -12.278  0.00  0.00    +0.164 C 
ATOM     29  C   UNL     1      35.224 -24.923 -14.587  0.00  0.00    +0.265 C 
ENDBRANCH   3  29
TORSDOF 2
ENDMDL
MODEL 3
REMARK VINA RESULT:     -11.5      8.136     14.534
REMARK  Name = 70798655
REMARK  2 active torsions:
REMARK  status: ('A' for Active; 'I' for Inactive)
REMARK    1  A    between atoms: C_3  and  C_29
REMARK    2  A    between atoms: C_5  and  C_13
REMARK                            x       y       z     vdW  Elec       q    Type
REMARK                         _______ _______ _______ _____ _____    ______ ____
ROOT
ATOM      1  N   UNL     1      33.326 -11.548 -24.904  0.00  0.00    -0.245 N 
ATOM      2  N   UNL     1      32.483 -10.911 -26.875  0.00  0.00    -0.227 NA
ATOM      3  C   UNL     1      33.339 -10.176 -24.908  0.00  0.00    +0.130 C 
ATOM      4  C   UNL     1      32.795 -11.947 -26.125  0.00  0.00    +0.139 C 
ATOM      5  C   UNL     1      33.641 -13.763 -24.119  0.00  0.00    +0.012 C 
ATOM      6  C   UNL     1      33.744 -12.432 -23.913  0.00  0.00    +0.071 C 
ATOM      7  C   UNL     1      32.819  -9.811 -26.126  0.00  0.00    +0.120 C 
ATOM      8  C   UNL     1      32.681 -13.348 -26.350  0.00  0.00    +0.035 C 
ATOM      9  C   UNL     1      33.082 -14.213 -25.398  0.00  0.00    +0.004 C 
ENDROOT
BRANCH   5  13
ATOM     10  O   UNL     1      35.328 -17.402 -20.273  0.00  0.00    -0.414 OA
ATOM     11  N   UNL     1      35.421 -18.122 -22.420  0.00  0.00    -0.356 NA
ATOM     12  N   UNL     1      36.106 -19.539 -20.599  0.00  0.00    -0.302 N 
ATOM     13  C   UNL     1      34.079 -14.694 -23.061  0.00  0.00    -0.014 C 
ATOM     14  C   UNL     1      34.531 -15.974 -23.416  0.00  0.00    +0.089 C 
ATOM     15  C   UNL     1      34.035 -14.285 -21.721  0.00  0.00    -0.001 C 
ATOM     16  C   UNL     1      34.941 -16.836 -22.389  0.00  0.00    +0.152 C 
ATOM     17  C   UNL     1      34.881 -16.391 -21.076  0.00  0.00    +0.175 C 
ATOM     18  C   UNL     1      34.441 -15.133 -20.685  0.00  0.00    +0.040 C 
ATOM     19  C   UNL     1      35.631 -18.398 -21.151  0.00  0.00    +0.341 C 
ATOM     20  H   UNL     1      36.212 -19.606 -19.622  0.00  0.00    +0.148 HD
ATOM     21  H   UNL     1      36.345 -20.300 -21.174  0.00  0.00    +0.148 HD
ENDBRANCH   5  13
BRANCH   3  29
ATOM     22  O   UNL     1      31.077  -6.982 -21.709  0.00  0.00    -0.350 OA
ATOM     23  O   UNL     1      35.034  -9.138 -23.757  0.00  0.00    -0.268 OA
ATOM     24  N   UNL     1      32.874  -8.761 -22.953  0.00  0.00    -0.270 N 
ATOM     25  C   UNL     1      33.311  -7.901 -21.854  0.00  0.00    +0.126 C 
ATOM     26  C   UNL     1      31.429  -9.021 -22.980  0.00  0.00    +0.126 C 
ATOM     27  C   UNL     1      30.656  -7.714 -22.864  0.00  0.00    +0.164 C 
ATOM     28  C   UNL     1      32.462  -6.639 -21.798  0.00  0.00    +0.164 C 
ATOM     29  C   UNL     1      33.818  -9.310 -23.822  0.00  0.00    +0.265 C 
ENDBRANCH   3  29
TORSDOF 2
ENDMDL
MODEL 4
REMARK VINA RESULT:     -10.6      5.289     12.303
REMARK  Name = 70798655
REMARK  2 active torsions:
REMARK  status: ('A' for Active; 'I' for Inactive)
REMARK    1  A    between atoms: C_3  and  C_29
REMARK    2  A    between atoms: C_5  and  C_13
REMARK                            x       y       z     vdW  Elec       q    Type
REMARK                         _______ _______ _______ _____ _____    ______ ____
ROOT
ATOM      1  N   UNL     1      33.554 -16.296 -25.106  0.00  0.00    -0.245 N 
ATOM      2  N   UNL     1      32.779 -16.190 -27.201  0.00  0.00    -0.227 NA
ATOM      3  C   UNL     1      33.233 -14.982 -25.337  0.00  0.00    +0.130 C 
ATOM      4  C   UNL     1      33.258 -16.992 -26.272  0.00  0.00    +0.139 C 
ATOM      5  C   UNL     1      34.320 -18.217 -23.947  0.00  0.00    +0.012 C 
ATOM      6  C   UNL     1      34.074 -16.889 -23.959  0.00  0.00    +0.071 C 
ATOM      7  C   UNL     1      32.762 -14.944 -26.628  0.00  0.00    +0.120 C 
ATOM      8  C   UNL     1      33.511 -18.392 -26.268  0.00  0.00    +0.035 C 
ATOM      9  C   UNL     1      34.015 -18.977 -25.164  0.00  0.00    +0.004 C 
ENDROOT
BRANCH   5  13
ATOM     10  O   UNL     1      36.202 -20.662 -19.326  0.00  0.00    -0.414 OA
ATOM     11  N   UNL     1      34.096 -21.222 -19.950  0.00  0.00    -0.356 NA
ATOM     12  N   UNL     1      35.105 -22.166 -17.980  0.00  0.00    -0.302 N 
ATOM     13  C   UNL     1      34.864 -18.841 -22.725  0.00  0.00    -0.014 C 
ATOM     14  C   UNL     1      34.071 -19.745 -22.004  0.00  0.00    +0.089 C 
ATOM     15  C   UNL     1      36.163 -18.519 -22.307  0.00  0.00    -0.001 C 
ATOM     16  C   UNL     1      34.616 -20.322 -20.847  0.00  0.00    +0.152 C 
ATOM     17  C   UNL     1      35.905 -19.976 -20.468  0.00  0.00    +0.175 C 
ATOM     18  C   UNL     1      36.720 -19.086 -21.156  0.00  0.00    +0.040 C 
ATOM     19  C   UNL     1      35.072 -21.382 -19.082  0.00  0.00    +0.341 C 
ATOM     20  H   UNL     1      35.912 -22.187 -17.415  0.00  0.00    +0.148 HD
ATOM     21  H   UNL     1      34.323 -22.714 -17.742  0.00  0.00    +0.148 HD
ENDBRANCH   5  13
BRANCH   3  29
ATOM     22  O   UNL     1      34.276 -10.059 -25.811  0.00  0.00    -0.350 OA
ATOM     23  O   UNL     1      33.463 -14.182 -23.196  0.00  0.00    -0.268 OA
ATOM     24  N   UNL     1      33.398 -12.571 -24.887  0.00  0.00    -0.270 N 
ATOM     25  C   UNL     1      33.530 -11.440 -23.970  0.00  0.00    +0.126 C 
ATOM     26  C   UNL     1      33.222 -12.192 -26.294  0.00  0.00    +0.126 C 
ATOM     27  C   UNL     1      34.282 -11.177 -26.703  0.00  0.00    +0.164 C 
ATOM     28  C   UNL     1      34.585 -10.467 -24.476  0.00  0.00    +0.164 C 
ATOM     29  C   UNL     1      33.377 -13.873 -24.384  0.00  0.00    +0.265 C 
ENDBRANCH   3  29
TORSDOF 2
ENDMDL
MODEL 5
REMARK VINA RESULT:     -10.2      2.901      4.780
REMARK  Name = 70798655
REMARK  2 active torsions:
REMARK  status: ('A' for Active; 'I' for Inactive)
REMARK    1  A    between atoms: C_3  and  C_29
REMARK    2  A    between atoms: C_5  and  C_13
REMARK                            x       y       z     vdW  Elec       q    Type
REMARK                         _______ _______ _______ _____ _____    ______ ____
ROOT
ATOM      1  N   UNL     1      34.432 -22.597 -17.223  0.00  0.00    -0.245 N 
ATOM      2  N   UNL     1      35.351 -23.655 -15.481  0.00  0.00    -0.227 NA
ATOM      3  C   UNL     1      33.405 -23.216 -16.558  0.00  0.00    +0.130 C 
ATOM      4  C   UNL     1      35.598 -22.894 -16.527  0.00  0.00    +0.139 C 
ATOM      5  C   UNL     1      35.539 -21.292 -18.866  0.00  0.00    +0.012 C 
ATOM      6  C   UNL     1      34.393 -21.811 -18.372  0.00  0.00    +0.071 C 
ATOM      7  C   UNL     1      33.994 -23.858 -15.495  0.00  0.00    +0.120 C 
ATOM      8  C   UNL     1      36.810 -22.351 -17.039  0.00  0.00    +0.035 C 
ATOM      9  C   UNL     1      36.784 -21.589 -18.149  0.00  0.00    +0.004 C 
ENDROOT
BRANCH   5  13
ATOM     10  O   UNL     1      35.160 -18.174 -23.449  0.00  0.00    -0.414 OA
ATOM     11  N   UNL     1      33.240 -19.171 -22.774  0.00  0.00    -0.356 NA
ATOM     12  N   UNL     1      33.298 -17.777 -24.734  0.00  0.00    -0.302 N 
ATOM     13  C   UNL     1      35.489 -20.454 -20.079  0.00  0.00    -0.014 C 
ATOM     14  C   UNL     1      34.273 -20.304 -20.761  0.00  0.00    +0.089 C 
ATOM     15  C   UNL     1      36.656 -19.821 -20.527  0.00  0.00    -0.001 C 
ATOM     16  C   UNL     1      34.256 -19.501 -21.910  0.00  0.00    +0.152 C 
ATOM     17  C   UNL     1      35.434 -18.893 -22.320  0.00  0.00    +0.175 C 
ATOM     18  C   UNL     1      36.656 -19.016 -21.672  0.00  0.00    +0.040 C 
ATOM     19  C   UNL     1      33.831 -18.392 -23.653  0.00  0.00    +0.341 C 
ATOM     20  H   UNL     1      33.865 -17.216 -25.311  0.00  0.00    +0.148 HD
ATOM     21  H   UNL     1      32.343 -17.890 -24.942  0.00  0.00    +0.148 HD
ENDBRANCH   5  13
BRANCH   3  29
ATOM     22  O   UNL     1      29.168 -24.933 -14.402  0.00  0.00    -0.350 OA
ATOM     23  O   UNL     1      31.732 -22.849 -18.088  0.00  0.00    -0.268 OA
ATOM     24  N   UNL     1      31.040 -23.515 -15.958  0.00  0.00    -0.270 N 
ATOM     25  C   UNL     1      29.616 -23.484 -16.287  0.00  0.00    +0.126 C 
ATOM     26  C   UNL     1      31.331 -23.841 -14.556  0.00  0.00    +0.126 C 
ATOM     27  C   UNL     1      30.564 -25.088 -14.135  0.00  0.00    +0.164 C 
ATOM     28  C   UNL     1      28.931 -24.752 -15.800  0.00  0.00    +0.164 C 
ATOM     29  C   UNL     1      31.984 -23.182 -16.930  0.00  0.00    +0.265 C 
ENDBRANCH   3  29
TORSDOF 2
ENDMDL
MODEL 6
REMARK VINA RESULT:     -10.1      6.894     13.753
REMARK  Name = 70798655
REMARK  2 active torsions:
REMARK  status: ('A' for Active; 'I' for Inactive)
REMARK    1  A    between atoms: C_3  and  C_29
REMARK    2  A    between atoms: C_5  and  C_13
REMARK                            x       y       z     vdW  Elec       q    Type
REMARK                         _______ _______ _______ _____ _____    ______ ____
ROOT
ATOM      1  N   UNL     1      33.035 -13.783 -25.622  0.00  0.00    -0.245 N 
ATOM      2  N   UNL     1      32.360 -13.426 -27.724  0.00  0.00    -0.227 NA
ATOM      3  C   UNL     1      32.775 -12.440 -25.724  0.00  0.00    +0.130 C 
ATOM      4  C   UNL     1      32.766 -14.340 -26.867  0.00  0.00    +0.139 C 
ATOM      5  C   UNL     1      33.675 -15.846 -24.644  0.00  0.00    +0.012 C 
ATOM      6  C   UNL     1      33.481 -14.515 -24.525  0.00  0.00    +0.071 C 
ATOM      7  C   UNL     1      32.364 -12.247 -27.022  0.00  0.00    +0.120 C 
ATOM      8  C   UNL     1      32.965 -15.742 -27.002  0.00  0.00    +0.035 C 
ATOM      9  C   UNL     1      33.397 -16.461 -25.947  0.00  0.00    +0.004 C 
ENDROOT
BRANCH   5  13
ATOM     10  O   UNL     1      35.389 -18.912 -20.338  0.00  0.00    -0.414 OA
ATOM     11  N   UNL     1      34.648 -20.070 -22.140  0.00  0.00    -0.356 NA
ATOM     12  N   UNL     1      35.436 -21.203 -20.169  0.00  0.00    -0.302 N 
ATOM     13  C   UNL     1      34.141 -16.617 -23.475  0.00  0.00    -0.014 C 
ATOM     14  C   UNL     1      34.110 -18.018 -23.519  0.00  0.00    +0.089 C 
ATOM     15  C   UNL     1      34.606 -15.936 -22.342  0.00  0.00    -0.001 C 
ATOM     16  C   UNL     1      34.559 -18.724 -22.393  0.00  0.00    +0.152 C 
ATOM     17  C   UNL     1      35.011 -18.010 -21.292  0.00  0.00    +0.175 C 
ATOM     18  C   UNL     1      35.058 -16.625 -21.211  0.00  0.00    +0.040 C 
ATOM     19  C   UNL     1      35.141 -20.118 -20.922  0.00  0.00    +0.341 C 
ATOM     20  H   UNL     1      35.804 -21.088 -19.263  0.00  0.00    +0.148 HD
ATOM     21  H   UNL     1      35.282 -22.106 -20.527  0.00  0.00    +0.148 HD
ENDBRANCH   5  13
BRANCH   3  29
ATOM     22  O   UNL     1      35.257  -8.056 -25.317  0.00  0.00    -0.350 OA
ATOM     23  O   UNL     1      32.535 -11.787 -23.536  0.00  0.00    -0.268 OA
ATOM     24  N   UNL     1      33.462 -10.201 -24.979  0.00  0.00    -0.270 N 
ATOM     25  C   UNL     1      33.613  -9.180 -23.944  0.00  0.00    +0.126 C 
ATOM     26  C   UNL     1      33.852  -9.761 -26.325  0.00  0.00    +0.126 C 
ATOM     27  C   UNL     1      35.228  -9.107 -26.287  0.00  0.00    +0.164 C 
ATOM     28  C   UNL     1      35.002  -8.562 -24.005  0.00  0.00    +0.164 C 
ATOM     29  C   UNL     1      32.918 -11.445 -24.654  0.00  0.00    +0.265 C 
ENDBRANCH   3  29
TORSDOF 2
ENDMDL
MODEL 7
REMARK VINA RESULT:     -10.0      7.215     13.994
REMARK  Name = 70798655
REMARK  2 active torsions:
REMARK  status: ('A' for Active; 'I' for Inactive)
REMARK    1  A    between atoms: C_3  and  C_29
REMARK    2  A    between atoms: C_5  and  C_13
REMARK                            x       y       z     vdW  Elec       q    Type
REMARK                         _______ _______ _______ _____ _____    ______ ____
ROOT
ATOM      1  N   UNL     1      32.924 -13.771 -26.159  0.00  0.00    -0.245 N 
ATOM      2  N   UNL     1      31.926 -12.896 -27.959  0.00  0.00    -0.227 NA
ATOM      3  C   UNL     1      32.947 -12.409 -25.994  0.00  0.00    +0.130 C 
ATOM      4  C   UNL     1      32.290 -14.017 -27.371  0.00  0.00    +0.139 C 
ATOM      5  C   UNL     1      33.285 -16.066 -25.682  0.00  0.00    +0.012 C 
ATOM      6  C   UNL     1      33.414 -14.770 -25.323  0.00  0.00    +0.071 C 
ATOM      7  C   UNL     1      32.331 -11.897 -27.110  0.00  0.00    +0.120 C 
ATOM      8  C   UNL     1      32.147 -15.379 -27.758  0.00  0.00    +0.035 C 
ATOM      9  C   UNL     1      32.618 -16.354 -26.957  0.00  0.00    +0.004 C 
ENDROOT
BRANCH   5  13
ATOM     10  O   UNL     1      35.264 -19.898 -22.179  0.00  0.00    -0.414 OA
ATOM     11  N   UNL     1      35.293 -17.761 -21.423  0.00  0.00    -0.356 NA
ATOM     12  N   UNL     1      36.103 -19.575 -20.065  0.00  0.00    -0.302 N 
ATOM     13  C   UNL     1      33.801 -17.120 -24.788  0.00  0.00    -0.014 C 
ATOM     14  C   UNL     1      34.283 -16.768 -23.519  0.00  0.00    +0.089 C 
ATOM     15  C   UNL     1      33.799 -18.453 -25.220  0.00  0.00    -0.001 C 
ATOM     16  C   UNL     1      34.767 -17.791 -22.690  0.00  0.00    +0.152 C 
ATOM     17  C   UNL     1      34.747 -19.098 -23.158  0.00  0.00    +0.175 C 
ATOM     18  C   UNL     1      34.277 -19.485 -24.406  0.00  0.00    +0.040 C 
ATOM     19  C   UNL     1      35.565 -19.025 -21.177  0.00  0.00    +0.341 C 
ATOM     20  H   UNL     1      36.252 -20.548 -20.020  0.00  0.00    +0.148 HD
ATOM     21  H   UNL     1      36.345 -19.004 -19.301  0.00  0.00    +0.148 HD
ENDBRANCH   5  13
BRANCH   3  29
ATOM     22  O   UNL     1      34.806  -7.750 -25.373  0.00  0.00    -0.350 OA
ATOM     23  O   UNL     1      33.811 -12.359 -23.867  0.00  0.00    -0.268 OA
ATOM     24  N   UNL     1      33.683 -10.301 -24.965  0.00  0.00    -0.270 N 
ATOM     25  C   UNL     1      34.242  -9.542 -23.848  0.00  0.00    +0.126 C 
ATOM     26  C   UNL     1      33.270  -9.480 -26.110  0.00  0.00    +0.126 C 
ATOM     27  C   UNL     1      34.388  -8.522 -26.502  0.00  0.00    +0.164 C 
ATOM     28  C   UNL     1      35.324  -8.593 -24.340  0.00  0.00    +0.164 C 
ATOM     29  C   UNL     1      33.521 -11.683 -24.852  0.00  0.00    +0.265 C 
ENDBRANCH   3  29
TORSDOF 2
ENDMDL
MODEL 8
REMARK VINA RESULT:      -9.9      4.603     10.853
REMARK  Name = 70798655
REMARK  2 active torsions:
REMARK  status: ('A' for Active; 'I' for Inactive)
REMARK    1  A    between atoms: C_3  and  C_29
REMARK    2  A    between atoms: C_5  and  C_13
REMARK                            x       y       z     vdW  Elec       q    Type
REMARK                         _______ _______ _______ _____ _____    ______ ____
ROOT
ATOM      1  N   UNL     1      34.326 -16.231 -22.637  0.00  0.00    -0.245 N 
ATOM      2  N   UNL     1      34.482 -15.271 -24.650  0.00  0.00    -0.227 NA
ATOM      3  C   UNL     1      34.029 -14.903 -22.459  0.00  0.00    +0.130 C 
ATOM      4  C   UNL     1      34.594 -16.405 -23.989  0.00  0.00    +0.139 C 
ATOM      5  C   UNL     1      34.688 -18.510 -22.093  0.00  0.00    +0.012 C 
ATOM      6  C   UNL     1      34.369 -17.258 -21.699  0.00  0.00    +0.071 C 
ATOM      7  C   UNL     1      34.133 -14.337 -23.708  0.00  0.00    +0.120 C 
ATOM      8  C   UNL     1      34.929 -17.720 -24.415  0.00  0.00    +0.035 C 
ATOM      9  C   UNL     1      34.974 -18.722 -23.516  0.00  0.00    +0.004 C 
ENDROOT
BRANCH   5  13
ATOM     10  O   UNL     1      34.630 -22.605 -18.338  0.00  0.00    -0.414 OA
ATOM     11  N   UNL     1      32.600 -21.909 -19.069  0.00  0.00    -0.356 NA
ATOM     12  N   UNL     1      32.802 -23.672 -17.444  0.00  0.00    -0.302 N 
ATOM     13  C   UNL     1      34.724 -19.596 -21.095  0.00  0.00    -0.014 C 
ATOM     14  C   UNL     1      33.520 -20.152 -20.640  0.00  0.00    +0.089 C 
ATOM     15  C   UNL     1      35.961 -20.053 -20.618  0.00  0.00    -0.001 C 
ATOM     16  C   UNL     1      33.585 -21.182 -19.692  0.00  0.00    +0.152 C 
ATOM     17  C   UNL     1      34.830 -21.605 -19.246  0.00  0.00    +0.175 C 
ATOM     18  C   UNL     1      36.043 -21.081 -19.672  0.00  0.00    +0.040 C 
ATOM     19  C   UNL     1      33.273 -22.726 -18.289  0.00  0.00    +0.341 C 
ATOM     20  H   UNL     1      33.429 -24.216 -16.915  0.00  0.00    +0.148 HD
ATOM     21  H   UNL     1      31.832 -23.814 -17.358  0.00  0.00    +0.148 HD
ENDBRANCH   5  13
BRANCH   3  29
ATOM     22  O   UNL     1      31.162 -10.929 -21.219  0.00  0.00    -0.350 OA
ATOM     23  O   UNL     1      34.346 -14.582 -20.208  0.00  0.00    -0.268 OA
ATOM     24  N   UNL     1      32.631 -13.333 -21.185  0.00  0.00    -0.270 N 
ATOM     25  C   UNL     1      32.247 -12.673 -19.939  0.00  0.00    +0.126 C 
ATOM     26  C   UNL     1      31.785 -12.992 -22.337  0.00  0.00    +0.126 C 
ATOM     27  C   UNL     1      31.635 -11.481 -22.451  0.00  0.00    +0.164 C 
ATOM     28  C   UNL     1      32.090 -11.175 -20.158  0.00  0.00    +0.164 C 
ATOM     29  C   UNL     1      33.680 -14.254 -21.189  0.00  0.00    +0.265 C 
ENDBRANCH   3  29
TORSDOF 2
ENDMDL
MODEL 9
REMARK VINA RESULT:      -9.7      2.933      5.233
REMARK  Name = 70798655
REMARK  2 active torsions:
REMARK  status: ('A' for Active; 'I' for Inactive)
REMARK    1  A    between atoms: C_3  and  C_29
REMARK    2  A    between atoms: C_5  and  C_13
REMARK                            x       y       z     vdW  Elec       q    Type
REMARK                         _______ _______ _______ _____ _____    ______ ____
ROOT
ATOM      1  N   UNL     1      32.053 -23.601 -15.110  0.00  0.00    -0.245 N 
ATOM      2  N   UNL     1      32.269 -25.084 -13.450  0.00  0.00    -0.227 NA
ATOM      3  C   UNL     1      30.878 -23.567 -14.403  0.00  0.00    +0.130 C 
ATOM      4  C   UNL     1      32.868 -24.540 -14.489  0.00  0.00    +0.139 C 
ATOM      5  C   UNL     1      33.650 -23.062 -16.778  0.00  0.00    +0.012 C 
ATOM      6  C   UNL     1      32.429 -22.870 -16.234  0.00  0.00    +0.071 C 
ATOM      7  C   UNL     1      31.035 -24.486 -13.392  0.00  0.00    +0.120 C 
ATOM      8  C   UNL     1      34.158 -24.748 -15.054  0.00  0.00    +0.035 C 
ATOM      9  C   UNL     1      34.532 -24.046 -16.141  0.00  0.00    +0.004 C 
ENDROOT
BRANCH   5  13
ATOM     10  O   UNL     1      34.945 -20.077 -21.283  0.00  0.00    -0.414 OA
ATOM     11  N   UNL     1      32.731 -20.292 -20.845  0.00  0.00    -0.356 NA
ATOM     12  N   UNL     1      33.509 -19.039 -22.746  0.00  0.00    -0.302 N 
ATOM     13  C   UNL     1      34.044 -22.278 -17.965  0.00  0.00    -0.014 C 
ATOM     14  C   UNL     1      33.049 -21.701 -18.768  0.00  0.00    +0.089 C 
ATOM     15  C   UNL     1      35.403 -22.122 -18.268  0.00  0.00    -0.001 C 
ATOM     16  C   UNL     1      33.454 -20.961 -19.889  0.00  0.00    +0.152 C 
ATOM     17  C   UNL     1      34.810 -20.832 -20.153  0.00  0.00    +0.175 C 
ATOM     18  C   UNL     1      35.823 -21.387 -19.382  0.00  0.00    +0.040 C 
ATOM     19  C   UNL     1      33.659 -19.794 -21.633  0.00  0.00    +0.341 C 
ATOM     20  H   UNL     1      34.303 -18.733 -23.243  0.00  0.00    +0.148 HD
ATOM     21  H   UNL     1      32.608 -18.796 -23.059  0.00  0.00    +0.148 HD
ENDBRANCH   5  13
BRANCH   3  29
ATOM     22  O   UNL     1      26.973 -23.935 -17.591  0.00  0.00    -0.350 OA
ATOM     23  O   UNL     1      29.744 -21.578 -14.235  0.00  0.00    -0.268 OA
ATOM     24  N   UNL     1      28.674 -23.263 -15.449  0.00  0.00    -0.270 N 
ATOM     25  C   UNL     1      27.495 -22.453 -15.751  0.00  0.00    +0.126 C 
ATOM     26  C   UNL     1      28.600 -24.646 -15.936  0.00  0.00    +0.126 C 
ATOM     27  C   UNL     1      28.186 -24.667 -17.402  0.00  0.00    +0.164 C 
ATOM     28  C   UNL     1      27.140 -22.562 -17.227  0.00  0.00    +0.164 C 
ATOM     29  C   UNL     1      29.715 -22.719 -14.694  0.00  0.00    +0.265 C 
ENDBRANCH   3  29
TORSDOF 2
ENDMDL
