MODEL 1
REMARK VINA RESULT:     -12.1      0.000      0.000
REMARK  Name = 46937134
REMARK  9 active torsions:
REMARK  status: ('A' for Active; 'I' for Inactive)
REMARK    1  A    between atoms: N_2  and  C_15
REMARK    2  A    between atoms: N_6  and  C_29
REMARK    3  A    between atoms: C_16  and  O_19
REMARK    4  A    between atoms: C_18  and  C_21
REMARK    5  A    between atoms: C_21  and  O_22
REMARK    6  A    between atoms: O_22  and  P_23
REMARK    7  A    between atoms: P_23  and  O_25
REMARK    8  A    between atoms: P_23  and  O_27
REMARK    9  A    between atoms: C_29  and  C_30
REMARK                            x       y       z     vdW  Elec       q    Type
REMARK                         _______ _______ _______ _____ _____    ______ ____
ROOT
ATOM      1  O   UNL     1      37.020 -22.785 -14.485  0.00  0.00    -0.208 OA
ATOM      2  N   UNL     1      32.864 -24.545 -14.251  0.00  0.00    -0.209 NA
ATOM      3  N   UNL     1      33.478 -23.471 -16.346  0.00  0.00    -0.279 N 
ATOM      4  N   UNL     1      34.797 -24.199 -13.164  0.00  0.00    -0.241 NA
ATOM      5  N   UNL     1      35.701 -22.564 -16.378  0.00  0.00    -0.301 NA
ATOM      6  N   UNL     1      34.268 -22.414 -18.215  0.00  0.00    -0.292 N 
ATOM      7  C   UNL     1      33.690 -23.882 -15.092  0.00  0.00    +0.191 C 
ATOM      8  C   UNL     1      33.582 -24.716 -13.089  0.00  0.00    +0.205 C 
ATOM      9  C   UNL     1      34.862 -23.675 -14.425  0.00  0.00    +0.183 C 
ATOM     10  C   UNL     1      34.538 -22.804 -16.955  0.00  0.00    +0.248 C 
ATOM     11  C   UNL     1      35.960 -22.980 -15.066  0.00  0.00    +0.224 C 
ATOM     12  H   UNL     1      32.624 -23.631 -16.810  0.00  0.00    +0.152 HD
ATOM     13  H   UNL     1      33.382 -22.621 -18.591  0.00  0.00    +0.151 HD
ENDROOT
BRANCH   2  15
ATOM     14  O   UNL     1      30.960 -24.565 -15.785  0.00  0.00    -0.338 OA
ATOM     15  C   UNL     1      31.453 -25.010 -14.507  0.00  0.00    +0.182 C 
ATOM     16  C   UNL     1      29.158 -24.531 -14.233  0.00  0.00    +0.144 C 
ATOM     17  C   UNL     1      30.459 -24.507 -13.465  0.00  0.00    +0.079 C 
ATOM     18  C   UNL     1      29.587 -24.148 -15.645  0.00  0.00    +0.174 C 
BRANCH  16  19
ATOM     19  O   UNL     1      28.656 -25.865 -14.231  0.00  0.00    -0.382 OA
ATOM     20  H   UNL     1      29.355 -26.473 -13.940  0.00  0.00    +0.210 HD
ENDBRANCH  16  19
BRANCH  18  21
ATOM     21  C   UNL     1      29.524 -22.647 -15.892  0.00  0.00    +0.186 C 
BRANCH  21  22
ATOM     22  O   UNL     1      28.744 -22.411 -17.052  0.00  0.00    -0.271 OA
BRANCH  22  23
ATOM     23  P   UNL     1      27.172 -22.793 -17.017  0.00  0.00    +0.473 P 
ATOM     24  O   UNL     1      26.516 -22.655 -15.674  0.00  0.00    -0.227 OA
BRANCH  23  25
ATOM     25  O   UNL     1      26.547 -21.862 -18.181  0.00  0.00    -0.303 OA
ATOM     26  H   UNL     1      26.198 -21.046 -17.790  0.00  0.00    +0.222 HD
ENDBRANCH  23  25
BRANCH  23  27
ATOM     27  O   UNL     1      27.124 -24.276 -17.660  0.00  0.00    -0.303 OA
ATOM     28  H   UNL     1      27.245 -24.216 -18.620  0.00  0.00    +0.222 HD
ENDBRANCH  23  27
ENDBRANCH  22  23
ENDBRANCH  21  22
ENDBRANCH  18  21
ENDBRANCH   2  15
BRANCH   6  29
ATOM     29  C   UNL     1      35.220 -21.706 -19.040  0.00  0.00    +0.117 C 
BRANCH  29  30
ATOM     30  C   UNL     1      34.515 -20.851 -20.048  0.00  0.00    -0.003 C 
ATOM     31  C   UNL     1      35.212 -19.993 -20.914  0.00  0.00    -0.002 C 
ATOM     32  C   UNL     1      34.488 -19.209 -21.844  0.00  0.00    -0.000 C 
ATOM     33  C   UNL     1      33.124 -20.937 -20.100  0.00  0.00    -0.003 C 
ATOM     34  C   UNL     1      36.612 -19.893 -20.876  0.00  0.00    -0.000 C 
ATOM     35  C   UNL     1      33.088 -19.308 -21.881  0.00  0.00    -0.000 C 
ATOM     36  C   UNL     1      32.412 -20.168 -21.014  0.00  0.00    -0.000 C 
ATOM     37  C   UNL     1      35.185 -18.350 -22.709  0.00  0.00    -0.000 C 
ATOM     38  C   UNL     1      37.289 -19.034 -21.743  0.00  0.00    -0.000 C 
ATOM     39  C   UNL     1      36.576 -18.265 -22.658  0.00  0.00    -0.000 C 
ENDBRANCH  29  30
ENDBRANCH   6  29
TORSDOF 9
ENDMDL
MODEL 2
REMARK VINA RESULT:     -11.5      2.902      6.066
REMARK  Name = 46937134
REMARK  9 active torsions:
REMARK  status: ('A' for Active; 'I' for Inactive)
REMARK    1  A    between atoms: N_2  and  C_15
REMARK    2  A    between atoms: N_6  and  C_29
REMARK    3  A    between atoms: C_16  and  O_19
REMARK    4  A    between atoms: C_18  and  C_21
REMARK    5  A    between atoms: C_21  and  O_22
REMARK    6  A    between atoms: O_22  and  P_23
REMARK    7  A    between atoms: P_23  and  O_25
REMARK    8  A    between atoms: P_23  and  O_27
REMARK    9  A    between atoms: C_29  and  C_30
REMARK                            x       y       z     vdW  Elec       q    Type
REMARK                         _______ _______ _______ _____ _____    ______ ____
ROOT
ATOM      1  O   UNL     1      30.298 -22.364 -17.271  0.00  0.00    -0.208 OA
ATOM      2  N   UNL     1      34.265 -24.032 -15.891  0.00  0.00    -0.209 NA
ATOM      3  N   UNL     1      34.293 -22.685 -17.916  0.00  0.00    -0.279 N 
ATOM      4  N   UNL     1      32.064 -23.896 -15.475  0.00  0.00    -0.241 NA
ATOM      5  N   UNL     1      32.143 -21.843 -18.573  0.00  0.00    -0.301 NA
ATOM      6  N   UNL     1      34.082 -21.392 -19.792  0.00  0.00    -0.292 N 
ATOM      7  C   UNL     1      33.714 -23.276 -16.867  0.00  0.00    +0.191 C 
ATOM      8  C   UNL     1      33.222 -24.387 -15.066  0.00  0.00    +0.205 C 
ATOM      9  C   UNL     1      32.377 -23.198 -16.608  0.00  0.00    +0.183 C 
ATOM     10  C   UNL     1      33.445 -21.966 -18.755  0.00  0.00    +0.248 C 
ATOM     11  C   UNL     1      31.501 -22.448 -17.485  0.00  0.00    +0.224 C 
ATOM     12  H   UNL     1      35.261 -22.754 -18.085  0.00  0.00    +0.152 HD
ATOM     13  H   UNL     1      35.055 -21.521 -19.875  0.00  0.00    +0.151 HD
ENDROOT
BRANCH   2  15
ATOM     14  O   UNL     1      35.857 -25.705 -15.084  0.00  0.00    -0.338 OA
ATOM     15  C   UNL     1      35.712 -24.420 -15.719  0.00  0.00    +0.182 C 
ATOM     16  C   UNL     1      37.618 -24.294 -14.332  0.00  0.00    +0.144 C 
ATOM     17  C   UNL     1      36.501 -23.429 -14.868  0.00  0.00    +0.079 C 
ATOM     18  C   UNL     1      36.941 -25.645 -14.136  0.00  0.00    +0.174 C 
BRANCH  16  19
ATOM     19  O   UNL     1      38.625 -24.405 -15.336  0.00  0.00    -0.382 OA
ATOM     20  H   UNL     1      39.360 -23.808 -15.123  0.00  0.00    +0.210 HD
ENDBRANCH  16  19
BRANCH  18  21
ATOM     21  C   UNL     1      36.354 -25.811 -12.740  0.00  0.00    +0.186 C 
BRANCH  21  22
ATOM     22  O   UNL     1      36.976 -24.879 -11.873  0.00  0.00    -0.271 OA
BRANCH  22  23
ATOM     23  P   UNL     1      36.038 -23.866 -11.026  0.00  0.00    +0.473 P 
ATOM     24  O   UNL     1      35.705 -24.324  -9.637  0.00  0.00    -0.227 OA
BRANCH  23  25
ATOM     25  O   UNL     1      36.848 -22.469 -11.109  0.00  0.00    -0.303 OA
ATOM     26  H   UNL     1      37.799 -22.640 -11.013  0.00  0.00    +0.222 HD
ENDBRANCH  23  25
BRANCH  23  27
ATOM     27  O   UNL     1      34.768 -23.619 -11.997  0.00  0.00    -0.303 OA
ATOM     28  H   UNL     1      33.970 -23.981 -11.582  0.00  0.00    +0.222 HD
ENDBRANCH  23  27
ENDBRANCH  22  23
ENDBRANCH  21  22
ENDBRANCH  18  21
ENDBRANCH   2  15
BRANCH   6  29
ATOM     29  C   UNL     1      33.404 -20.598 -20.791  0.00  0.00    +0.117 C 
BRANCH  29  30
ATOM     30  C   UNL     1      34.371 -19.707 -21.507  0.00  0.00    -0.003 C 
ATOM     31  C   UNL     1      34.076 -19.142 -22.759  0.00  0.00    -0.002 C 
ATOM     32  C   UNL     1      35.033 -18.309 -23.385  0.00  0.00    -0.000 C 
ATOM     33  C   UNL     1      35.590 -19.451 -20.881  0.00  0.00    -0.003 C 
ATOM     34  C   UNL     1      32.854 -19.388 -23.405  0.00  0.00    -0.000 C 
ATOM     35  C   UNL     1      36.256 -18.064 -22.740  0.00  0.00    -0.000 C 
ATOM     36  C   UNL     1      36.531 -18.631 -21.496  0.00  0.00    -0.000 C 
ATOM     37  C   UNL     1      34.740 -17.745 -24.638  0.00  0.00    -0.000 C 
ATOM     38  C   UNL     1      32.578 -18.821 -24.648  0.00  0.00    -0.000 C 
ATOM     39  C   UNL     1      33.519 -18.000 -25.263  0.00  0.00    -0.000 C 
ENDBRANCH  29  30
ENDBRANCH   6  29
TORSDOF 9
ENDMDL
MODEL 3
REMARK VINA RESULT:     -11.4      3.017      6.396
REMARK  Name = 46937134
REMARK  9 active torsions:
REMARK  status: ('A' for Active; 'I' for Inactive)
REMARK    1  A    between atoms: N_2  and  C_15
REMARK    2  A    between atoms: N_6  and  C_29
REMARK    3  A    between atoms: C_16  and  O_19
REMARK    4  A    between atoms: C_18  and  C_21
REMARK    5  A    between atoms: C_21  and  O_22
REMARK    6  A    between atoms: O_22  and  P_23
REMARK    7  A    between atoms: P_23  and  O_25
REMARK    8  A    between atoms: P_23  and  O_27
REMARK    9  A    between atoms: C_29  and  C_30
REMARK                            x       y       z     vdW  Elec       q    Type
REMARK                         _______ _______ _______ _____ _____    ______ ____
ROOT
ATOM      1  O   UNL     1      30.150 -23.603 -16.355  0.00  0.00    -0.208 OA
ATOM      2  N   UNL     1      33.658 -23.958 -13.528  0.00  0.00    -0.209 NA
ATOM      3  N   UNL     1      34.142 -23.152 -15.771  0.00  0.00    -0.279 N 
ATOM      4  N   UNL     1      31.445 -24.231 -13.782  0.00  0.00    -0.241 NA
ATOM      5  N   UNL     1      32.221 -22.997 -17.202  0.00  0.00    -0.301 NA
ATOM      6  N   UNL     1      34.363 -22.416 -17.926  0.00  0.00    -0.292 N 
ATOM      7  C   UNL     1      33.347 -23.597 -14.793  0.00  0.00    +0.191 C 
ATOM      8  C   UNL     1      32.467 -24.338 -12.951  0.00  0.00    +0.205 C 
ATOM      9  C   UNL     1      32.002 -23.765 -14.940  0.00  0.00    +0.183 C 
ATOM     10  C   UNL     1      33.515 -22.860 -16.980  0.00  0.00    +0.248 C 
ATOM     11  C   UNL     1      31.357 -23.460 -16.202  0.00  0.00    +0.224 C 
ATOM     12  H   UNL     1      35.112 -23.037 -15.644  0.00  0.00    +0.152 HD
ATOM     13  H   UNL     1      35.318 -22.336 -17.702  0.00  0.00    +0.151 HD
ENDROOT
BRANCH   2  15
ATOM     14  O   UNL     1      36.084 -24.058 -13.823  0.00  0.00    -0.338 OA
ATOM     15  C   UNL     1      35.013 -23.956 -12.865  0.00  0.00    +0.182 C 
ATOM     16  C   UNL     1      36.704 -25.270 -11.872  0.00  0.00    +0.144 C 
ATOM     17  C   UNL     1      35.201 -25.111 -11.886  0.00  0.00    +0.079 C 
ATOM     18  C   UNL     1      37.095 -24.948 -13.310  0.00  0.00    +0.174 C 
BRANCH  16  19
ATOM     19  O   UNL     1      37.254 -24.289 -10.996  0.00  0.00    -0.382 OA
ATOM     20  H   UNL     1      37.486 -24.705 -10.150  0.00  0.00    +0.210 HD
ENDBRANCH  16  19
BRANCH  18  21
ATOM     21  C   UNL     1      37.129 -26.183 -14.200  0.00  0.00    +0.186 C 
BRANCH  21  22
ATOM     22  O   UNL     1      38.482 -26.549 -14.415  0.00  0.00    -0.271 OA
BRANCH  22  23
ATOM     23  P   UNL     1      39.511 -25.423 -14.956  0.00  0.00    +0.473 P 
ATOM     24  O   UNL     1      40.455 -24.880 -13.923  0.00  0.00    -0.227 OA
BRANCH  23  25
ATOM     25  O   UNL     1      40.219 -26.153 -16.212  0.00  0.00    -0.303 OA
ATOM     26  H   UNL     1      40.380 -27.085 -15.995  0.00  0.00    +0.222 HD
ENDBRANCH  23  25
BRANCH  23  27
ATOM     27  O   UNL     1      38.547 -24.328 -15.656  0.00  0.00    -0.303 OA
ATOM     28  H   UNL     1      39.028 -23.493 -15.758  0.00  0.00    +0.222 HD
ENDBRANCH  23  27
ENDBRANCH  22  23
ENDBRANCH  21  22
ENDBRANCH  18  21
ENDBRANCH   2  15
BRANCH   6  29
ATOM     29  C   UNL     1      33.935 -22.053 -19.258  0.00  0.00    +0.117 C 
BRANCH  29  30
ATOM     30  C   UNL     1      34.908 -21.106 -19.888  0.00  0.00    -0.003 C 
ATOM     31  C   UNL     1      34.532 -20.225 -20.916  0.00  0.00    -0.002 C 
ATOM     32  C   UNL     1      35.500 -19.355 -21.471  0.00  0.00    -0.000 C 
ATOM     33  C   UNL     1      36.220 -21.125 -19.414  0.00  0.00    -0.003 C 
ATOM     34  C   UNL     1      33.216 -20.191 -21.406  0.00  0.00    -0.000 C 
ATOM     35  C   UNL     1      36.815 -19.390 -20.982  0.00  0.00    -0.000 C 
ATOM     36  C   UNL     1      37.171 -20.269 -19.959  0.00  0.00    -0.000 C 
ATOM     37  C   UNL     1      35.124 -18.475 -22.500  0.00  0.00    -0.000 C 
ATOM     38  C   UNL     1      32.860 -19.311 -22.428  0.00  0.00    -0.000 C 
ATOM     39  C   UNL     1      33.812 -18.455 -22.973  0.00  0.00    -0.000 C 
ENDBRANCH  29  30
ENDBRANCH   6  29
TORSDOF 9
ENDMDL
MODEL 4
REMARK VINA RESULT:     -11.3     10.122     13.920
REMARK  Name = 46937134
REMARK  9 active torsions:
REMARK  status: ('A' for Active; 'I' for Inactive)
REMARK    1  A    between atoms: N_2  and  C_15
REMARK    2  A    between atoms: N_6  and  C_29
REMARK    3  A    between atoms: C_16  and  O_19
REMARK    4  A    between atoms: C_18  and  C_21
REMARK    5  A    between atoms: C_21  and  O_22
REMARK    6  A    between atoms: O_22  and  P_23
REMARK    7  A    between atoms: P_23  and  O_25
REMARK    8  A    between atoms: P_23  and  O_27
REMARK    9  A    between atoms: C_29  and  C_30
REMARK                            x       y       z     vdW  Elec       q    Type
REMARK                         _______ _______ _______ _____ _____    ______ ____
ROOT
ATOM      1  O   UNL     1      30.821 -11.702 -20.090  0.00  0.00    -0.208 OA
ATOM      2  N   UNL     1      32.037  -9.274 -23.703  0.00  0.00    -0.209 NA
ATOM      3  N   UNL     1      33.118 -11.436 -23.427  0.00  0.00    -0.279 N 
ATOM      4  N   UNL     1      30.740  -9.356 -21.874  0.00  0.00    -0.241 NA
ATOM      5  N   UNL     1      32.412 -12.653 -21.482  0.00  0.00    -0.301 NA
ATOM      6  N   UNL     1      34.004 -13.495 -22.968  0.00  0.00    -0.292 N 
ATOM      7  C   UNL     1      32.281 -10.452 -23.084  0.00  0.00    +0.191 C 
ATOM      8  C   UNL     1      31.092  -8.641 -22.928  0.00  0.00    +0.205 C 
ATOM      9  C   UNL     1      31.490 -10.494 -21.974  0.00  0.00    +0.183 C 
ATOM     10  C   UNL     1      33.145 -12.536 -22.574  0.00  0.00    +0.248 C 
ATOM     11  C   UNL     1      31.524 -11.643 -21.091  0.00  0.00    +0.224 C 
ATOM     12  H   UNL     1      33.681 -11.385 -24.234  0.00  0.00    +0.152 HD
ATOM     13  H   UNL     1      34.524 -13.350 -23.791  0.00  0.00    +0.151 HD
ENDROOT
BRANCH   2  15
ATOM     14  O   UNL     1      32.638  -9.718 -26.032  0.00  0.00    -0.338 OA
ATOM     15  C   UNL     1      32.656  -8.743 -24.972  0.00  0.00    +0.182 C 
ATOM     16  C   UNL     1      34.649  -8.459 -26.204  0.00  0.00    +0.144 C 
ATOM     17  C   UNL     1      34.113  -8.325 -24.797  0.00  0.00    +0.079 C 
ATOM     18  C   UNL     1      33.890  -9.664 -26.746  0.00  0.00    +0.174 C 
BRANCH  16  19
ATOM     19  O   UNL     1      34.285  -7.294 -26.940  0.00  0.00    -0.382 OA
ATOM     20  H   UNL     1      34.487  -7.430 -27.880  0.00  0.00    +0.210 HD
ENDBRANCH  16  19
BRANCH  18  21
ATOM     21  C   UNL     1      34.623 -10.977 -26.507  0.00  0.00    +0.186 C 
BRANCH  21  22
ATOM     22  O   UNL     1      34.388 -11.835 -27.611  0.00  0.00    -0.271 OA
BRANCH  22  23
ATOM     23  P   UNL     1      33.249 -12.977 -27.474  0.00  0.00    +0.473 P 
ATOM     24  O   UNL     1      33.673 -14.349 -27.908  0.00  0.00    -0.227 OA
BRANCH  23  25
ATOM     25  O   UNL     1      32.802 -12.858 -25.925  0.00  0.00    -0.303 OA
ATOM     26  H   UNL     1      32.966 -13.702 -25.475  0.00  0.00    +0.222 HD
ENDBRANCH  23  25
BRANCH  23  27
ATOM     27  O   UNL     1      31.987 -12.357 -28.274  0.00  0.00    -0.303 OA
ATOM     28  H   UNL     1      31.419 -11.872 -27.656  0.00  0.00    +0.222 HD
ENDBRANCH  23  27
ENDBRANCH  22  23
ENDBRANCH  21  22
ENDBRANCH  18  21
ENDBRANCH   2  15
BRANCH   6  29
ATOM     29  C   UNL     1      34.197 -14.726 -22.237  0.00  0.00    +0.117 C 
BRANCH  29  30
ATOM     30  C   UNL     1      34.198 -15.901 -23.165  0.00  0.00    -0.003 C 
ATOM     31  C   UNL     1      34.550 -17.190 -22.735  0.00  0.00    -0.002 C 
ATOM     32  C   UNL     1      34.531 -18.259 -23.663  0.00  0.00    -0.000 C 
ATOM     33  C   UNL     1      33.830 -15.669 -24.491  0.00  0.00    -0.003 C 
ATOM     34  C   UNL     1      34.922 -17.443 -21.405  0.00  0.00    -0.000 C 
ATOM     35  C   UNL     1      34.160 -18.006 -24.994  0.00  0.00    -0.000 C 
ATOM     36  C   UNL     1      33.812 -16.719 -25.403  0.00  0.00    -0.000 C 
ATOM     37  C   UNL     1      34.885 -19.549 -23.233  0.00  0.00    -0.000 C 
ATOM     38  C   UNL     1      35.270 -18.730 -20.995  0.00  0.00    -0.000 C 
ATOM     39  C   UNL     1      35.251 -19.781 -21.908  0.00  0.00    -0.000 C 
ENDBRANCH  29  30
ENDBRANCH   6  29
TORSDOF 9
ENDMDL
MODEL 5
REMARK VINA RESULT:     -10.9      9.940     13.132
REMARK  Name = 46937134
REMARK  9 active torsions:
REMARK  status: ('A' for Active; 'I' for Inactive)
REMARK    1  A    between atoms: N_2  and  C_15
REMARK    2  A    between atoms: N_6  and  C_29
REMARK    3  A    between atoms: C_16  and  O_19
REMARK    4  A    between atoms: C_18  and  C_21
REMARK    5  A    between atoms: C_21  and  O_22
REMARK    6  A    between atoms: O_22  and  P_23
REMARK    7  A    between atoms: P_23  and  O_25
REMARK    8  A    between atoms: P_23  and  O_27
REMARK    9  A    between atoms: C_29  and  C_30
REMARK                            x       y       z     vdW  Elec       q    Type
REMARK                         _______ _______ _______ _____ _____    ______ ____
ROOT
ATOM      1  O   UNL     1      34.947 -15.123 -20.653  0.00  0.00    -0.208 OA
ATOM      2  N   UNL     1      33.722 -16.896 -24.625  0.00  0.00    -0.209 NA
ATOM      3  N   UNL     1      33.050 -14.597 -24.203  0.00  0.00    -0.279 N 
ATOM      4  N   UNL     1      34.787 -17.255 -22.683  0.00  0.00    -0.241 NA
ATOM      5  N   UNL     1      33.742 -13.740 -22.069  0.00  0.00    -0.301 NA
ATOM      6  N   UNL     1      32.526 -12.455 -23.592  0.00  0.00    -0.292 N 
ATOM      7  C   UNL     1      33.637 -15.758 -23.899  0.00  0.00    +0.191 C 
ATOM      8  C   UNL     1      34.432 -17.779 -23.843  0.00  0.00    +0.205 C 
ATOM      9  C   UNL     1      34.286 -15.984 -22.721  0.00  0.00    +0.183 C 
ATOM     10  C   UNL     1      33.134 -13.601 -23.233  0.00  0.00    +0.248 C 
ATOM     11  C   UNL     1      34.369 -14.942 -21.717  0.00  0.00    +0.224 C 
ATOM     12  H   UNL     1      32.586 -14.455 -25.060  0.00  0.00    +0.152 HD
ATOM     13  H   UNL     1      32.088 -12.411 -24.473  0.00  0.00    +0.151 HD
ENDROOT
BRANCH   2  15
ATOM     14  O   UNL     1      33.411 -16.074 -26.907  0.00  0.00    -0.338 OA
ATOM     15  C   UNL     1      33.167 -17.166 -26.001  0.00  0.00    +0.182 C 
ATOM     16  C   UNL     1      31.283 -17.007 -27.413  0.00  0.00    +0.144 C 
ATOM     17  C   UNL     1      31.659 -17.397 -26.003  0.00  0.00    +0.079 C 
ATOM     18  C   UNL     1      32.238 -15.860 -27.718  0.00  0.00    +0.174 C 
BRANCH  16  19
ATOM     19  O   UNL     1      31.565 -18.106 -28.276  0.00  0.00    -0.382 OA
ATOM     20  H   UNL     1      30.848 -18.201 -28.924  0.00  0.00    +0.210 HD
ENDBRANCH  16  19
BRANCH  18  21
ATOM     21  C   UNL     1      31.658 -14.500 -27.354  0.00  0.00    +0.186 C 
BRANCH  21  22
ATOM     22  O   UNL     1      32.673 -13.724 -26.740  0.00  0.00    -0.271 OA
BRANCH  22  23
ATOM     23  P   UNL     1      33.076 -12.307 -27.412  0.00  0.00    +0.473 P 
ATOM     24  O   UNL     1      34.492 -12.218 -27.901  0.00  0.00    -0.227 OA
BRANCH  23  25
ATOM     25  O   UNL     1      31.947 -12.114 -28.553  0.00  0.00    -0.303 OA
ATOM     26  H   UNL     1      31.369 -12.894 -28.571  0.00  0.00    +0.222 HD
ENDBRANCH  23  25
BRANCH  23  27
ATOM     27  O   UNL     1      32.662 -11.219 -26.289  0.00  0.00    -0.303 OA
ATOM     28  H   UNL     1      31.886 -10.722 -26.592  0.00  0.00    +0.222 HD
ENDBRANCH  23  27
ENDBRANCH  22  23
ENDBRANCH  21  22
ENDBRANCH  18  21
ENDBRANCH   2  15
BRANCH   6  29
ATOM     29  C   UNL     1      32.486 -11.286 -22.744  0.00  0.00    +0.117 C 
BRANCH  29  30
ATOM     30  C   UNL     1      33.151 -10.122 -23.412  0.00  0.00    -0.003 C 
ATOM     31  C   UNL     1      32.525  -8.870 -23.523  0.00  0.00    -0.002 C 
ATOM     32  C   UNL     1      33.206  -7.809 -24.167  0.00  0.00    -0.000 C 
ATOM     33  C   UNL     1      34.431 -10.325 -23.928  0.00  0.00    -0.003 C 
ATOM     34  C   UNL     1      31.237  -8.646 -23.010  0.00  0.00    -0.000 C 
ATOM     35  C   UNL     1      34.493  -8.033 -24.681  0.00  0.00    -0.000 C 
ATOM     36  C   UNL     1      35.101  -9.283 -24.561  0.00  0.00    -0.000 C 
ATOM     37  C   UNL     1      32.579  -6.557 -24.279  0.00  0.00    -0.000 C 
ATOM     38  C   UNL     1      30.629  -7.397 -23.130  0.00  0.00    -0.000 C 
ATOM     39  C   UNL     1      31.299  -6.354 -23.763  0.00  0.00    -0.000 C 
ENDBRANCH  29  30
ENDBRANCH   6  29
TORSDOF 9
ENDMDL
MODEL 6
REMARK VINA RESULT:     -10.9      7.323     10.809
REMARK  Name = 46937134
REMARK  9 active torsions:
REMARK  status: ('A' for Active; 'I' for Inactive)
REMARK    1  A    between atoms: N_2  and  C_15
REMARK    2  A    between atoms: N_6  and  C_29
REMARK    3  A    between atoms: C_16  and  O_19
REMARK    4  A    between atoms: C_18  and  C_21
REMARK    5  A    between atoms: C_21  and  O_22
REMARK    6  A    between atoms: O_22  and  P_23
REMARK    7  A    between atoms: P_23  and  O_25
REMARK    8  A    between atoms: P_23  and  O_27
REMARK    9  A    between atoms: C_29  and  C_30
REMARK                            x       y       z     vdW  Elec       q    Type
REMARK                         _______ _______ _______ _____ _____    ______ ____
ROOT
ATOM      1  O   UNL     1      32.030 -15.682 -27.390  0.00  0.00    -0.208 OA
ATOM      2  N   UNL     1      34.396 -18.191 -24.469  0.00  0.00    -0.209 NA
ATOM      3  N   UNL     1      34.207 -15.819 -23.967  0.00  0.00    -0.279 N 
ATOM      4  N   UNL     1      33.202 -18.187 -26.370  0.00  0.00    -0.241 NA
ATOM      5  N   UNL     1      32.936 -14.566 -25.573  0.00  0.00    -0.301 NA
ATOM      6  N   UNL     1      33.901 -13.567 -23.696  0.00  0.00    -0.292 N 
ATOM      7  C   UNL     1      33.988 -16.921 -24.690  0.00  0.00    +0.191 C 
ATOM      8  C   UNL     1      33.893 -18.926 -25.519  0.00  0.00    +0.205 C 
ATOM      9  C   UNL     1      33.263 -16.926 -25.845  0.00  0.00    +0.183 C 
ATOM     10  C   UNL     1      33.648 -14.644 -24.463  0.00  0.00    +0.248 C 
ATOM     11  C   UNL     1      32.684 -15.699 -26.355  0.00  0.00    +0.224 C 
ATOM     12  H   UNL     1      34.734 -15.836 -23.135  0.00  0.00    +0.152 HD
ATOM     13  H   UNL     1      34.439 -13.688 -22.880  0.00  0.00    +0.151 HD
ENDROOT
BRANCH   2  15
ATOM     14  O   UNL     1      34.689 -19.939 -22.784  0.00  0.00    -0.338 OA
ATOM     15  C   UNL     1      35.226 -18.717 -23.325  0.00  0.00    +0.182 C 
ATOM     16  C   UNL     1      35.599 -18.663 -20.996  0.00  0.00    +0.144 C 
ATOM     17  C   UNL     1      35.326 -17.739 -22.159  0.00  0.00    +0.079 C 
ATOM     18  C   UNL     1      34.788 -19.905 -21.346  0.00  0.00    +0.174 C 
BRANCH  16  19
ATOM     19  O   UNL     1      36.988 -18.985 -20.991  0.00  0.00    -0.382 OA
ATOM     20  H   UNL     1      37.260 -19.255 -21.883  0.00  0.00    +0.210 HD
ENDBRANCH  16  19
BRANCH  18  21
ATOM     21  C   UNL     1      33.375 -19.863 -20.780  0.00  0.00    +0.186 C 
BRANCH  21  22
ATOM     22  O   UNL     1      32.932 -21.193 -20.570  0.00  0.00    -0.271 OA
BRANCH  22  23
ATOM     23  P   UNL     1      33.501 -22.005 -19.291  0.00  0.00    +0.473 P 
ATOM     24  O   UNL     1      34.715 -21.403 -18.647  0.00  0.00    -0.227 OA
BRANCH  23  25
ATOM     25  O   UNL     1      32.205 -22.120 -18.330  0.00  0.00    -0.303 OA
ATOM     26  H   UNL     1      31.494 -21.558 -18.678  0.00  0.00    +0.222 HD
ENDBRANCH  23  25
BRANCH  23  27
ATOM     27  O   UNL     1      33.688 -23.513 -19.846  0.00  0.00    -0.303 OA
ATOM     28  H   UNL     1      34.058 -23.484 -20.741  0.00  0.00    +0.222 HD
ENDBRANCH  23  27
ENDBRANCH  22  23
ENDBRANCH  21  22
ENDBRANCH  18  21
ENDBRANCH   2  15
BRANCH   6  29
ATOM     29  C   UNL     1      33.420 -12.243 -24.015  0.00  0.00    +0.117 C 
BRANCH  29  30
ATOM     30  C   UNL     1      32.562 -11.708 -22.910  0.00  0.00    -0.003 C 
ATOM     31  C   UNL     1      32.272 -10.340 -22.788  0.00  0.00    -0.002 C 
ATOM     32  C   UNL     1      31.455  -9.898 -21.719  0.00  0.00    -0.000 C 
ATOM     33  C   UNL     1      32.053 -12.628 -21.994  0.00  0.00    -0.003 C 
ATOM     34  C   UNL     1      32.776  -9.399 -23.700  0.00  0.00    -0.000 C 
ATOM     35  C   UNL     1      30.952 -10.838 -20.806  0.00  0.00    -0.000 C 
ATOM     36  C   UNL     1      31.249 -12.195 -20.944  0.00  0.00    -0.000 C 
ATOM     37  C   UNL     1      31.166  -8.529 -21.596  0.00  0.00    -0.000 C 
ATOM     38  C   UNL     1      32.479  -8.043 -23.563  0.00  0.00    -0.000 C 
ATOM     39  C   UNL     1      31.675  -7.610 -22.513  0.00  0.00    -0.000 C 
ENDBRANCH  29  30
ENDBRANCH   6  29
TORSDOF 9
ENDMDL
MODEL 7
REMARK VINA RESULT:     -10.9     10.253     14.067
REMARK  Name = 46937134
REMARK  9 active torsions:
REMARK  status: ('A' for Active; 'I' for Inactive)
REMARK    1  A    between atoms: N_2  and  C_15
REMARK    2  A    between atoms: N_6  and  C_29
REMARK    3  A    between atoms: C_16  and  O_19
REMARK    4  A    between atoms: C_18  and  C_21
REMARK    5  A    between atoms: C_21  and  O_22
REMARK    6  A    between atoms: O_22  and  P_23
REMARK    7  A    between atoms: P_23  and  O_25
REMARK    8  A    between atoms: P_23  and  O_27
REMARK    9  A    between atoms: C_29  and  C_30
REMARK                            x       y       z     vdW  Elec       q    Type
REMARK                         _______ _______ _______ _____ _____    ______ ____
ROOT
ATOM      1  O   UNL     1      32.320 -11.780 -27.973  0.00  0.00    -0.208 OA
ATOM      2  N   UNL     1      32.619  -8.510 -24.868  0.00  0.00    -0.209 NA
ATOM      3  N   UNL     1      33.255 -10.748 -24.160  0.00  0.00    -0.279 N 
ATOM      4  N   UNL     1      32.084  -9.011 -26.989  0.00  0.00    -0.241 NA
ATOM      5  N   UNL     1      33.063 -12.419 -25.873  0.00  0.00    -0.301 NA
ATOM      6  N   UNL     1      33.801 -12.926 -23.717  0.00  0.00    -0.292 N 
ATOM      7  C   UNL     1      32.822  -9.836 -25.035  0.00  0.00    +0.191 C 
ATOM      8  C   UNL     1      32.169  -8.050 -26.085  0.00  0.00    +0.205 C 
ATOM      9  C   UNL     1      32.495 -10.133 -26.326  0.00  0.00    +0.183 C 
ATOM     10  C   UNL     1      33.360 -12.051 -24.641  0.00  0.00    +0.248 C 
ATOM     11  C   UNL     1      32.607 -11.491 -26.818  0.00  0.00    +0.224 C 
ATOM     12  H   UNL     1      33.486 -10.513 -23.232  0.00  0.00    +0.152 HD
ATOM     13  H   UNL     1      34.005 -12.592 -22.814  0.00  0.00    +0.151 HD
ENDROOT
BRANCH   2  15
ATOM     14  O   UNL     1      33.231  -8.493 -22.500  0.00  0.00    -0.338 OA
ATOM     15  C   UNL     1      32.830  -7.685 -23.623  0.00  0.00    +0.182 C 
ATOM     16  C   UNL     1      31.824  -6.750 -21.704  0.00  0.00    +0.144 C 
ATOM     17  C   UNL     1      31.578  -6.932 -23.184  0.00  0.00    +0.079 C 
ATOM     18  C   UNL     1      32.549  -8.033 -21.317  0.00  0.00    +0.174 C 
BRANCH  16  19
ATOM     19  O   UNL     1      32.694  -5.635 -21.524  0.00  0.00    -0.382 OA
ATOM     20  H   UNL     1      33.128  -5.701 -20.658  0.00  0.00    +0.210 HD
ENDBRANCH  16  19
BRANCH  18  21
ATOM     21  C   UNL     1      31.598  -9.133 -20.865  0.00  0.00    +0.186 C 
BRANCH  21  22
ATOM     22  O   UNL     1      32.046 -10.367 -21.399  0.00  0.00    -0.271 OA
BRANCH  22  23
ATOM     23  P   UNL     1      31.208 -11.708 -21.052  0.00  0.00    +0.473 P 
ATOM     24  O   UNL     1      31.718 -12.486 -19.875  0.00  0.00    -0.227 OA
BRANCH  23  25
ATOM     25  O   UNL     1      29.694 -11.161 -20.906  0.00  0.00    -0.303 OA
ATOM     26  H   UNL     1      29.316 -11.015 -21.788  0.00  0.00    +0.222 HD
ENDBRANCH  23  25
BRANCH  23  27
ATOM     27  O   UNL     1      31.179 -12.515 -22.454  0.00  0.00    -0.303 OA
ATOM     28  H   UNL     1      32.020 -12.981 -22.576  0.00  0.00    +0.222 HD
ENDBRANCH  23  27
ENDBRANCH  22  23
ENDBRANCH  21  22
ENDBRANCH  18  21
ENDBRANCH   2  15
BRANCH   6  29
ATOM     29  C   UNL     1      33.987 -14.332 -23.991  0.00  0.00    +0.117 C 
BRANCH  29  30
ATOM     30  C   UNL     1      34.292 -15.082 -22.732  0.00  0.00    -0.003 C 
ATOM     31  C   UNL     1      34.569 -16.459 -22.733  0.00  0.00    -0.002 C 
ATOM     32  C   UNL     1      34.849 -17.111 -21.509  0.00  0.00    -0.000 C 
ATOM     33  C   UNL     1      34.293 -14.358 -21.540  0.00  0.00    -0.003 C 
ATOM     34  C   UNL     1      34.572 -17.205 -23.924  0.00  0.00    -0.000 C 
ATOM     35  C   UNL     1      34.844 -16.366 -20.318  0.00  0.00    -0.000 C 
ATOM     36  C   UNL     1      34.569 -14.998 -20.335  0.00  0.00    -0.000 C 
ATOM     37  C   UNL     1      35.125 -18.488 -21.510  0.00  0.00    -0.000 C 
ATOM     38  C   UNL     1      34.848 -18.572 -23.907  0.00  0.00    -0.000 C 
ATOM     39  C   UNL     1      35.125 -19.212 -22.703  0.00  0.00    -0.000 C 
ENDBRANCH  29  30
ENDBRANCH   6  29
TORSDOF 9
ENDMDL
MODEL 8
REMARK VINA RESULT:     -10.9     10.891     14.198
REMARK  Name = 46937134
REMARK  9 active torsions:
REMARK  status: ('A' for Active; 'I' for Inactive)
REMARK    1  A    between atoms: N_2  and  C_15
REMARK    2  A    between atoms: N_6  and  C_29
REMARK    3  A    between atoms: C_16  and  O_19
REMARK    4  A    between atoms: C_18  and  C_21
REMARK    5  A    between atoms: C_21  and  O_22
REMARK    6  A    between atoms: O_22  and  P_23
REMARK    7  A    between atoms: P_23  and  O_25
REMARK    8  A    between atoms: P_23  and  O_27
REMARK    9  A    between atoms: C_29  and  C_30
REMARK                            x       y       z     vdW  Elec       q    Type
REMARK                         _______ _______ _______ _____ _____    ______ ____
ROOT
ATOM      1  O   UNL     1      31.869 -13.654 -19.898  0.00  0.00    -0.208 OA
ATOM      2  N   UNL     1      31.165  -9.464 -21.439  0.00  0.00    -0.209 NA
ATOM      3  N   UNL     1      32.280 -11.009 -22.950  0.00  0.00    -0.279 N 
ATOM      4  N   UNL     1      30.905 -10.874 -19.713  0.00  0.00    -0.241 NA
ATOM      5  N   UNL     1      32.613 -13.209 -22.048  0.00  0.00    -0.301 NA
ATOM      6  N   UNL     1      33.310 -12.627 -24.199  0.00  0.00    -0.292 N 
ATOM      7  C   UNL     1      31.695 -10.654 -21.803  0.00  0.00    +0.191 C 
ATOM      8  C   UNL     1      30.697  -9.647 -20.157  0.00  0.00    +0.205 C 
ATOM      9  C   UNL     1      31.533 -11.505 -20.750  0.00  0.00    +0.183 C 
ATOM     10  C   UNL     1      32.730 -12.325 -23.022  0.00  0.00    +0.248 C 
ATOM     11  C   UNL     1      32.005 -12.873 -20.832  0.00  0.00    +0.224 C 
ATOM     12  H   UNL     1      32.387 -10.379 -23.700  0.00  0.00    +0.152 HD
ATOM     13  H   UNL     1      33.370 -11.925 -24.886  0.00  0.00    +0.151 HD
ENDROOT
BRANCH   2  15
ATOM     14  O   UNL     1      31.418  -8.409 -23.631  0.00  0.00    -0.338 OA
ATOM     15  C   UNL     1      31.091  -8.192 -22.245  0.00  0.00    +0.182 C 
ATOM     16  C   UNL     1      32.257  -6.279 -22.988  0.00  0.00    +0.144 C 
ATOM     17  C   UNL     1      32.043  -7.110 -21.744  0.00  0.00    +0.079 C 
ATOM     18  C   UNL     1      32.234  -7.318 -24.102  0.00  0.00    +0.174 C 
BRANCH  16  19
ATOM     19  O   UNL     1      31.149  -5.393 -23.136  0.00  0.00    -0.382 OA
ATOM     20  H   UNL     1      30.886  -5.359 -24.070  0.00  0.00    +0.210 HD
ENDBRANCH  16  19
BRANCH  18  21
ATOM     21  C   UNL     1      33.617  -7.869 -24.421  0.00  0.00    +0.186 C 
BRANCH  21  22
ATOM     22  O   UNL     1      33.470  -9.153 -25.003  0.00  0.00    -0.271 OA
BRANCH  22  23
ATOM     23  P   UNL     1      34.776  -9.866 -25.642  0.00  0.00    +0.473 P 
ATOM     24  O   UNL     1      34.486 -11.031 -26.542  0.00  0.00    -0.227 OA
BRANCH  23  25
ATOM     25  O   UNL     1      35.551  -8.635 -26.347  0.00  0.00    -0.303 OA
ATOM     26  H   UNL     1      35.139  -8.442 -27.204  0.00  0.00    +0.222 HD
ENDBRANCH  23  25
BRANCH  23  27
ATOM     27  O   UNL     1      35.698 -10.198 -24.355  0.00  0.00    -0.303 OA
ATOM     28  H   UNL     1      35.259 -10.867 -23.807  0.00  0.00    +0.222 HD
ENDBRANCH  23  27
ENDBRANCH  22  23
ENDBRANCH  21  22
ENDBRANCH  18  21
ENDBRANCH   2  15
BRANCH   6  29
ATOM     29  C   UNL     1      33.851 -13.933 -24.497  0.00  0.00    +0.117 C 
BRANCH  29  30
ATOM     30  C   UNL     1      33.069 -14.594 -25.590  0.00  0.00    -0.003 C 
ATOM     31  C   UNL     1      32.933 -15.989 -25.669  0.00  0.00    -0.002 C 
ATOM     32  C   UNL     1      32.181 -16.553 -26.728  0.00  0.00    -0.000 C 
ATOM     33  C   UNL     1      32.472 -13.766 -26.540  0.00  0.00    -0.003 C 
ATOM     34  C   UNL     1      33.527 -16.839 -24.722  0.00  0.00    -0.000 C 
ATOM     35  C   UNL     1      31.588 -15.704 -27.676  0.00  0.00    -0.000 C 
ATOM     36  C   UNL     1      31.732 -14.319 -27.581  0.00  0.00    -0.000 C 
ATOM     37  C   UNL     1      32.046 -17.949 -26.809  0.00  0.00    -0.000 C 
ATOM     38  C   UNL     1      33.382 -18.223 -24.817  0.00  0.00    -0.000 C 
ATOM     39  C   UNL     1      32.642 -18.776 -25.858  0.00  0.00    -0.000 C 
ENDBRANCH  29  30
ENDBRANCH   6  29
TORSDOF 9
ENDMDL
MODEL 9
REMARK VINA RESULT:     -10.6      0.824      2.233
REMARK  Name = 46937134
REMARK  9 active torsions:
REMARK  status: ('A' for Active; 'I' for Inactive)
REMARK    1  A    between atoms: N_2  and  C_15
REMARK    2  A    between atoms: N_6  and  C_29
REMARK    3  A    between atoms: C_16  and  O_19
REMARK    4  A    between atoms: C_18  and  C_21
REMARK    5  A    between atoms: C_21  and  O_22
REMARK    6  A    between atoms: O_22  and  P_23
REMARK    7  A    between atoms: P_23  and  O_25
REMARK    8  A    between atoms: P_23  and  O_27
REMARK    9  A    between atoms: C_29  and  C_30
REMARK                            x       y       z     vdW  Elec       q    Type
REMARK                         _______ _______ _______ _____ _____    ______ ____
ROOT
ATOM      1  O   UNL     1      37.287 -22.535 -13.551  0.00  0.00    -0.208 OA
ATOM      2  N   UNL     1      33.234 -24.444 -14.149  0.00  0.00    -0.209 NA
ATOM      3  N   UNL     1      34.266 -23.437 -16.108  0.00  0.00    -0.279 N 
ATOM      4  N   UNL     1      34.867 -23.977 -12.682  0.00  0.00    -0.241 NA
ATOM      5  N   UNL     1      36.414 -22.447 -15.696  0.00  0.00    -0.301 NA
ATOM      6  N   UNL     1      35.420 -22.431 -17.809  0.00  0.00    -0.292 N 
ATOM      7  C   UNL     1      34.206 -23.785 -14.820  0.00  0.00    +0.191 C 
ATOM      8  C   UNL     1      33.681 -24.537 -12.850  0.00  0.00    +0.205 C 
ATOM      9  C   UNL     1      35.195 -23.505 -13.922  0.00  0.00    +0.183 C 
ATOM     10  C   UNL     1      35.415 -22.756 -16.502  0.00  0.00    +0.248 C 
ATOM     11  C   UNL     1      36.387 -22.796 -14.340  0.00  0.00    +0.224 C 
ATOM     12  H   UNL     1      33.540 -23.649 -16.740  0.00  0.00    +0.152 HD
ATOM     13  H   UNL     1      34.645 -22.688 -18.360  0.00  0.00    +0.151 HD
ENDROOT
BRANCH   2  15
ATOM     14  O   UNL     1      31.492 -24.255 -15.855  0.00  0.00    -0.338 OA
ATOM     15  C   UNL     1      31.928 -24.973 -14.685  0.00  0.00    +0.182 C 
ATOM     16  C   UNL     1      29.574 -24.840 -14.577  0.00  0.00    +0.144 C 
ATOM     17  C   UNL     1      30.786 -24.883 -13.677  0.00  0.00    +0.079 C 
ATOM     18  C   UNL     1      30.068 -24.045 -15.780  0.00  0.00    +0.174 C 
BRANCH  16  19
ATOM     19  O   UNL     1      29.262 -26.172 -14.980  0.00  0.00    -0.382 OA
ATOM     20  H   UNL     1      28.924 -26.164 -15.890  0.00  0.00    +0.210 HD
ENDBRANCH  16  19
BRANCH  18  21
ATOM     21  C   UNL     1      29.821 -22.549 -15.637  0.00  0.00    +0.186 C 
BRANCH  21  22
ATOM     22  O   UNL     1      29.019 -22.117 -16.723  0.00  0.00    -0.271 OA
BRANCH  22  23
ATOM     23  P   UNL     1      27.515 -22.702 -16.853  0.00  0.00    +0.473 P 
ATOM     24  O   UNL     1      27.416 -24.058 -17.487  0.00  0.00    -0.227 OA
BRANCH  23  25
ATOM     25  O   UNL     1      26.960 -22.614 -15.337  0.00  0.00    -0.303 OA
ATOM     26  H   UNL     1      27.670 -22.310 -14.750  0.00  0.00    +0.222 HD
ENDBRANCH  23  25
BRANCH  23  27
ATOM     27  O   UNL     1      26.710 -21.523 -17.613  0.00  0.00    -0.303 OA
ATOM     28  H   UNL     1      26.379 -21.853 -18.463  0.00  0.00    +0.222 HD
ENDBRANCH  23  27
ENDBRANCH  22  23
ENDBRANCH  21  22
ENDBRANCH  18  21
ENDBRANCH   2  15
BRANCH   6  29
ATOM     29  C   UNL     1      36.510 -21.722 -18.439  0.00  0.00    +0.117 C 
BRANCH  29  30
ATOM     30  C   UNL     1      36.002 -20.828 -19.528  0.00  0.00    -0.003 C 
ATOM     31  C   UNL     1      34.639 -20.754 -19.856  0.00  0.00    -0.002 C 
ATOM     32  C   UNL     1      34.223 -19.889 -20.896  0.00  0.00    -0.000 C 
ATOM     33  C   UNL     1      36.942 -20.059 -20.215  0.00  0.00    -0.003 C 
ATOM     34  C   UNL     1      33.678 -21.520 -19.175  0.00  0.00    -0.000 C 
ATOM     35  C   UNL     1      35.183 -19.124 -21.578  0.00  0.00    -0.000 C 
ATOM     36  C   UNL     1      36.534 -19.209 -21.238  0.00  0.00    -0.000 C 
ATOM     37  C   UNL     1      32.859 -19.816 -21.226  0.00  0.00    -0.000 C 
ATOM     38  C   UNL     1      32.328 -21.435 -19.515  0.00  0.00    -0.000 C 
ATOM     39  C   UNL     1      31.920 -20.584 -20.538  0.00  0.00    -0.000 C 
ENDBRANCH  29  30
ENDBRANCH   6  29
TORSDOF 9
ENDMDL
