MODEL 1
REMARK VINA RESULT:     -12.0      0.000      0.000
REMARK  Name = 6918151
REMARK  4 active torsions:
REMARK  status: ('A' for Active; 'I' for Inactive)
REMARK    1  A    between atoms: C_2  and  C_11
REMARK    2  A    between atoms: C_7  and  C_18
REMARK    3  A    between atoms: C_11  and  C_12
REMARK    4  A    between atoms: C_18  and  C_23
REMARK                            x       y       z     vdW  Elec       q    Type
REMARK                         _______ _______ _______ _____ _____    ______ ____
ROOT
ATOM      1  O   UNL     1      35.474 -19.715 -20.620  0.00  0.00    -0.479 OA
ATOM      2  C   UNL     1      34.620 -18.732 -21.223  0.00  0.00    +0.171 C 
ATOM      3  C   UNL     1      33.415 -19.383 -21.901  0.00  0.00    +0.049 C 
ATOM      4  C   UNL     1      32.574 -20.093 -20.847  0.00  0.00    +0.033 C 
ATOM      5  C   UNL     1      33.450 -20.893 -19.927  0.00  0.00    +0.012 C 
ATOM      6  C   UNL     1      34.829 -20.655 -19.857  0.00  0.00    +0.134 C 
ATOM      7  C   UNL     1      33.689 -22.628 -18.245  0.00  0.00    -0.021 C 
ATOM      8  C   UNL     1      32.885 -21.877 -19.104  0.00  0.00    -0.006 C 
ATOM      9  C   UNL     1      35.634 -21.416 -19.006  0.00  0.00    +0.036 C 
ATOM     10  C   UNL     1      35.063 -22.399 -18.199  0.00  0.00    -0.001 C 
ENDROOT
BRANCH   2  11
ATOM     11  C   UNL     1      35.461 -17.964 -22.237  0.00  0.00    +0.070 C 
BRANCH  11  12
ATOM     12  C   UNL     1      34.879 -16.608 -22.529  0.00  0.00    -0.019 C 
ATOM     13  C   UNL     1      34.520 -16.284 -23.832  0.00  0.00    -0.004 C 
ATOM     14  C   UNL     1      34.708 -15.698 -21.495  0.00  0.00    -0.004 C 
ATOM     15  C   UNL     1      33.980 -15.027 -24.103  0.00  0.00    -0.000 C 
ATOM     16  C   UNL     1      34.168 -14.441 -21.767  0.00  0.00    -0.000 C 
ATOM     17  C   UNL     1      33.805 -14.106 -23.071  0.00  0.00    -0.000 C 
ENDBRANCH  11  12
ENDBRANCH   2  11
BRANCH   7  18
ATOM     18  C   UNL     1      33.078 -23.675 -17.378  0.00  0.00    +0.047 C 
BRANCH  18  23
ATOM     19  S   UNL     1      33.053 -24.033 -14.641  0.00  0.00    -0.048 S 
ATOM     20  O   UNL     1      30.266 -22.701 -16.955  0.00  0.00    -0.274 OA
ATOM     21  O   UNL     1      31.191 -25.040 -13.082  0.00  0.00    -0.263 OA
ATOM     22  N   UNL     1      30.526 -23.882 -14.983  0.00  0.00    -0.246 N 
ATOM     23  C   UNL     1      32.490 -23.096 -16.094  0.00  0.00    +0.137 C 
ATOM     24  C   UNL     1      30.981 -23.189 -16.086  0.00  0.00    +0.239 C 
ATOM     25  C   UNL     1      31.431 -24.405 -14.097  0.00  0.00    +0.279 C 
ATOM     26  H   UNL     1      29.560 -24.000 -14.835  0.00  0.00    +0.158 HD
ENDBRANCH  18  23
ENDBRANCH   7  18
TORSDOF 4
ENDMDL
MODEL 2
REMARK VINA RESULT:     -11.6      1.386      2.392
REMARK  Name = 6918151
REMARK  4 active torsions:
REMARK  status: ('A' for Active; 'I' for Inactive)
REMARK    1  A    between atoms: C_2  and  C_11
REMARK    2  A    between atoms: C_7  and  C_18
REMARK    3  A    between atoms: C_11  and  C_12
REMARK    4  A    between atoms: C_18  and  C_23
REMARK                            x       y       z     vdW  Elec       q    Type
REMARK                         _______ _______ _______ _____ _____    ______ ____
ROOT
ATOM      1  O   UNL     1      34.114 -19.307 -21.254  0.00  0.00    -0.479 OA
ATOM      2  C   UNL     1      35.425 -19.275 -21.837  0.00  0.00    +0.171 C 
ATOM      3  C   UNL     1      36.510 -19.441 -20.774  0.00  0.00    +0.049 C 
ATOM      4  C   UNL     1      36.363 -20.812 -20.124  0.00  0.00    +0.033 C 
ATOM      5  C   UNL     1      34.926 -21.084 -19.788  0.00  0.00    +0.012 C 
ATOM      6  C   UNL     1      33.896 -20.335 -20.373  0.00  0.00    +0.134 C 
ATOM      7  C   UNL     1      33.266 -22.377 -18.578  0.00  0.00    -0.021 C 
ATOM      8  C   UNL     1      34.599 -22.116 -18.899  0.00  0.00    -0.006 C 
ATOM      9  C   UNL     1      32.563 -20.590 -20.041  0.00  0.00    +0.036 C 
ATOM     10  C   UNL     1      32.249 -21.612 -19.147  0.00  0.00    -0.001 C 
ENDROOT
BRANCH   2  11
ATOM     11  C   UNL     1      35.569 -17.935 -22.551  0.00  0.00    +0.070 C 
BRANCH  11  12
ATOM     12  C   UNL     1      34.683 -17.853 -23.764  0.00  0.00    -0.019 C 
ATOM     13  C   UNL     1      34.184 -16.620 -24.165  0.00  0.00    -0.004 C 
ATOM     14  C   UNL     1      34.376 -19.010 -24.467  0.00  0.00    -0.004 C 
ATOM     15  C   UNL     1      33.363 -16.544 -25.289  0.00  0.00    -0.000 C 
ATOM     16  C   UNL     1      33.555 -18.933 -25.593  0.00  0.00    -0.000 C 
ATOM     17  C   UNL     1      33.048 -17.701 -26.003  0.00  0.00    -0.000 C 
ENDBRANCH  11  12
ENDBRANCH   2  11
BRANCH   7  18
ATOM     18  C   UNL     1      32.930 -23.474 -17.626  0.00  0.00    +0.047 C 
BRANCH  18  23
ATOM     19  S   UNL     1      33.220 -23.779 -14.898  0.00  0.00    -0.048 S 
ATOM     20  O   UNL     1      30.075 -22.840 -16.929  0.00  0.00    -0.274 OA
ATOM     21  O   UNL     1      31.659 -24.974 -13.152  0.00  0.00    -0.263 OA
ATOM     22  N   UNL     1      30.671 -23.942 -14.985  0.00  0.00    -0.246 N 
ATOM     23  C   UNL     1      32.405 -22.945 -16.293  0.00  0.00    +0.137 C 
ATOM     24  C   UNL     1      30.927 -23.220 -16.133  0.00  0.00    +0.239 C 
ATOM     25  C   UNL     1      31.718 -24.334 -14.190  0.00  0.00    +0.279 C 
ATOM     26  H   UNL     1      29.747 -24.173 -14.739  0.00  0.00    +0.158 HD
ENDBRANCH  18  23
ENDBRANCH   7  18
TORSDOF 4
ENDMDL
MODEL 3
REMARK VINA RESULT:     -11.4      4.242      9.449
REMARK  Name = 6918151
REMARK  4 active torsions:
REMARK  status: ('A' for Active; 'I' for Inactive)
REMARK    1  A    between atoms: C_2  and  C_11
REMARK    2  A    between atoms: C_7  and  C_18
REMARK    3  A    between atoms: C_11  and  C_12
REMARK    4  A    between atoms: C_18  and  C_23
REMARK                            x       y       z     vdW  Elec       q    Type
REMARK                         _______ _______ _______ _____ _____    ______ ____
ROOT
ATOM      1  O   UNL     1      35.074 -23.131 -15.362  0.00  0.00    -0.479 OA
ATOM      2  C   UNL     1      33.994 -24.016 -15.032  0.00  0.00    +0.171 C 
ATOM      3  C   UNL     1      32.655 -23.466 -15.520  0.00  0.00    +0.049 C 
ATOM      4  C   UNL     1      32.681 -23.369 -17.041  0.00  0.00    +0.033 C 
ATOM      5  C   UNL     1      33.968 -22.753 -17.507  0.00  0.00    +0.012 C 
ATOM      6  C   UNL     1      35.080 -22.681 -16.658  0.00  0.00    +0.134 C 
ATOM      7  C   UNL     1      35.268 -21.690 -19.260  0.00  0.00    -0.021 C 
ATOM      8  C   UNL     1      34.076 -22.266 -18.816  0.00  0.00    -0.006 C 
ATOM      9  C   UNL     1      36.268 -22.093 -17.099  0.00  0.00    +0.036 C 
ATOM     10  C   UNL     1      36.361 -21.601 -18.401  0.00  0.00    -0.001 C 
ENDROOT
BRANCH   2  11
ATOM     11  C   UNL     1      33.991 -24.179 -13.516  0.00  0.00    +0.070 C 
BRANCH  11  12
ATOM     12  C   UNL     1      35.386 -24.319 -12.969  0.00  0.00    -0.019 C 
ATOM     13  C   UNL     1      36.146 -25.431 -13.308  0.00  0.00    -0.004 C 
ATOM     14  C   UNL     1      35.894 -23.335 -12.132  0.00  0.00    -0.004 C 
ATOM     15  C   UNL     1      37.438 -25.561 -12.800  0.00  0.00    -0.000 C 
ATOM     16  C   UNL     1      37.188 -23.464 -11.626  0.00  0.00    -0.000 C 
ATOM     17  C   UNL     1      37.959 -24.577 -11.959  0.00  0.00    -0.000 C 
ENDBRANCH  11  12
ENDBRANCH   2  11
BRANCH   7  18
ATOM     18  C   UNL     1      35.370 -21.169 -20.653  0.00  0.00    +0.047 C 
BRANCH  18  23
ATOM     19  S   UNL     1      33.536 -19.357 -21.640  0.00  0.00    -0.048 S 
ATOM     20  O   UNL     1      37.351 -18.973 -21.193  0.00  0.00    -0.274 OA
ATOM     21  O   UNL     1      33.684 -17.765 -23.727  0.00  0.00    -0.263 OA
ATOM     22  N   UNL     1      35.641 -18.245 -22.569  0.00  0.00    -0.246 N 
ATOM     23  C   UNL     1      35.082 -19.672 -20.735  0.00  0.00    +0.137 C 
ATOM     24  C   UNL     1      36.164 -18.942 -21.500  0.00  0.00    +0.239 C 
ATOM     25  C   UNL     1      34.296 -18.317 -22.825  0.00  0.00    +0.279 C 
ATOM     26  H   UNL     1      36.228 -17.703 -23.144  0.00  0.00    +0.158 HD
ENDBRANCH  18  23
ENDBRANCH   7  18
TORSDOF 4
ENDMDL
MODEL 4
REMARK VINA RESULT:     -11.3      4.471      9.598
REMARK  Name = 6918151
REMARK  4 active torsions:
REMARK  status: ('A' for Active; 'I' for Inactive)
REMARK    1  A    between atoms: C_2  and  C_11
REMARK    2  A    between atoms: C_7  and  C_18
REMARK    3  A    between atoms: C_11  and  C_12
REMARK    4  A    between atoms: C_18  and  C_23
REMARK                            x       y       z     vdW  Elec       q    Type
REMARK                         _______ _______ _______ _____ _____    ______ ____
ROOT
ATOM      1  O   UNL     1      34.180 -23.100 -16.945  0.00  0.00    -0.479 OA
ATOM      2  C   UNL     1      35.001 -22.977 -15.774  0.00  0.00    +0.171 C 
ATOM      3  C   UNL     1      36.486 -23.054 -16.126  0.00  0.00    +0.049 C 
ATOM      4  C   UNL     1      36.846 -21.879 -17.026  0.00  0.00    +0.033 C 
ATOM      5  C   UNL     1      35.819 -21.711 -18.108  0.00  0.00    +0.012 C 
ATOM      6  C   UNL     1      34.557 -22.312 -18.003  0.00  0.00    +0.134 C 
ATOM      7  C   UNL     1      35.161 -20.761 -20.243  0.00  0.00    -0.021 C 
ATOM      8  C   UNL     1      36.108 -20.923 -19.230  0.00  0.00    -0.006 C 
ATOM      9  C   UNL     1      33.616 -22.159 -19.023  0.00  0.00    +0.036 C 
ATOM     10  C   UNL     1      33.917 -21.381 -20.141  0.00  0.00    -0.001 C 
ENDROOT
BRANCH   2  11
ATOM     11  C   UNL     1      34.610 -24.108 -14.829  0.00  0.00    +0.070 C 
BRANCH  11  12
ATOM     12  C   UNL     1      35.674 -24.363 -13.796  0.00  0.00    -0.019 C 
ATOM     13  C   UNL     1      36.425 -25.530 -13.862  0.00  0.00    -0.004 C 
ATOM     14  C   UNL     1      35.891 -23.430 -12.791  0.00  0.00    -0.004 C 
ATOM     15  C   UNL     1      37.412 -25.767 -12.905  0.00  0.00    -0.000 C 
ATOM     16  C   UNL     1      36.878 -23.668 -11.835  0.00  0.00    -0.000 C 
ATOM     17  C   UNL     1      37.638 -24.836 -11.891  0.00  0.00    -0.000 C 
ENDBRANCH  11  12
ENDBRANCH   2  11
BRANCH   7  18
ATOM     18  C   UNL     1      35.481 -19.925 -21.435  0.00  0.00    +0.047 C 
BRANCH  18  23
ATOM     19  S   UNL     1      34.003 -18.791 -23.472  0.00  0.00    -0.048 S 
ATOM     20  O   UNL     1      35.318 -17.180 -20.220  0.00  0.00    -0.274 OA
ATOM     21  O   UNL     1      34.265 -16.460 -24.659  0.00  0.00    -0.263 OA
ATOM     22  N   UNL     1      34.835 -16.620 -22.412  0.00  0.00    -0.246 N 
ATOM     23  C   UNL     1      34.417 -18.864 -21.703  0.00  0.00    +0.137 C 
ATOM     24  C   UNL     1      34.910 -17.482 -21.337  0.00  0.00    +0.239 C 
ATOM     25  C   UNL     1      34.387 -17.090 -23.620  0.00  0.00    +0.279 C 
ATOM     26  H   UNL     1      35.101 -15.678 -22.313  0.00  0.00    +0.158 HD
ENDBRANCH  18  23
ENDBRANCH   7  18
TORSDOF 4
ENDMDL
MODEL 5
REMARK VINA RESULT:     -11.1      3.632      6.509
REMARK  Name = 6918151
REMARK  4 active torsions:
REMARK  status: ('A' for Active; 'I' for Inactive)
REMARK    1  A    between atoms: C_2  and  C_11
REMARK    2  A    between atoms: C_7  and  C_18
REMARK    3  A    between atoms: C_11  and  C_12
REMARK    4  A    between atoms: C_18  and  C_23
REMARK                            x       y       z     vdW  Elec       q    Type
REMARK                         _______ _______ _______ _____ _____    ______ ____
ROOT
ATOM      1  O   UNL     1      33.444 -14.572 -24.863  0.00  0.00    -0.479 OA
ATOM      2  C   UNL     1      33.856 -13.359 -24.216  0.00  0.00    +0.171 C 
ATOM      3  C   UNL     1      33.540 -13.391 -22.722  0.00  0.00    +0.049 C 
ATOM      4  C   UNL     1      34.333 -14.517 -22.068  0.00  0.00    +0.033 C 
ATOM      5  C   UNL     1      34.242 -15.770 -22.889  0.00  0.00    +0.012 C 
ATOM      6  C   UNL     1      33.820 -15.727 -24.225  0.00  0.00    +0.134 C 
ATOM      7  C   UNL     1      34.524 -18.173 -23.082  0.00  0.00    -0.021 C 
ATOM      8  C   UNL     1      34.606 -17.001 -22.328  0.00  0.00    -0.006 C 
ATOM      9  C   UNL     1      33.727 -16.902 -24.974  0.00  0.00    +0.036 C 
ATOM     10  C   UNL     1      34.081 -18.124 -24.402  0.00  0.00    -0.001 C 
ENDROOT
BRANCH   2  11
ATOM     11  C   UNL     1      33.122 -12.211 -24.899  0.00  0.00    +0.070 C 
BRANCH  11  12
ATOM     12  C   UNL     1      33.858 -10.908 -24.743  0.00  0.00    -0.019 C 
ATOM     13  C   UNL     1      33.382  -9.957 -23.850  0.00  0.00    -0.004 C 
ATOM     14  C   UNL     1      35.002 -10.674 -25.493  0.00  0.00    -0.004 C 
ATOM     15  C   UNL     1      34.064  -8.749 -23.705  0.00  0.00    -0.000 C 
ATOM     16  C   UNL     1      35.684  -9.466 -25.347  0.00  0.00    -0.000 C 
ATOM     17  C   UNL     1      35.215  -8.503 -24.454  0.00  0.00    -0.000 C 
ENDBRANCH  11  12
ENDBRANCH   2  11
BRANCH   7  18
ATOM     18  C   UNL     1      34.908 -19.479 -22.472  0.00  0.00    +0.047 C 
BRANCH  18  23
ATOM     19  S   UNL     1      35.831 -20.543 -20.099  0.00  0.00    -0.048 S 
ATOM     20  O   UNL     1      32.205 -19.797 -21.194  0.00  0.00    -0.274 OA
ATOM     21  O   UNL     1      34.921 -22.562 -18.681  0.00  0.00    -0.263 OA
ATOM     22  N   UNL     1      33.394 -21.276 -19.870  0.00  0.00    -0.246 N 
ATOM     23  C   UNL     1      34.599 -19.535 -20.978  0.00  0.00    +0.137 C 
ATOM     24  C   UNL     1      33.263 -20.192 -20.714  0.00  0.00    +0.239 C 
ATOM     25  C   UNL     1      34.640 -21.634 -19.424  0.00  0.00    +0.279 C 
ATOM     26  H   UNL     1      32.600 -21.787 -19.591  0.00  0.00    +0.158 HD
ENDBRANCH  18  23
ENDBRANCH   7  18
TORSDOF 4
ENDMDL
MODEL 6
REMARK VINA RESULT:     -11.1      4.235      9.269
REMARK  Name = 6918151
REMARK  4 active torsions:
REMARK  status: ('A' for Active; 'I' for Inactive)
REMARK    1  A    between atoms: C_2  and  C_11
REMARK    2  A    between atoms: C_7  and  C_18
REMARK    3  A    between atoms: C_11  and  C_12
REMARK    4  A    between atoms: C_18  and  C_23
REMARK                            x       y       z     vdW  Elec       q    Type
REMARK                         _______ _______ _______ _____ _____    ______ ____
ROOT
ATOM      1  O   UNL     1      35.009 -22.959 -16.764  0.00  0.00    -0.479 OA
ATOM      2  C   UNL     1      34.014 -23.862 -16.259  0.00  0.00    +0.171 C 
ATOM      3  C   UNL     1      32.642 -23.193 -16.189  0.00  0.00    +0.049 C 
ATOM      4  C   UNL     1      32.200 -22.814 -17.597  0.00  0.00    +0.033 C 
ATOM      5  C   UNL     1      33.326 -22.156 -18.342  0.00  0.00    +0.012 C 
ATOM      6  C   UNL     1      34.649 -22.274 -17.897  0.00  0.00    +0.134 C 
ATOM      7  C   UNL     1      34.100 -20.818 -20.213  0.00  0.00    -0.021 C 
ATOM      8  C   UNL     1      33.061 -21.435 -19.513  0.00  0.00    -0.006 C 
ATOM      9  C   UNL     1      35.686 -21.646 -18.592  0.00  0.00    +0.036 C 
ATOM     10  C   UNL     1      35.410 -20.921 -19.751  0.00  0.00    -0.001 C 
ENDROOT
BRANCH   2  11
ATOM     11  C   UNL     1      34.470 -24.306 -14.874  0.00  0.00    +0.070 C 
BRANCH  11  12
ATOM     12  C   UNL     1      35.865 -24.872 -14.902  0.00  0.00    -0.019 C 
ATOM     13  C   UNL     1      36.952 -24.017 -14.774  0.00  0.00    -0.004 C 
ATOM     14  C   UNL     1      36.045 -26.240 -15.055  0.00  0.00    -0.004 C 
ATOM     15  C   UNL     1      38.244 -24.541 -14.800  0.00  0.00    -0.000 C 
ATOM     16  C   UNL     1      37.338 -26.763 -15.080  0.00  0.00    -0.000 C 
ATOM     17  C   UNL     1      38.437 -25.914 -14.953  0.00  0.00    -0.000 C 
ENDBRANCH  11  12
ENDBRANCH   2  11
BRANCH   7  18
ATOM     18  C   UNL     1      33.806 -20.048 -21.456  0.00  0.00    +0.047 C 
BRANCH  18  23
ATOM     19  S   UNL     1      35.015 -17.577 -21.230  0.00  0.00    -0.048 S 
ATOM     20  O   UNL     1      34.931 -19.988 -24.243  0.00  0.00    -0.274 OA
ATOM     21  O   UNL     1      35.085 -15.565 -22.922  0.00  0.00    -0.263 OA
ATOM     22  N   UNL     1      35.024 -17.723 -23.781  0.00  0.00    -0.246 N 
ATOM     23  C   UNL     1      35.013 -19.250 -21.943  0.00  0.00    +0.137 C 
ATOM     24  C   UNL     1      34.982 -19.060 -23.442  0.00  0.00    +0.239 C 
ATOM     25  C   UNL     1      35.049 -16.779 -22.788  0.00  0.00    +0.279 C 
ATOM     26  H   UNL     1      35.034 -17.450 -24.727  0.00  0.00    +0.158 HD
ENDBRANCH  18  23
ENDBRANCH   7  18
TORSDOF 4
ENDMDL
MODEL 7
REMARK VINA RESULT:     -11.0      3.695      9.204
REMARK  Name = 6918151
REMARK  4 active torsions:
REMARK  status: ('A' for Active; 'I' for Inactive)
REMARK    1  A    between atoms: C_2  and  C_11
REMARK    2  A    between atoms: C_7  and  C_18
REMARK    3  A    between atoms: C_11  and  C_12
REMARK    4  A    between atoms: C_18  and  C_23
REMARK                            x       y       z     vdW  Elec       q    Type
REMARK                         _______ _______ _______ _____ _____    ______ ____
ROOT
ATOM      1  O   UNL     1      34.047 -23.168 -17.050  0.00  0.00    -0.479 OA
ATOM      2  C   UNL     1      34.743 -23.114 -15.796  0.00  0.00    +0.171 C 
ATOM      3  C   UNL     1      36.255 -23.203 -15.995  0.00  0.00    +0.049 C 
ATOM      4  C   UNL     1      36.724 -21.995 -16.798  0.00  0.00    +0.033 C 
ATOM      5  C   UNL     1      35.818 -21.760 -17.971  0.00  0.00    +0.012 C 
ATOM      6  C   UNL     1      34.544 -22.341 -18.025  0.00  0.00    +0.134 C 
ATOM      7  C   UNL     1      35.400 -20.702 -20.115  0.00  0.00    -0.021 C 
ATOM      8  C   UNL     1      36.233 -20.927 -19.019  0.00  0.00    -0.006 C 
ATOM      9  C   UNL     1      33.716 -22.124 -19.129  0.00  0.00    +0.036 C 
ATOM     10  C   UNL     1      34.144 -21.303 -20.172  0.00  0.00    -0.001 C 
ENDROOT
BRANCH   2  11
ATOM     11  C   UNL     1      34.240 -24.279 -14.951  0.00  0.00    +0.070 C 
BRANCH  11  12
ATOM     12  C   UNL     1      32.789 -24.115 -14.585  0.00  0.00    -0.019 C 
ATOM     13  C   UNL     1      32.170 -25.076 -13.796  0.00  0.00    -0.004 C 
ATOM     14  C   UNL     1      32.089 -23.007 -15.042  0.00  0.00    -0.004 C 
ATOM     15  C   UNL     1      30.826 -24.925 -13.457  0.00  0.00    -0.000 C 
ATOM     16  C   UNL     1      30.744 -22.857 -14.703  0.00  0.00    -0.000 C 
ATOM     17  C   UNL     1      30.113 -23.815 -13.911  0.00  0.00    -0.000 C 
ENDBRANCH  11  12
ENDBRANCH   2  11
BRANCH   7  18
ATOM     18  C   UNL     1      35.854 -19.819 -21.228  0.00  0.00    +0.047 C 
BRANCH  18  23
ATOM     19  S   UNL     1      34.651 -19.134 -23.616  0.00  0.00    -0.048 S 
ATOM     20  O   UNL     1      35.049 -17.045 -20.395  0.00  0.00    -0.274 OA
ATOM     21  O   UNL     1      34.789 -16.906 -25.004  0.00  0.00    -0.263 OA
ATOM     22  N   UNL     1      34.926 -16.770 -22.688  0.00  0.00    -0.246 N 
ATOM     23  C   UNL     1      34.717 -18.980 -21.805  0.00  0.00    +0.137 C 
ATOM     24  C   UNL     1      34.916 -17.508 -21.523  0.00  0.00    +0.239 C 
ATOM     25  C   UNL     1      34.798 -17.412 -23.892  0.00  0.00    +0.279 C 
ATOM     26  H   UNL     1      35.024 -15.791 -22.655  0.00  0.00    +0.158 HD
ENDBRANCH  18  23
ENDBRANCH   7  18
TORSDOF 4
ENDMDL
MODEL 8
REMARK VINA RESULT:     -11.0      3.550      9.059
REMARK  Name = 6918151
REMARK  4 active torsions:
REMARK  status: ('A' for Active; 'I' for Inactive)
REMARK    1  A    between atoms: C_2  and  C_11
REMARK    2  A    between atoms: C_7  and  C_18
REMARK    3  A    between atoms: C_11  and  C_12
REMARK    4  A    between atoms: C_18  and  C_23
REMARK                            x       y       z     vdW  Elec       q    Type
REMARK                         _______ _______ _______ _____ _____    ______ ____
ROOT
ATOM      1  O   UNL     1      32.826 -23.376 -16.415  0.00  0.00    -0.479 OA
ATOM      2  C   UNL     1      33.310 -23.322 -15.065  0.00  0.00    +0.171 C 
ATOM      3  C   UNL     1      34.773 -23.755 -14.982  0.00  0.00    +0.049 C 
ATOM      4  C   UNL     1      35.627 -22.780 -15.783  0.00  0.00    +0.033 C 
ATOM      5  C   UNL     1      34.995 -22.499 -17.115  0.00  0.00    +0.012 C 
ATOM      6  C   UNL     1      33.646 -22.797 -17.349  0.00  0.00    +0.134 C 
ATOM      7  C   UNL     1      35.173 -21.642 -19.379  0.00  0.00    -0.021 C 
ATOM      8  C   UNL     1      35.750 -21.906 -18.136  0.00  0.00    -0.006 C 
ATOM      9  C   UNL     1      33.074 -22.544 -18.598  0.00  0.00    +0.036 C 
ATOM     10  C   UNL     1      33.837 -21.963 -19.611  0.00  0.00    -0.001 C 
ENDROOT
BRANCH   2  11
ATOM     11  C   UNL     1      32.426 -24.242 -14.231  0.00  0.00    +0.070 C 
BRANCH  11  12
ATOM     12  C   UNL     1      30.982 -24.152 -14.645  0.00  0.00    -0.019 C 
ATOM     13  C   UNL     1      30.232 -25.315 -14.765  0.00  0.00    -0.004 C 
ATOM     14  C   UNL     1      30.420 -22.909 -14.902  0.00  0.00    -0.004 C 
ATOM     15  C   UNL     1      28.893 -25.232 -15.148  0.00  0.00    -0.000 C 
ATOM     16  C   UNL     1      29.081 -22.827 -15.285  0.00  0.00    -0.000 C 
ATOM     17  C   UNL     1      28.318 -23.988 -15.409  0.00  0.00    -0.000 C 
ENDBRANCH  11  12
ENDBRANCH   2  11
BRANCH   7  18
ATOM     18  C   UNL     1      35.987 -21.017 -20.461  0.00  0.00    +0.047 C 
BRANCH  18  23
ATOM     19  S   UNL     1      33.917 -19.474 -21.436  0.00  0.00    -0.048 S 
ATOM     20  O   UNL     1      37.721 -18.838 -21.597  0.00  0.00    -0.274 OA
ATOM     21  O   UNL     1      33.674 -18.225 -23.737  0.00  0.00    -0.263 OA
ATOM     22  N   UNL     1      35.796 -18.421 -22.810  0.00  0.00    -0.246 N 
ATOM     23  C   UNL     1      35.587 -19.567 -20.723  0.00  0.00    +0.137 C 
ATOM     24  C   UNL     1      36.504 -18.914 -21.734  0.00  0.00    +0.239 C 
ATOM     25  C   UNL     1      34.437 -18.597 -22.859  0.00  0.00    +0.279 C 
ATOM     26  H   UNL     1      36.262 -17.948 -23.537  0.00  0.00    +0.158 HD
ENDBRANCH  18  23
ENDBRANCH   7  18
TORSDOF 4
ENDMDL
MODEL 9
REMARK VINA RESULT:     -10.9      4.040      8.974
REMARK  Name = 6918151
REMARK  4 active torsions:
REMARK  status: ('A' for Active; 'I' for Inactive)
REMARK    1  A    between atoms: C_2  and  C_11
REMARK    2  A    between atoms: C_7  and  C_18
REMARK    3  A    between atoms: C_11  and  C_12
REMARK    4  A    between atoms: C_18  and  C_23
REMARK                            x       y       z     vdW  Elec       q    Type
REMARK                         _______ _______ _______ _____ _____    ______ ____
ROOT
ATOM      1  O   UNL     1      34.717 -22.388 -18.348  0.00  0.00    -0.479 OA
ATOM      2  C   UNL     1      33.403 -22.966 -18.313  0.00  0.00    +0.171 C 
ATOM      3  C   UNL     1      32.322 -21.887 -18.336  0.00  0.00    +0.049 C 
ATOM      4  C   UNL     1      32.416 -21.114 -19.646  0.00  0.00    +0.033 C 
ATOM      5  C   UNL     1      33.844 -20.761 -19.946  0.00  0.00    +0.012 C 
ATOM      6  C   UNL     1      34.899 -21.417 -19.299  0.00  0.00    +0.134 C 
ATOM      7  C   UNL     1      35.458 -19.444 -21.192  0.00  0.00    -0.021 C 
ATOM      8  C   UNL     1      34.135 -19.782 -20.905  0.00  0.00    -0.006 C 
ATOM      9  C   UNL     1      36.223 -21.069 -19.578  0.00  0.00    +0.036 C 
ATOM     10  C   UNL     1      36.501 -20.086 -20.526  0.00  0.00    -0.001 C 
ENDROOT
BRANCH   2  11
ATOM     11  C   UNL     1      33.310 -23.799 -17.041  0.00  0.00    +0.070 C 
BRANCH  11  12
ATOM     12  C   UNL     1      32.080 -23.460 -16.242  0.00  0.00    -0.019 C 
ATOM     13  C   UNL     1      30.830 -23.542 -16.843  0.00  0.00    -0.004 C 
ATOM     14  C   UNL     1      32.210 -23.070 -14.917  0.00  0.00    -0.004 C 
ATOM     15  C   UNL     1      29.690 -23.228 -16.104  0.00  0.00    -0.000 C 
ATOM     16  C   UNL     1      31.070 -22.756 -14.177  0.00  0.00    -0.000 C 
ATOM     17  C   UNL     1      29.810 -22.835 -14.771  0.00  0.00    -0.000 C 
ENDBRANCH  11  12
ENDBRANCH   2  11
BRANCH   7  18
ATOM     18  C   UNL     1      35.756 -18.396 -22.210  0.00  0.00    +0.047 C 
BRANCH  18  23
ATOM     19  S   UNL     1      34.147 -18.721 -24.428  0.00  0.00    -0.048 S 
ATOM     20  O   UNL     1      34.925 -15.515 -22.426  0.00  0.00    -0.274 OA
ATOM     21  O   UNL     1      33.923 -17.242 -26.590  0.00  0.00    -0.263 OA
ATOM     22  N   UNL     1      34.420 -16.186 -24.581  0.00  0.00    -0.246 N 
ATOM     23  C   UNL     1      34.491 -17.852 -22.869  0.00  0.00    +0.137 C 
ATOM     24  C   UNL     1      34.643 -16.393 -23.235  0.00  0.00    +0.239 C 
ATOM     25  C   UNL     1      34.141 -17.258 -25.389  0.00  0.00    +0.279 C 
ATOM     26  H   UNL     1      34.462 -15.277 -24.958  0.00  0.00    +0.158 HD
ENDBRANCH  18  23
ENDBRANCH   7  18
TORSDOF 4
ENDMDL
