MODEL 1
REMARK VINA RESULT:     -11.9      0.000      0.000
REMARK  Name = 16720766
REMARK  7 active torsions:
REMARK  status: ('A' for Active; 'I' for Inactive)
REMARK    1  A    between atoms: N_1  and  C_10
REMARK    2  A    between atoms: C_11  and  C_17
REMARK    3  A    between atoms: C_13  and  O_15
REMARK    4  A    between atoms: C_17  and  O_18
REMARK    5  A    between atoms: O_18  and  S_19
REMARK    6  A    between atoms: S_19  and  N_22
REMARK    7  A    between atoms: N_25  and  C_27
REMARK                            x       y       z     vdW  Elec       q    Type
REMARK                         _______ _______ _______ _____ _____    ______ ____
ROOT
ATOM      1  N   UNL     1      33.652 -21.672 -19.252  0.00  0.00    -0.276 N 
ATOM      2  N   UNL     1      35.941 -21.000 -19.605  0.00  0.00    -0.233 NA
ATOM      3  N   UNL     1      36.158 -19.159 -21.181  0.00  0.00    -0.233 NA
ATOM      4  C   UNL     1      34.619 -20.894 -19.829  0.00  0.00    +0.120 C 
ATOM      5  C   UNL     1      32.419 -21.285 -19.712  0.00  0.00    +0.062 C 
ATOM      6  C   UNL     1      33.992 -19.990 -20.678  0.00  0.00    +0.131 C 
ATOM      7  C   UNL     1      32.599 -20.244 -20.597  0.00  0.00    +0.004 C 
ATOM      8  C   UNL     1      34.811 -19.088 -21.378  0.00  0.00    +0.113 C 
ATOM      9  C   UNL     1      36.630 -20.092 -20.324  0.00  0.00    +0.252 C 
ATOM     10  N   UNL     1      34.274 -18.149 -22.245  0.00  0.00    -0.319 N 
ATOM     11  H   UNL     1      33.296 -18.128 -22.360  0.00  0.00    +0.148 HD
ENDROOT
BRANCH  10  12
ATOM     12  C   UNL     1      35.066 -17.200 -22.989  0.00  0.00    +0.093 C 
ATOM     13  C   UNL     1      34.963 -17.463 -24.503  0.00  0.00    +0.029 C 
ATOM     14  C   UNL     1      34.476 -15.826 -22.892  0.00  0.00    -0.008 C 
ATOM     15  C   UNL     1      33.766 -16.644 -25.019  0.00  0.00    +0.028 C 
ATOM     16  C   UNL     1      33.747 -15.509 -24.045  0.00  0.00    -0.025 C 
ATOM     17  C   UNL     1      34.563 -14.932 -21.836  0.00  0.00    -0.003 C 
ATOM     18  C   UNL     1      33.085 -14.299 -24.162  0.00  0.00    -0.005 C 
ATOM     19  C   UNL     1      33.909 -13.704 -21.951  0.00  0.00    -0.000 C 
ATOM     20  C   UNL     1      33.174 -13.390 -23.106  0.00  0.00    -0.000 C 
ENDBRANCH  10  12
BRANCH   1  21
ATOM     21  C   UNL     1      33.883 -22.750 -18.294  0.00  0.00    +0.081 C 
ATOM     22  C   UNL     1      32.809 -23.013 -16.113  0.00  0.00    +0.061 C 
ATOM     23  C   UNL     1      32.607 -23.283 -17.609  0.00  0.00    +0.025 C 
ATOM     24  C   UNL     1      34.325 -23.102 -15.934  0.00  0.00    +0.115 C 
ATOM     25  C   UNL     1      34.854 -22.362 -17.160  0.00  0.00    +0.049 C 
BRANCH  24  26
ATOM     26  O   UNL     1      34.761 -24.455 -15.963  0.00  0.00    -0.384 OA
ATOM     27  H   UNL     1      34.737 -24.822 -15.065  0.00  0.00    +0.210 HD
ENDBRANCH  24  26
BRANCH  22  28
ATOM     28  C   UNL     1      32.010 -23.963 -15.233  0.00  0.00    +0.176 C 
BRANCH  28  29
ATOM     29  O   UNL     1      30.813 -24.310 -15.908  0.00  0.00    -0.230 OA
BRANCH  29  30
ATOM     30  S   UNL     1      29.427 -23.505 -15.577  0.00  0.00    +0.045 S 
ATOM     31  O   UNL     1      28.354 -24.473 -15.431  0.00  0.00    -0.056 OA
ATOM     32  O   UNL     1      29.714 -22.572 -14.502  0.00  0.00    -0.056 OA
BRANCH  30  33
ATOM     33  N   UNL     1      29.128 -22.588 -16.994  0.00  0.00    -0.204 NA
ATOM     34  H   UNL     1      29.978 -22.544 -17.556  0.00  0.00    +0.144 HD
ATOM     35  H   UNL     1      28.843 -21.644 -16.734  0.00  0.00    +0.144 HD
ENDBRANCH  30  33
ENDBRANCH  29  30
ENDBRANCH  28  29
ENDBRANCH  22  28
ENDBRANCH   1  21
TORSDOF 7
ENDMDL
MODEL 2
REMARK VINA RESULT:     -11.0      2.208      2.647
REMARK  Name = 16720766
REMARK  7 active torsions:
REMARK  status: ('A' for Active; 'I' for Inactive)
REMARK    1  A    between atoms: N_1  and  C_10
REMARK    2  A    between atoms: C_11  and  C_17
REMARK    3  A    between atoms: C_13  and  O_15
REMARK    4  A    between atoms: C_17  and  O_18
REMARK    5  A    between atoms: O_18  and  S_19
REMARK    6  A    between atoms: S_19  and  N_22
REMARK    7  A    between atoms: N_25  and  C_27
REMARK                            x       y       z     vdW  Elec       q    Type
REMARK                         _______ _______ _______ _____ _____    ______ ____
ROOT
ATOM      1  N   UNL     1      34.445 -21.308 -19.557  0.00  0.00    -0.276 N 
ATOM      2  N   UNL     1      36.594 -20.443 -20.226  0.00  0.00    -0.233 NA
ATOM      3  N   UNL     1      36.430 -18.674 -21.890  0.00  0.00    -0.233 NA
ATOM      4  C   UNL     1      35.250 -20.474 -20.284  0.00  0.00    +0.120 C 
ATOM      5  C   UNL     1      33.132 -21.064 -19.871  0.00  0.00    +0.062 C 
ATOM      6  C   UNL     1      34.437 -19.678 -21.082  0.00  0.00    +0.131 C 
ATOM      7  C   UNL     1      33.097 -20.058 -20.813  0.00  0.00    +0.004 C 
ATOM      8  C   UNL     1      35.068 -18.741 -21.915  0.00  0.00    +0.113 C 
ATOM      9  C   UNL     1      37.094 -19.512 -21.063  0.00  0.00    +0.252 C 
ATOM     10  N   UNL     1      34.338 -17.903 -22.744  0.00  0.00    -0.319 N 
ATOM     11  H   UNL     1      33.356 -17.981 -22.734  0.00  0.00    +0.148 HD
ENDROOT
BRANCH  10  12
ATOM     12  C   UNL     1      34.933 -16.924 -23.620  0.00  0.00    +0.093 C 
ATOM     13  C   UNL     1      34.575 -17.210 -25.091  0.00  0.00    +0.029 C 
ATOM     14  C   UNL     1      34.298 -15.581 -23.423  0.00  0.00    -0.008 C 
ATOM     15  C   UNL     1      33.264 -16.460 -25.386  0.00  0.00    +0.028 C 
ATOM     16  C   UNL     1      33.359 -15.316 -24.428  0.00  0.00    -0.025 C 
ATOM     17  C   UNL     1      34.525 -14.671 -22.402  0.00  0.00    -0.003 C 
ATOM     18  C   UNL     1      32.624 -14.142 -24.428  0.00  0.00    -0.005 C 
ATOM     19  C   UNL     1      33.797 -13.480 -22.402  0.00  0.00    -0.000 C 
ATOM     20  C   UNL     1      32.852 -13.218 -23.407  0.00  0.00    -0.000 C 
ENDBRANCH  10  12
BRANCH   1  21
ATOM     21  C   UNL     1      34.899 -22.308 -18.595  0.00  0.00    +0.081 C 
ATOM     22  C   UNL     1      33.980 -22.700 -16.362  0.00  0.00    +0.061 C 
ATOM     23  C   UNL     1      33.764 -23.036 -17.843  0.00  0.00    +0.025 C 
ATOM     24  C   UNL     1      35.496 -22.524 -16.253  0.00  0.00    +0.115 C 
ATOM     25  C   UNL     1      35.836 -21.733 -17.513  0.00  0.00    +0.049 C 
BRANCH  24  26
ATOM     26  O   UNL     1      36.157 -23.783 -16.281  0.00  0.00    -0.384 OA
ATOM     27  H   UNL     1      35.813 -24.313 -17.018  0.00  0.00    +0.210 HD
ENDBRANCH  24  26
BRANCH  22  28
ATOM     28  C   UNL     1      33.395 -23.753 -15.433  0.00  0.00    +0.176 C 
BRANCH  28  29
ATOM     29  O   UNL     1      33.683 -23.388 -14.093  0.00  0.00    -0.230 OA
BRANCH  29  30
ATOM     30  S   UNL     1      34.787 -24.239 -13.236  0.00  0.00    +0.045 S 
ATOM     31  O   UNL     1      35.993 -23.439 -13.113  0.00  0.00    -0.056 OA
ATOM     32  O   UNL     1      34.122 -24.736 -12.045  0.00  0.00    -0.056 OA
BRANCH  30  33
ATOM     33  N   UNL     1      35.142 -25.587 -14.234  0.00  0.00    -0.204 NA
ATOM     34  H   UNL     1      34.843 -26.443 -13.768  0.00  0.00    +0.144 HD
ATOM     35  H   UNL     1      36.146 -25.627 -14.407  0.00  0.00    +0.144 HD
ENDBRANCH  30  33
ENDBRANCH  29  30
ENDBRANCH  28  29
ENDBRANCH  22  28
ENDBRANCH   1  21
TORSDOF 7
ENDMDL
MODEL 3
REMARK VINA RESULT:     -10.8      2.850      3.814
REMARK  Name = 16720766
REMARK  7 active torsions:
REMARK  status: ('A' for Active; 'I' for Inactive)
REMARK    1  A    between atoms: N_1  and  C_10
REMARK    2  A    between atoms: C_11  and  C_17
REMARK    3  A    between atoms: C_13  and  O_15
REMARK    4  A    between atoms: C_17  and  O_18
REMARK    5  A    between atoms: O_18  and  S_19
REMARK    6  A    between atoms: S_19  and  N_22
REMARK    7  A    between atoms: N_25  and  C_27
REMARK                            x       y       z     vdW  Elec       q    Type
REMARK                         _______ _______ _______ _____ _____    ______ ____
ROOT
ATOM      1  N   UNL     1      33.437 -22.415 -17.791  0.00  0.00    -0.276 N 
ATOM      2  N   UNL     1      35.777 -22.003 -18.207  0.00  0.00    -0.233 NA
ATOM      3  N   UNL     1      36.166 -20.672 -20.208  0.00  0.00    -0.233 NA
ATOM      4  C   UNL     1      34.472 -21.882 -18.512  0.00  0.00    +0.120 C 
ATOM      5  C   UNL     1      32.248 -22.093 -18.393  0.00  0.00    +0.062 C 
ATOM      6  C   UNL     1      33.934 -21.204 -19.599  0.00  0.00    +0.131 C 
ATOM      7  C   UNL     1      32.525 -21.342 -19.516  0.00  0.00    +0.004 C 
ATOM      8  C   UNL     1      34.833 -20.576 -20.477  0.00  0.00    +0.113 C 
ATOM      9  C   UNL     1      36.547 -21.366 -19.112  0.00  0.00    +0.252 C 
ATOM     10  N   UNL     1      34.387 -19.875 -21.587  0.00  0.00    -0.319 N 
ATOM     11  H   UNL     1      33.417 -19.828 -21.747  0.00  0.00    +0.148 HD
ENDROOT
BRANCH  10  12
ATOM     12  C   UNL     1      35.264 -19.212 -22.522  0.00  0.00    +0.093 C 
ATOM     13  C   UNL     1      35.068 -19.762 -23.947  0.00  0.00    +0.029 C 
ATOM     14  C   UNL     1      34.859 -17.781 -22.704  0.00  0.00    -0.008 C 
ATOM     15  C   UNL     1      33.966 -18.913 -24.606  0.00  0.00    +0.028 C 
ATOM     16  C   UNL     1      34.131 -17.611 -23.888  0.00  0.00    -0.025 C 
ATOM     17  C   UNL     1      35.103 -16.711 -21.857  0.00  0.00    -0.003 C 
ATOM     18  C   UNL     1      33.626 -16.372 -24.245  0.00  0.00    -0.005 C 
ATOM     19  C   UNL     1      34.607 -15.456 -22.215  0.00  0.00    -0.000 C 
ATOM     20  C   UNL     1      33.873 -15.288 -23.401  0.00  0.00    -0.000 C 
ENDBRANCH  10  12
BRANCH   1  21
ATOM     21  C   UNL     1      33.566 -23.206 -16.570  0.00  0.00    +0.081 C 
ATOM     22  C   UNL     1      35.598 -23.511 -15.243  0.00  0.00    +0.061 C 
ATOM     23  C   UNL     1      34.425 -22.549 -15.468  0.00  0.00    +0.025 C 
ATOM     24  C   UNL     1      35.002 -24.883 -15.564  0.00  0.00    +0.115 C 
ATOM     25  C   UNL     1      34.168 -24.606 -16.811  0.00  0.00    +0.049 C 
BRANCH  24  26
ATOM     26  O   UNL     1      34.160 -25.330 -14.509  0.00  0.00    -0.384 OA
ATOM     27  H   UNL     1      34.406 -26.235 -14.260  0.00  0.00    +0.210 HD
ENDBRANCH  24  26
BRANCH  22  28
ATOM     28  C   UNL     1      36.195 -23.389 -13.850  0.00  0.00    +0.176 C 
BRANCH  28  29
ATOM     29  O   UNL     1      36.612 -24.673 -13.419  0.00  0.00    -0.230 OA
BRANCH  29  30
ATOM     30  S   UNL     1      36.424 -25.109 -11.852  0.00  0.00    +0.045 S 
ATOM     31  O   UNL     1      36.794 -26.506 -11.714  0.00  0.00    -0.056 OA
ATOM     32  O   UNL     1      37.080 -24.100 -11.040  0.00  0.00    -0.056 OA
BRANCH  30  33
ATOM     33  N   UNL     1      34.736 -24.976 -11.582  0.00  0.00    -0.204 NA
ATOM     34  H   UNL     1      34.454 -23.999 -11.668  0.00  0.00    +0.144 HD
ATOM     35  H   UNL     1      34.515 -25.312 -10.646  0.00  0.00    +0.144 HD
ENDBRANCH  30  33
ENDBRANCH  29  30
ENDBRANCH  28  29
ENDBRANCH  22  28
ENDBRANCH   1  21
TORSDOF 7
ENDMDL
MODEL 4
REMARK VINA RESULT:     -10.6      5.456     10.135
REMARK  Name = 16720766
REMARK  7 active torsions:
REMARK  status: ('A' for Active; 'I' for Inactive)
REMARK    1  A    between atoms: N_1  and  C_10
REMARK    2  A    between atoms: C_11  and  C_17
REMARK    3  A    between atoms: C_13  and  O_15
REMARK    4  A    between atoms: C_17  and  O_18
REMARK    5  A    between atoms: O_18  and  S_19
REMARK    6  A    between atoms: S_19  and  N_22
REMARK    7  A    between atoms: N_25  and  C_27
REMARK                            x       y       z     vdW  Elec       q    Type
REMARK                         _______ _______ _______ _____ _____    ______ ____
ROOT
ATOM      1  N   UNL     1      35.212 -20.953 -20.067  0.00  0.00    -0.276 N 
ATOM      2  N   UNL     1      33.260 -22.186 -19.374  0.00  0.00    -0.233 NA
ATOM      3  N   UNL     1      33.551 -23.296 -17.227  0.00  0.00    -0.233 NA
ATOM      4  C   UNL     1      34.519 -21.749 -19.196  0.00  0.00    +0.120 C 
ATOM      5  C   UNL     1      36.464 -20.706 -19.565  0.00  0.00    +0.062 C 
ATOM      6  C   UNL     1      35.346 -22.020 -18.112  0.00  0.00    +0.131 C 
ATOM      7  C   UNL     1      36.575 -21.355 -18.353  0.00  0.00    +0.004 C 
ATOM      8  C   UNL     1      34.824 -22.830 -17.089  0.00  0.00    +0.113 C 
ATOM      9  C   UNL     1      32.861 -22.952 -18.338  0.00  0.00    +0.252 C 
ATOM     10  N   UNL     1      35.575 -23.152 -15.969  0.00  0.00    -0.319 N 
ATOM     11  H   UNL     1      36.491 -22.795 -15.906  0.00  0.00    +0.148 HD
ENDROOT
BRANCH  10  12
ATOM     12  C   UNL     1      35.091 -23.978 -14.890  0.00  0.00    +0.093 C 
ATOM     13  C   UNL     1      35.050 -25.460 -15.308  0.00  0.00    +0.029 C 
ATOM     14  C   UNL     1      36.084 -24.020 -13.769  0.00  0.00    -0.008 C 
ATOM     15  C   UNL     1      36.422 -26.063 -14.957  0.00  0.00    +0.028 C 
ATOM     16  C   UNL     1      36.832 -25.204 -13.802  0.00  0.00    -0.025 C 
ATOM     17  C   UNL     1      36.320 -23.055 -12.802  0.00  0.00    -0.003 C 
ATOM     18  C   UNL     1      37.833 -25.443 -12.877  0.00  0.00    -0.005 C 
ATOM     19  C   UNL     1      37.320 -23.295 -11.857  0.00  0.00    -0.000 C 
ATOM     20  C   UNL     1      38.072 -24.480 -11.895  0.00  0.00    -0.000 C 
ENDBRANCH  10  12
BRANCH   1  21
ATOM     21  C   UNL     1      34.708 -20.439 -21.338  0.00  0.00    +0.081 C 
ATOM     22  C   UNL     1      34.754 -18.110 -22.085  0.00  0.00    +0.061 C 
ATOM     23  C   UNL     1      35.612 -19.379 -22.004  0.00  0.00    +0.025 C 
ATOM     24  C   UNL     1      33.330 -18.650 -22.226  0.00  0.00    +0.115 C 
ATOM     25  C   UNL     1      33.306 -19.805 -21.229  0.00  0.00    +0.049 C 
BRANCH  24  26
ATOM     26  O   UNL     1      33.100 -19.143 -23.540  0.00  0.00    -0.384 OA
ATOM     27  H   UNL     1      33.604 -19.962 -23.670  0.00  0.00    +0.210 HD
ENDBRANCH  24  26
BRANCH  22  28
ATOM     28  C   UNL     1      35.192 -17.178 -23.205  0.00  0.00    +0.176 C 
BRANCH  28  29
ATOM     29  O   UNL     1      34.105 -16.335 -23.547  0.00  0.00    -0.230 OA
BRANCH  29  30
ATOM     30  S   UNL     1      33.726 -16.091 -25.121  0.00  0.00    +0.045 S 
ATOM     31  O   UNL     1      33.439 -14.680 -25.312  0.00  0.00    -0.056 OA
ATOM     32  O   UNL     1      34.752 -16.737 -25.919  0.00  0.00    -0.056 OA
BRANCH  30  33
ATOM     33  N   UNL     1      32.269 -16.966 -25.340  0.00  0.00    -0.204 NA
ATOM     34  H   UNL     1      31.635 -16.428 -25.931  0.00  0.00    +0.144 HD
ATOM     35  H   UNL     1      31.831 -17.129 -24.434  0.00  0.00    +0.144 HD
ENDBRANCH  30  33
ENDBRANCH  29  30
ENDBRANCH  28  29
ENDBRANCH  22  28
ENDBRANCH   1  21
TORSDOF 7
ENDMDL
MODEL 5
REMARK VINA RESULT:     -10.6      5.439      9.701
REMARK  Name = 16720766
REMARK  7 active torsions:
REMARK  status: ('A' for Active; 'I' for Inactive)
REMARK    1  A    between atoms: N_1  and  C_10
REMARK    2  A    between atoms: C_11  and  C_17
REMARK    3  A    between atoms: C_13  and  O_15
REMARK    4  A    between atoms: C_17  and  O_18
REMARK    5  A    between atoms: O_18  and  S_19
REMARK    6  A    between atoms: S_19  and  N_22
REMARK    7  A    between atoms: N_25  and  C_27
REMARK                            x       y       z     vdW  Elec       q    Type
REMARK                         _______ _______ _______ _____ _____    ______ ____
ROOT
ATOM      1  N   UNL     1      33.905 -19.689 -20.996  0.00  0.00    -0.276 N 
ATOM      2  N   UNL     1      35.748 -20.719 -19.832  0.00  0.00    -0.233 NA
ATOM      3  N   UNL     1      35.037 -22.431 -18.254  0.00  0.00    -0.233 NA
ATOM      4  C   UNL     1      34.438 -20.573 -20.097  0.00  0.00    +0.120 C 
ATOM      5  C   UNL     1      32.539 -19.813 -21.005  0.00  0.00    +0.062 C 
ATOM      6  C   UNL     1      33.391 -21.278 -19.516  0.00  0.00    +0.131 C 
ATOM      7  C   UNL     1      32.192 -20.791 -20.097  0.00  0.00    +0.004 C 
ATOM      8  C   UNL     1      33.720 -22.247 -18.554  0.00  0.00    +0.113 C 
ATOM      9  C   UNL     1      35.951 -21.671 -18.899  0.00  0.00    +0.252 C 
ATOM     10  N   UNL     1      32.742 -23.000 -17.924  0.00  0.00    -0.319 N 
ATOM     11  H   UNL     1      31.802 -22.839 -18.168  0.00  0.00    +0.148 HD
ENDROOT
BRANCH  10  12
ATOM     12  C   UNL     1      33.023 -24.007 -16.929  0.00  0.00    +0.093 C 
ATOM     13  C   UNL     1      34.304 -23.666 -16.145  0.00  0.00    +0.029 C 
ATOM     14  C   UNL     1      31.996 -23.975 -15.838  0.00  0.00    -0.008 C 
ATOM     15  C   UNL     1      33.876 -22.808 -14.941  0.00  0.00    +0.028 C 
ATOM     16  C   UNL     1      32.483 -23.302 -14.710  0.00  0.00    -0.025 C 
ATOM     17  C   UNL     1      30.709 -24.487 -15.862  0.00  0.00    -0.003 C 
ATOM     18  C   UNL     1      31.691 -23.122 -13.588  0.00  0.00    -0.005 C 
ATOM     19  C   UNL     1      29.908 -24.321 -14.730  0.00  0.00    -0.000 C 
ATOM     20  C   UNL     1      30.396 -23.642 -13.602  0.00  0.00    -0.000 C 
ENDBRANCH  10  12
BRANCH   1  21
ATOM     21  C   UNL     1      34.663 -18.753 -21.823  0.00  0.00    +0.081 C 
ATOM     22  C   UNL     1      34.181 -16.376 -22.141  0.00  0.00    +0.061 C 
ATOM     23  C   UNL     1      34.870 -17.361 -21.188  0.00  0.00    +0.025 C 
ATOM     24  C   UNL     1      34.325 -17.042 -23.510  0.00  0.00    +0.115 C 
ATOM     25  C   UNL     1      34.026 -18.507 -23.206  0.00  0.00    +0.049 C 
BRANCH  24  26
ATOM     26  O   UNL     1      35.654 -16.912 -24.001  0.00  0.00    -0.384 OA
ATOM     27  H   UNL     1      36.251 -16.703 -23.265  0.00  0.00    +0.210 HD
ENDBRANCH  24  26
BRANCH  22  28
ATOM     28  C   UNL     1      34.763 -14.973 -22.054  0.00  0.00    +0.176 C 
BRANCH  28  29
ATOM     29  O   UNL     1      34.641 -14.350 -23.321  0.00  0.00    -0.230 OA
BRANCH  29  30
ATOM     30  S   UNL     1      33.469 -13.236 -23.573  0.00  0.00    +0.045 S 
ATOM     31  O   UNL     1      32.606 -13.202 -22.405  0.00  0.00    -0.056 OA
ATOM     32  O   UNL     1      34.116 -12.021 -24.032  0.00  0.00    -0.056 OA
BRANCH  30  33
ATOM     33  N   UNL     1      32.565 -13.871 -24.884  0.00  0.00    -0.204 NA
ATOM     34  H   UNL     1      33.037 -14.695 -25.255  0.00  0.00    +0.144 HD
ATOM     35  H   UNL     1      32.488 -13.165 -25.616  0.00  0.00    +0.144 HD
ENDBRANCH  30  33
ENDBRANCH  29  30
ENDBRANCH  28  29
ENDBRANCH  22  28
ENDBRANCH   1  21
TORSDOF 7
ENDMDL
MODEL 6
REMARK VINA RESULT:     -10.6      6.400      9.930
REMARK  Name = 16720766
REMARK  7 active torsions:
REMARK  status: ('A' for Active; 'I' for Inactive)
REMARK    1  A    between atoms: N_1  and  C_10
REMARK    2  A    between atoms: C_11  and  C_17
REMARK    3  A    between atoms: C_13  and  O_15
REMARK    4  A    between atoms: C_17  and  O_18
REMARK    5  A    between atoms: O_18  and  S_19
REMARK    6  A    between atoms: S_19  and  N_22
REMARK    7  A    between atoms: N_25  and  C_27
REMARK                            x       y       z     vdW  Elec       q    Type
REMARK                         _______ _______ _______ _____ _____    ______ ____
ROOT
ATOM      1  N   UNL     1      33.054 -14.313 -25.877  0.00  0.00    -0.276 N 
ATOM      2  N   UNL     1      32.706 -13.057 -23.849  0.00  0.00    -0.233 NA
ATOM      3  N   UNL     1      32.941 -10.655 -24.167  0.00  0.00    -0.233 NA
ATOM      4  C   UNL     1      32.981 -13.148 -25.162  0.00  0.00    +0.120 C 
ATOM      5  C   UNL     1      33.355 -14.028 -27.185  0.00  0.00    +0.062 C 
ATOM      6  C   UNL     1      33.241 -12.094 -26.030  0.00  0.00    +0.131 C 
ATOM      7  C   UNL     1      33.476 -12.661 -27.309  0.00  0.00    +0.004 C 
ATOM      8  C   UNL     1      33.216 -10.796 -25.494  0.00  0.00    +0.113 C 
ATOM      9  C   UNL     1      32.708 -11.772 -23.441  0.00  0.00    +0.252 C 
ATOM     10  N   UNL     1      33.461  -9.684 -26.285  0.00  0.00    -0.319 N 
ATOM     11  H   UNL     1      33.655  -9.826 -27.239  0.00  0.00    +0.148 HD
ENDROOT
BRANCH  10  12
ATOM     12  C   UNL     1      33.449  -8.329 -25.788  0.00  0.00    +0.093 C 
ATOM     13  C   UNL     1      34.865  -7.725 -25.801  0.00  0.00    +0.029 C 
ATOM     14  C   UNL     1      32.737  -7.421 -26.745  0.00  0.00    -0.008 C 
ATOM     15  C   UNL     1      35.057  -7.062 -27.176  0.00  0.00    +0.028 C 
ATOM     16  C   UNL     1      33.649  -6.698 -27.525  0.00  0.00    -0.025 C 
ATOM     17  C   UNL     1      31.371  -7.272 -26.923  0.00  0.00    -0.003 C 
ATOM     18  C   UNL     1      33.213  -5.819 -28.502  0.00  0.00    -0.005 C 
ATOM     19  C   UNL     1      30.924  -6.377 -27.898  0.00  0.00    -0.000 C 
ATOM     20  C   UNL     1      31.839  -5.657 -28.682  0.00  0.00    -0.000 C 
ENDBRANCH  10  12
BRANCH   1  21
ATOM     21  C   UNL     1      32.848 -15.656 -25.343  0.00  0.00    +0.081 C 
ATOM     22  C   UNL     1      34.572 -17.347 -24.955  0.00  0.00    +0.061 C 
ATOM     23  C   UNL     1      33.915 -16.112 -24.325  0.00  0.00    +0.025 C 
ATOM     24  C   UNL     1      33.447 -17.965 -25.787  0.00  0.00    +0.115 C 
ATOM     25  C   UNL     1      32.796 -16.746 -26.433  0.00  0.00    +0.049 C 
BRANCH  24  26
ATOM     26  O   UNL     1      32.505 -18.630 -24.954  0.00  0.00    -0.384 OA
ATOM     27  H   UNL     1      32.668 -19.587 -24.982  0.00  0.00    +0.210 HD
ENDBRANCH  24  26
BRANCH  22  28
ATOM     28  C   UNL     1      35.179 -18.280 -23.918  0.00  0.00    +0.176 C 
BRANCH  28  29
ATOM     29  O   UNL     1      34.487 -18.111 -22.692  0.00  0.00    -0.230 OA
BRANCH  29  30
ATOM     30  S   UNL     1      35.278 -18.315 -21.274  0.00  0.00    +0.045 S 
ATOM     31  O   UNL     1      36.650 -18.692 -21.561  0.00  0.00    -0.056 OA
ATOM     32  O   UNL     1      35.002 -17.150 -20.452  0.00  0.00    -0.056 OA
BRANCH  30  33
ATOM     33  N   UNL     1      34.497 -19.658 -20.550  0.00  0.00    -0.204 NA
ATOM     34  H   UNL     1      33.871 -20.094 -21.228  0.00  0.00    +0.144 HD
ATOM     35  H   UNL     1      33.958 -19.343 -19.744  0.00  0.00    +0.144 HD
ENDBRANCH  30  33
ENDBRANCH  29  30
ENDBRANCH  28  29
ENDBRANCH  22  28
ENDBRANCH   1  21
TORSDOF 7
ENDMDL
MODEL 7
REMARK VINA RESULT:     -10.5      6.998     10.637
REMARK  Name = 16720766
REMARK  7 active torsions:
REMARK  status: ('A' for Active; 'I' for Inactive)
REMARK    1  A    between atoms: N_1  and  C_10
REMARK    2  A    between atoms: C_11  and  C_17
REMARK    3  A    between atoms: C_13  and  O_15
REMARK    4  A    between atoms: C_17  and  O_18
REMARK    5  A    between atoms: O_18  and  S_19
REMARK    6  A    between atoms: S_19  and  N_22
REMARK    7  A    between atoms: N_25  and  C_27
REMARK                            x       y       z     vdW  Elec       q    Type
REMARK                         _______ _______ _______ _____ _____    ______ ____
ROOT
ATOM      1  N   UNL     1      34.534 -15.738 -22.515  0.00  0.00    -0.276 N 
ATOM      2  N   UNL     1      34.747 -17.668 -23.943  0.00  0.00    -0.233 NA
ATOM      3  N   UNL     1      35.035 -19.742 -22.701  0.00  0.00    -0.233 NA
ATOM      4  C   UNL     1      34.698 -17.078 -22.735  0.00  0.00    +0.120 C 
ATOM      5  C   UNL     1      34.533 -15.493 -21.165  0.00  0.00    +0.062 C 
ATOM      6  C   UNL     1      34.805 -17.707 -21.501  0.00  0.00    +0.131 C 
ATOM      7  C   UNL     1      34.698 -16.696 -20.512  0.00  0.00    +0.004 C 
ATOM      8  C   UNL     1      34.980 -19.101 -21.499  0.00  0.00    +0.113 C 
ATOM      9  C   UNL     1      34.918 -19.000 -23.826  0.00  0.00    +0.252 C 
ATOM     10  N   UNL     1      35.094 -19.813 -20.316  0.00  0.00    -0.319 N 
ATOM     11  H   UNL     1      35.049 -19.315 -19.468  0.00  0.00    +0.148 HD
ENDROOT
BRANCH  10  12
ATOM     12  C   UNL     1      35.276 -21.243 -20.255  0.00  0.00    +0.093 C 
ATOM     13  C   UNL     1      36.694 -21.598 -19.769  0.00  0.00    +0.029 C 
ATOM     14  C   UNL     1      34.438 -21.838 -19.164  0.00  0.00    -0.008 C 
ATOM     15  C   UNL     1      36.631 -21.690 -18.235  0.00  0.00    +0.028 C 
ATOM     16  C   UNL     1      35.208 -22.098 -18.023  0.00  0.00    -0.025 C 
ATOM     17  C   UNL     1      33.078 -22.103 -19.182  0.00  0.00    -0.003 C 
ATOM     18  C   UNL     1      34.633 -22.620 -16.877  0.00  0.00    -0.005 C 
ATOM     19  C   UNL     1      32.492 -22.641 -18.034  0.00  0.00    -0.000 C 
ATOM     20  C   UNL     1      33.265 -22.897 -16.889  0.00  0.00    -0.000 C 
ENDBRANCH  10  12
BRANCH   1  21
ATOM     21  C   UNL     1      34.384 -14.715 -23.547  0.00  0.00    +0.081 C 
ATOM     22  C   UNL     1      32.805 -12.847 -23.523  0.00  0.00    +0.061 C 
ATOM     23  C   UNL     1      34.181 -13.283 -23.005  0.00  0.00    +0.025 C 
ATOM     24  C   UNL     1      32.667 -13.600 -24.848  0.00  0.00    +0.115 C 
ATOM     25  C   UNL     1      33.208 -14.985 -24.508  0.00  0.00    +0.049 C 
BRANCH  24  26
ATOM     26  O   UNL     1      33.470 -13.002 -25.858  0.00  0.00    -0.384 OA
ATOM     27  H   UNL     1      33.006 -12.234 -26.227  0.00  0.00    +0.210 HD
ENDBRANCH  24  26
BRANCH  22  28
ATOM     28  C   UNL     1      32.674 -11.336 -23.636  0.00  0.00    +0.176 C 
BRANCH  28  29
ATOM     29  O   UNL     1      33.971 -10.764 -23.619  0.00  0.00    -0.230 OA
BRANCH  29  30
ATOM     30  S   UNL     1      34.429  -9.745 -24.814  0.00  0.00    +0.045 S 
ATOM     31  O   UNL     1      35.271 -10.475 -25.746  0.00  0.00    -0.056 OA
ATOM     32  O   UNL     1      33.235  -9.070 -25.291  0.00  0.00    -0.056 OA
BRANCH  30  33
ATOM     33  N   UNL     1      35.402  -8.579 -24.019  0.00  0.00    -0.204 NA
ATOM     34  H   UNL     1      36.303  -8.994 -23.781  0.00  0.00    +0.144 HD
ATOM     35  H   UNL     1      34.935  -8.270 -23.167  0.00  0.00    +0.144 HD
ENDBRANCH  30  33
ENDBRANCH  29  30
ENDBRANCH  28  29
ENDBRANCH  22  28
ENDBRANCH   1  21
TORSDOF 7
ENDMDL
MODEL 8
REMARK VINA RESULT:     -10.4      9.426     12.731
REMARK  Name = 16720766
REMARK  7 active torsions:
REMARK  status: ('A' for Active; 'I' for Inactive)
REMARK    1  A    between atoms: N_1  and  C_10
REMARK    2  A    between atoms: C_11  and  C_17
REMARK    3  A    between atoms: C_13  and  O_15
REMARK    4  A    between atoms: C_17  and  O_18
REMARK    5  A    between atoms: O_18  and  S_19
REMARK    6  A    between atoms: S_19  and  N_22
REMARK    7  A    between atoms: N_25  and  C_27
REMARK                            x       y       z     vdW  Elec       q    Type
REMARK                         _______ _______ _______ _____ _____    ______ ____
ROOT
ATOM      1  N   UNL     1      31.671 -10.763 -21.790  0.00  0.00    -0.276 N 
ATOM      2  N   UNL     1      32.918 -10.476 -23.834  0.00  0.00    -0.233 NA
ATOM      3  N   UNL     1      33.780 -12.572 -24.723  0.00  0.00    -0.233 NA
ATOM      4  C   UNL     1      32.404 -11.232 -22.847  0.00  0.00    +0.120 C 
ATOM      5  C   UNL     1      31.312 -11.812 -20.982  0.00  0.00    +0.062 C 
ATOM      6  C   UNL     1      32.519 -12.610 -22.713  0.00  0.00    +0.131 C 
ATOM      7  C   UNL     1      31.824 -12.969 -21.529  0.00  0.00    +0.004 C 
ATOM      8  C   UNL     1      33.241 -13.297 -23.702  0.00  0.00    +0.113 C 
ATOM      9  C   UNL     1      33.589 -11.233 -24.725  0.00  0.00    +0.252 C 
ATOM     10  N   UNL     1      33.406 -14.672 -23.652  0.00  0.00    -0.319 N 
ATOM     11  H   UNL     1      33.001 -15.161 -22.899  0.00  0.00    +0.148 HD
ENDROOT
BRANCH  10  12
ATOM     12  C   UNL     1      34.138 -15.429 -24.639  0.00  0.00    +0.093 C 
ATOM     13  C   UNL     1      34.760 -16.692 -24.016  0.00  0.00    +0.029 C 
ATOM     14  C   UNL     1      33.203 -16.031 -25.644  0.00  0.00    -0.008 C 
ATOM     15  C   UNL     1      33.717 -17.815 -24.144  0.00  0.00    +0.028 C 
ATOM     16  C   UNL     1      32.972 -17.384 -25.368  0.00  0.00    -0.025 C 
ATOM     17  C   UNL     1      32.584 -15.405 -26.715  0.00  0.00    -0.003 C 
ATOM     18  C   UNL     1      32.112 -18.136 -26.150  0.00  0.00    -0.005 C 
ATOM     19  C   UNL     1      31.725 -16.160 -27.516  0.00  0.00    -0.000 C 
ATOM     20  C   UNL     1      31.489 -17.516 -27.235  0.00  0.00    -0.000 C 
ENDBRANCH  10  12
BRANCH   1  21
ATOM     21  C   UNL     1      31.318  -9.366 -21.549  0.00  0.00    +0.081 C 
ATOM     22  C   UNL     1      32.209  -7.418 -22.728  0.00  0.00    +0.061 C 
ATOM     23  C   UNL     1      31.146  -8.519 -22.828  0.00  0.00    +0.025 C 
ATOM     24  C   UNL     1      32.358  -7.198 -21.222  0.00  0.00    +0.115 C 
ATOM     25  C   UNL     1      32.344  -8.621 -20.670  0.00  0.00    +0.049 C 
BRANCH  24  26
ATOM     26  O   UNL     1      31.252  -6.469 -20.703  0.00  0.00    -0.384 OA
ATOM     27  H   UNL     1      31.243  -5.579 -21.089  0.00  0.00    +0.210 HD
ENDBRANCH  24  26
BRANCH  22  28
ATOM     28  C   UNL     1      31.836  -6.171 -23.516  0.00  0.00    +0.176 C 
BRANCH  28  29
ATOM     29  O   UNL     1      30.480  -5.854 -23.252  0.00  0.00    -0.230 OA
BRANCH  29  30
ATOM     30  S   UNL     1      30.069  -4.330 -22.820  0.00  0.00    +0.045 S 
ATOM     31  O   UNL     1      29.617  -3.621 -24.004  0.00  0.00    -0.056 OA
ATOM     32  O   UNL     1      29.204  -4.428 -21.658  0.00  0.00    -0.056 OA
BRANCH  30  33
ATOM     33  N   UNL     1      31.547  -3.628 -22.310  0.00  0.00    -0.204 NA
ATOM     34  H   UNL     1      32.262  -3.787 -23.019  0.00  0.00    +0.144 HD
ATOM     35  H   UNL     1      31.840  -4.053 -21.431  0.00  0.00    +0.144 HD
ENDBRANCH  30  33
ENDBRANCH  29  30
ENDBRANCH  28  29
ENDBRANCH  22  28
ENDBRANCH   1  21
TORSDOF 7
ENDMDL
MODEL 9
REMARK VINA RESULT:     -10.2      6.476      8.821
REMARK  Name = 16720766
REMARK  7 active torsions:
REMARK  status: ('A' for Active; 'I' for Inactive)
REMARK    1  A    between atoms: N_1  and  C_10
REMARK    2  A    between atoms: C_11  and  C_17
REMARK    3  A    between atoms: C_13  and  O_15
REMARK    4  A    between atoms: C_17  and  O_18
REMARK    5  A    between atoms: O_18  and  S_19
REMARK    6  A    between atoms: S_19  and  N_22
REMARK    7  A    between atoms: N_25  and  C_27
REMARK                            x       y       z     vdW  Elec       q    Type
REMARK                         _______ _______ _______ _____ _____    ______ ____
ROOT
ATOM      1  N   UNL     1      34.485 -15.542 -22.098  0.00  0.00    -0.276 N 
ATOM      2  N   UNL     1      33.474 -14.428 -23.983  0.00  0.00    -0.233 NA
ATOM      3  N   UNL     1      32.156 -12.485 -23.342  0.00  0.00    -0.233 NA
ATOM      4  C   UNL     1      33.718 -14.561 -22.667  0.00  0.00    +0.120 C 
ATOM      5  C   UNL     1      34.514 -15.369 -20.738  0.00  0.00    +0.062 C 
ATOM      6  C   UNL     1      33.245 -13.742 -21.649  0.00  0.00    +0.131 C 
ATOM      7  C   UNL     1      33.754 -14.260 -20.431  0.00  0.00    +0.004 C 
ATOM      8  C   UNL     1      32.430 -12.659 -22.018  0.00  0.00    +0.113 C 
ATOM      9  C   UNL     1      32.684 -13.363 -24.224  0.00  0.00    +0.252 C 
ATOM     10  N   UNL     1      31.914 -11.788 -21.071  0.00  0.00    -0.319 N 
ATOM     11  H   UNL     1      32.135 -11.947 -20.125  0.00  0.00    +0.148 HD
ENDROOT
BRANCH  10  12
ATOM     12  C   UNL     1      31.071 -10.662 -21.393  0.00  0.00    +0.093 C 
ATOM     13  C   UNL     1      30.193 -10.269 -20.191  0.00  0.00    +0.029 C 
ATOM     14  C   UNL     1      31.892  -9.420 -21.571  0.00  0.00    -0.008 C 
ATOM     15  C   UNL     1      30.993  -9.246 -19.367  0.00  0.00    +0.028 C 
ATOM     16  C   UNL     1      31.840  -8.615 -20.427  0.00  0.00    -0.025 C 
ATOM     17  C   UNL     1      32.651  -9.050 -22.670  0.00  0.00    -0.003 C 
ATOM     18  C   UNL     1      32.552  -7.430 -20.354  0.00  0.00    -0.005 C 
ATOM     19  C   UNL     1      33.362  -7.850 -22.610  0.00  0.00    -0.000 C 
ATOM     20  C   UNL     1      33.314  -7.046 -21.460  0.00  0.00    -0.000 C 
ENDBRANCH  10  12
BRANCH   1  21
ATOM     21  C   UNL     1      35.169 -16.614 -22.817  0.00  0.00    +0.081 C 
ATOM     22  C   UNL     1      34.113 -18.438 -24.058  0.00  0.00    +0.061 C 
ATOM     23  C   UNL     1      34.544 -16.971 -24.182  0.00  0.00    +0.025 C 
ATOM     24  C   UNL     1      35.127 -19.026 -23.075  0.00  0.00    +0.115 C 
ATOM     25  C   UNL     1      35.248 -17.932 -22.019  0.00  0.00    +0.049 C 
BRANCH  24  26
ATOM     26  O   UNL     1      36.386 -19.230 -23.704  0.00  0.00    -0.384 OA
ATOM     27  H   UNL     1      37.095 -18.932 -23.113  0.00  0.00    +0.210 HD
ENDBRANCH  24  26
BRANCH  22  28
ATOM     28  C   UNL     1      34.051 -19.146 -25.403  0.00  0.00    +0.176 C 
BRANCH  28  29
ATOM     29  O   UNL     1      33.593 -18.227 -26.380  0.00  0.00    -0.230 OA
BRANCH  29  30
ATOM     30  S   UNL     1      31.994 -17.903 -26.509  0.00  0.00    +0.045 S 
ATOM     31  O   UNL     1      31.591 -18.105 -27.890  0.00  0.00    -0.056 OA
ATOM     32  O   UNL     1      31.319 -18.621 -25.444  0.00  0.00    -0.056 OA
BRANCH  30  33
ATOM     33  N   UNL     1      31.878 -16.228 -26.161  0.00  0.00    -0.204 NA
ATOM     34  H   UNL     1      32.536 -15.713 -26.745  0.00  0.00    +0.144 HD
ATOM     35  H   UNL     1      32.100 -16.070 -25.178  0.00  0.00    +0.144 HD
ENDBRANCH  30  33
ENDBRANCH  29  30
ENDBRANCH  28  29
ENDBRANCH  22  28
ENDBRANCH   1  21
TORSDOF 7
ENDMDL
