MODEL 1
REMARK VINA RESULT:     -12.3      0.000      0.000
REMARK  Name = 24941254
REMARK  6 active torsions:
REMARK  status: ('A' for Active; 'I' for Inactive)
REMARK    1  A    between atoms: C_1  and  S_21
REMARK    2  A    between atoms: C_4  and  C_9
REMARK    3  A    between atoms: N_8  and  C_11
REMARK    4  A    between atoms: C_12  and  C_18
REMARK    5  A    between atoms: C_18  and  O_19
REMARK    6  A    between atoms: S_21  and  N_24
REMARK                            x       y       z     vdW  Elec       q    Type
REMARK                         _______ _______ _______ _____ _____    ______ ____
ROOT
ATOM      1  C   UNL     1      35.041 -17.033 -22.256  0.00  0.00    +0.122 C 
ATOM      2  C   UNL     1      34.637 -16.085 -23.196  0.00  0.00    +0.024 C 
ATOM      3  C   UNL     1      34.980 -16.734 -20.894  0.00  0.00    +0.020 C 
ATOM      4  C   UNL     1      34.173 -14.839 -22.775  0.00  0.00    +0.055 C 
ATOM      5  C   UNL     1      34.517 -15.487 -20.474  0.00  0.00    +0.002 C 
ATOM      6  C   UNL     1      34.113 -14.540 -21.415  0.00  0.00    +0.005 C 
ENDROOT
BRANCH   4   9
ATOM      7  O   UNL     1      33.103 -14.222 -24.746  0.00  0.00    -0.270 OA
ATOM      8  N   UNL     1      34.103 -12.522 -23.476  0.00  0.00    -0.280 N 
ATOM      9  C   UNL     1      33.751 -13.850 -23.755  0.00  0.00    +0.250 C 
ATOM     10  H   UNL     1      34.620 -12.381 -22.650  0.00  0.00    +0.155 HD
BRANCH   8  11
ATOM     11  C   UNL     1      33.811 -11.356 -24.225  0.00  0.00    +0.057 C 
ATOM     12  C   UNL     1      32.836 -10.454 -23.799  0.00  0.00    +0.089 C 
ATOM     13  C   UNL     1      34.515 -11.117 -25.405  0.00  0.00    +0.015 C 
ATOM     14  C   UNL     1      32.566  -9.312 -24.554  0.00  0.00    +0.008 C 
ATOM     15  C   UNL     1      34.244  -9.976 -26.160  0.00  0.00    +0.001 C 
ATOM     16  C   UNL     1      33.270  -9.074 -25.734  0.00  0.00    +0.000 C 
BRANCH  12  18
ATOM     17  O   UNL     1      31.653 -11.762 -22.184  0.00  0.00    -0.245 OA
ATOM     18  C   UNL     1      32.082 -10.673 -22.571  0.00  0.00    +0.339 C 
BRANCH  18  19
ATOM     19  O   UNL     1      31.892  -9.524 -21.869  0.00  0.00    -0.477 OA
ATOM     20  H   UNL     1      31.968  -8.695 -22.299  0.00  0.00    +0.295 HD
ENDBRANCH  18  19
ENDBRANCH  12  18
ENDBRANCH   8  11
ENDBRANCH   4   9
BRANCH   1  21
ATOM     21  S   UNL     1      35.629 -18.610 -22.787  0.00  0.00    +0.064 S 
ATOM     22  O   UNL     1      35.172 -18.818 -24.145  0.00  0.00    -0.153 OA
ATOM     23  O   UNL     1      37.036 -18.696 -22.454  0.00  0.00    -0.153 OA
BRANCH  21  24
ATOM     24  N   UNL     1      34.744 -19.631 -21.735  0.00  0.00    -0.151 NA
ATOM     25  C   UNL     1      33.412 -19.125 -21.310  0.00  0.00    +0.101 C 
ATOM     26  C   UNL     1      35.519 -20.197 -20.589  0.00  0.00    +0.122 C 
ATOM     27  C   UNL     1      32.579 -20.302 -20.810  0.00  0.00    +0.045 C 
ATOM     28  C   UNL     1      34.703 -21.080 -19.676  0.00  0.00    -0.008 C 
ATOM     29  C   UNL     1      33.300 -21.105 -19.758  0.00  0.00    -0.023 C 
ATOM     30  C   UNL     1      35.352 -21.854 -18.705  0.00  0.00    -0.003 C 
ATOM     31  C   UNL     1      32.572 -21.932 -18.891  0.00  0.00    -0.004 C 
ATOM     32  C   UNL     1      34.618 -22.664 -17.839  0.00  0.00    -0.000 C 
ATOM     33  C   UNL     1      33.229 -22.704 -17.934  0.00  0.00    -0.000 C 
ENDBRANCH  21  24
ENDBRANCH   1  21
TORSDOF 6
ENDMDL
MODEL 2
REMARK VINA RESULT:     -12.0      1.774      2.813
REMARK  Name = 24941254
REMARK  6 active torsions:
REMARK  status: ('A' for Active; 'I' for Inactive)
REMARK    1  A    between atoms: C_1  and  S_21
REMARK    2  A    between atoms: C_4  and  C_9
REMARK    3  A    between atoms: N_8  and  C_11
REMARK    4  A    between atoms: C_12  and  C_18
REMARK    5  A    between atoms: C_18  and  O_19
REMARK    6  A    between atoms: S_21  and  N_24
REMARK                            x       y       z     vdW  Elec       q    Type
REMARK                         _______ _______ _______ _____ _____    ______ ____
ROOT
ATOM      1  C   UNL     1      35.022 -17.118 -22.069  0.00  0.00    +0.122 C 
ATOM      2  C   UNL     1      34.598 -16.101 -22.924  0.00  0.00    +0.024 C 
ATOM      3  C   UNL     1      35.047 -16.904 -20.690  0.00  0.00    +0.020 C 
ATOM      4  C   UNL     1      34.201 -14.870 -22.402  0.00  0.00    +0.055 C 
ATOM      5  C   UNL     1      34.650 -15.673 -20.168  0.00  0.00    +0.002 C 
ATOM      6  C   UNL     1      34.227 -14.656 -21.024  0.00  0.00    +0.005 C 
ENDROOT
BRANCH   4   9
ATOM      7  O   UNL     1      33.735 -12.641 -22.876  0.00  0.00    -0.270 OA
ATOM      8  N   UNL     1      33.413 -14.207 -24.593  0.00  0.00    -0.280 N 
ATOM      9  C   UNL     1      33.759 -13.810 -23.294  0.00  0.00    +0.250 C 
ATOM     10  H   UNL     1      33.483 -15.172 -24.778  0.00  0.00    +0.155 HD
BRANCH   8  11
ATOM     11  C   UNL     1      32.977 -13.404 -25.674  0.00  0.00    +0.057 C 
ATOM     12  C   UNL     1      32.503 -13.980 -26.853  0.00  0.00    +0.089 C 
ATOM     13  C   UNL     1      33.027 -12.015 -25.548  0.00  0.00    +0.015 C 
ATOM     14  C   UNL     1      32.079 -13.167 -27.905  0.00  0.00    +0.008 C 
ATOM     15  C   UNL     1      32.604 -11.203 -26.601  0.00  0.00    +0.001 C 
ATOM     16  C   UNL     1      32.130 -11.780 -27.778  0.00  0.00    +0.000 C 
BRANCH  12  18
ATOM     17  O   UNL     1      33.406 -16.189 -27.014  0.00  0.00    -0.245 OA
ATOM     18  C   UNL     1      32.437 -15.427 -27.018  0.00  0.00    +0.339 C 
BRANCH  18  19
ATOM     19  O   UNL     1      31.162 -15.870 -27.182  0.00  0.00    -0.477 OA
ATOM     20  H   UNL     1      30.934 -16.744 -26.933  0.00  0.00    +0.295 HD
ENDBRANCH  18  19
ENDBRANCH  12  18
ENDBRANCH   8  11
ENDBRANCH   4   9
BRANCH   1  21
ATOM     21  S   UNL     1      35.526 -18.676 -22.729  0.00  0.00    +0.064 S 
ATOM     22  O   UNL     1      34.947 -18.806 -24.049  0.00  0.00    -0.153 OA
ATOM     23  O   UNL     1      36.955 -18.803 -22.527  0.00  0.00    -0.153 OA
BRANCH  21  24
ATOM     24  N   UNL     1      34.716 -19.734 -21.654  0.00  0.00    -0.151 NA
ATOM     25  C   UNL     1      33.352 -19.314 -21.236  0.00  0.00    +0.101 C 
ATOM     26  C   UNL     1      35.529 -20.221 -20.498  0.00  0.00    +0.122 C 
ATOM     27  C   UNL     1      32.603 -20.536 -20.710  0.00  0.00    +0.045 C 
ATOM     28  C   UNL     1      34.778 -21.140 -19.565  0.00  0.00    -0.008 C 
ATOM     29  C   UNL     1      33.380 -21.265 -19.644  0.00  0.00    -0.023 C 
ATOM     30  C   UNL     1      35.481 -21.847 -18.580  0.00  0.00    -0.003 C 
ATOM     31  C   UNL     1      32.713 -22.122 -18.758  0.00  0.00    -0.004 C 
ATOM     32  C   UNL     1      34.805 -22.688 -17.696  0.00  0.00    -0.000 C 
ATOM     33  C   UNL     1      33.422 -22.827 -17.787  0.00  0.00    -0.000 C 
ENDBRANCH  21  24
ENDBRANCH   1  21
TORSDOF 6
ENDMDL
MODEL 3
REMARK VINA RESULT:     -12.0      3.776     10.560
REMARK  Name = 24941254
REMARK  6 active torsions:
REMARK  status: ('A' for Active; 'I' for Inactive)
REMARK    1  A    between atoms: C_1  and  S_21
REMARK    2  A    between atoms: C_4  and  C_9
REMARK    3  A    between atoms: N_8  and  C_11
REMARK    4  A    between atoms: C_12  and  C_18
REMARK    5  A    between atoms: C_18  and  O_19
REMARK    6  A    between atoms: S_21  and  N_24
REMARK                            x       y       z     vdW  Elec       q    Type
REMARK                         _______ _______ _______ _____ _____    ______ ____
ROOT
ATOM      1  C   UNL     1      34.521 -19.243 -21.387  0.00  0.00    +0.122 C 
ATOM      2  C   UNL     1      35.252 -20.005 -20.476  0.00  0.00    +0.024 C 
ATOM      3  C   UNL     1      33.147 -19.450 -21.524  0.00  0.00    +0.020 C 
ATOM      4  C   UNL     1      34.611 -20.974 -19.704  0.00  0.00    +0.055 C 
ATOM      5  C   UNL     1      32.507 -20.418 -20.752  0.00  0.00    +0.002 C 
ATOM      6  C   UNL     1      33.239 -21.180 -19.841  0.00  0.00    +0.005 C 
ENDROOT
BRANCH   4   9
ATOM      7  O   UNL     1      36.535 -22.101 -19.040  0.00  0.00    -0.270 OA
ATOM      8  N   UNL     1      34.722 -22.078 -17.552  0.00  0.00    -0.280 N 
ATOM      9  C   UNL     1      35.374 -21.768 -18.754  0.00  0.00    +0.250 C 
ATOM     10  H   UNL     1      33.799 -21.745 -17.468  0.00  0.00    +0.155 HD
BRANCH   8  11
ATOM     11  C   UNL     1      35.216 -22.806 -16.442  0.00  0.00    +0.057 C 
ATOM     12  C   UNL     1      34.354 -23.519 -15.608  0.00  0.00    +0.089 C 
ATOM     13  C   UNL     1      36.588 -22.803 -16.189  0.00  0.00    +0.015 C 
ATOM     14  C   UNL     1      34.865 -24.228 -14.521  0.00  0.00    +0.008 C 
ATOM     15  C   UNL     1      37.098 -23.512 -15.101  0.00  0.00    +0.001 C 
ATOM     16  C   UNL     1      36.237 -24.224 -14.268  0.00  0.00    +0.000 C 
BRANCH  12  18
ATOM     17  O   UNL     1      32.376 -23.500 -16.952  0.00  0.00    -0.245 OA
ATOM     18  C   UNL     1      32.916 -23.543 -15.844  0.00  0.00    +0.339 C 
BRANCH  18  19
ATOM     19  O   UNL     1      32.204 -23.621 -14.688  0.00  0.00    -0.477 OA
ATOM     20  H   UNL     1      32.596 -23.360 -13.878  0.00  0.00    +0.295 HD
ENDBRANCH  18  19
ENDBRANCH  12  18
ENDBRANCH   8  11
ENDBRANCH   4   9
BRANCH   1  21
ATOM     21  S   UNL     1      35.331 -18.019 -22.367  0.00  0.00    +0.064 S 
ATOM     22  O   UNL     1      35.330 -16.780 -21.617  0.00  0.00    -0.153 OA
ATOM     23  O   UNL     1      36.566 -18.589 -22.861  0.00  0.00    -0.153 OA
BRANCH  21  24
ATOM     24  N   UNL     1      34.220 -17.889 -23.664  0.00  0.00    -0.151 NA
ATOM     25  C   UNL     1      34.167 -19.052 -24.591  0.00  0.00    +0.101 C 
ATOM     26  C   UNL     1      34.242 -16.589 -24.400  0.00  0.00    +0.122 C 
ATOM     27  C   UNL     1      32.848 -19.007 -25.357  0.00  0.00    +0.045 C 
ATOM     28  C   UNL     1      33.260 -16.516 -25.545  0.00  0.00    -0.008 C 
ATOM     29  C   UNL     1      32.621 -17.673 -26.023  0.00  0.00    -0.023 C 
ATOM     30  C   UNL     1      33.014 -15.284 -26.165  0.00  0.00    -0.003 C 
ATOM     31  C   UNL     1      31.719 -17.573 -27.091  0.00  0.00    -0.004 C 
ATOM     32  C   UNL     1      32.124 -15.197 -27.236  0.00  0.00    -0.000 C 
ATOM     33  C   UNL     1      31.476 -16.340 -27.697  0.00  0.00    -0.000 C 
ENDBRANCH  21  24
ENDBRANCH   1  21
TORSDOF 6
ENDMDL
MODEL 4
REMARK VINA RESULT:     -11.9      3.454     10.522
REMARK  Name = 24941254
REMARK  6 active torsions:
REMARK  status: ('A' for Active; 'I' for Inactive)
REMARK    1  A    between atoms: C_1  and  S_21
REMARK    2  A    between atoms: C_4  and  C_9
REMARK    3  A    between atoms: N_8  and  C_11
REMARK    4  A    between atoms: C_12  and  C_18
REMARK    5  A    between atoms: C_18  and  O_19
REMARK    6  A    between atoms: S_21  and  N_24
REMARK                            x       y       z     vdW  Elec       q    Type
REMARK                         _______ _______ _______ _____ _____    ______ ____
ROOT
ATOM      1  C   UNL     1      34.608 -19.758 -21.155  0.00  0.00    +0.122 C 
ATOM      2  C   UNL     1      34.788 -20.796 -20.241  0.00  0.00    +0.024 C 
ATOM      3  C   UNL     1      33.319 -19.367 -21.520  0.00  0.00    +0.020 C 
ATOM      4  C   UNL     1      33.681 -21.442 -19.693  0.00  0.00    +0.055 C 
ATOM      5  C   UNL     1      32.212 -20.013 -20.972  0.00  0.00    +0.002 C 
ATOM      6  C   UNL     1      32.393 -21.052 -20.058  0.00  0.00    +0.005 C 
ENDROOT
BRANCH   4   9
ATOM      7  O   UNL     1      33.735 -23.697 -19.123  0.00  0.00    -0.270 OA
ATOM      8  N   UNL     1      34.218 -22.139 -17.437  0.00  0.00    -0.280 N 
ATOM      9  C   UNL     1      33.868 -22.525 -18.739  0.00  0.00    +0.250 C 
ATOM     10  H   UNL     1      34.287 -21.170 -17.282  0.00  0.00    +0.155 HD
BRANCH   8  11
ATOM     11  C   UNL     1      34.487 -22.962 -16.316  0.00  0.00    +0.057 C 
ATOM     12  C   UNL     1      35.784 -23.104 -15.824  0.00  0.00    +0.089 C 
ATOM     13  C   UNL     1      33.430 -23.636 -15.703  0.00  0.00    +0.015 C 
ATOM     14  C   UNL     1      36.024 -23.920 -14.718  0.00  0.00    +0.008 C 
ATOM     15  C   UNL     1      33.671 -24.452 -14.598  0.00  0.00    +0.001 C 
ATOM     16  C   UNL     1      34.968 -24.594 -14.106  0.00  0.00    +0.000 C 
BRANCH  12  18
ATOM     17  O   UNL     1      36.843 -21.345 -17.050  0.00  0.00    -0.245 OA
ATOM     18  C   UNL     1      36.911 -22.415 -16.440  0.00  0.00    +0.339 C 
BRANCH  18  19
ATOM     19  O   UNL     1      38.082 -23.086 -16.272  0.00  0.00    -0.477 OA
ATOM     20  H   UNL     1      38.896 -22.661 -16.461  0.00  0.00    +0.295 HD
ENDBRANCH  18  19
ENDBRANCH  12  18
ENDBRANCH   8  11
ENDBRANCH   4   9
BRANCH   1  21
ATOM     21  S   UNL     1      36.009 -18.939 -21.851  0.00  0.00    +0.064 S 
ATOM     22  O   UNL     1      37.085 -19.005 -20.885  0.00  0.00    -0.153 OA
ATOM     23  O   UNL     1      36.189 -19.435 -23.200  0.00  0.00    -0.153 OA
BRANCH  21  24
ATOM     24  N   UNL     1      35.415 -17.335 -21.922  0.00  0.00    -0.151 NA
ATOM     25  C   UNL     1      34.706 -16.852 -20.707  0.00  0.00    +0.101 C 
ATOM     26  C   UNL     1      34.685 -16.976 -23.175  0.00  0.00    +0.122 C 
ATOM     27  C   UNL     1      34.680 -15.327 -20.728  0.00  0.00    +0.045 C 
ATOM     28  C   UNL     1      34.165 -15.559 -23.196  0.00  0.00    -0.008 C 
ATOM     29  C   UNL     1      34.131 -14.784 -22.023  0.00  0.00    -0.023 C 
ATOM     30  C   UNL     1      33.670 -15.023 -24.392  0.00  0.00    -0.003 C 
ATOM     31  C   UNL     1      33.636 -13.474 -22.075  0.00  0.00    -0.004 C 
ATOM     32  C   UNL     1      33.168 -13.722 -24.430  0.00  0.00    -0.000 C 
ATOM     33  C   UNL     1      33.153 -12.948 -23.273  0.00  0.00    -0.000 C 
ENDBRANCH  21  24
ENDBRANCH   1  21
TORSDOF 6
ENDMDL
MODEL 5
REMARK VINA RESULT:     -11.7      1.478      2.250
REMARK  Name = 24941254
REMARK  6 active torsions:
REMARK  status: ('A' for Active; 'I' for Inactive)
REMARK    1  A    between atoms: C_1  and  S_21
REMARK    2  A    between atoms: C_4  and  C_9
REMARK    3  A    between atoms: N_8  and  C_11
REMARK    4  A    between atoms: C_12  and  C_18
REMARK    5  A    between atoms: C_18  and  O_19
REMARK    6  A    between atoms: S_21  and  N_24
REMARK                            x       y       z     vdW  Elec       q    Type
REMARK                         _______ _______ _______ _____ _____    ______ ____
ROOT
ATOM      1  C   UNL     1      34.122 -15.834 -23.367  0.00  0.00    +0.122 C 
ATOM      2  C   UNL     1      33.895 -14.718 -24.173  0.00  0.00    +0.024 C 
ATOM      3  C   UNL     1      34.323 -15.673 -21.996  0.00  0.00    +0.020 C 
ATOM      4  C   UNL     1      33.869 -13.443 -23.607  0.00  0.00    +0.055 C 
ATOM      5  C   UNL     1      34.298 -14.399 -21.431  0.00  0.00    +0.002 C 
ATOM      6  C   UNL     1      34.070 -13.283 -22.237  0.00  0.00    +0.005 C 
ENDROOT
BRANCH   4   9
ATOM      7  O   UNL     1      32.772 -12.345 -25.340  0.00  0.00    -0.270 OA
ATOM      8  N   UNL     1      34.398 -11.144 -24.151  0.00  0.00    -0.280 N 
ATOM      9  C   UNL     1      33.631 -12.279 -24.447  0.00  0.00    +0.250 C 
ATOM     10  H   UNL     1      35.042 -11.243 -23.413  0.00  0.00    +0.155 HD
BRANCH   8  11
ATOM     11  C   UNL     1      34.368  -9.872 -24.774  0.00  0.00    +0.057 C 
ATOM     12  C   UNL     1      33.674  -8.807 -24.199  0.00  0.00    +0.089 C 
ATOM     13  C   UNL     1      35.045  -9.694 -25.980  0.00  0.00    +0.015 C 
ATOM     14  C   UNL     1      33.659  -7.563 -24.831  0.00  0.00    +0.008 C 
ATOM     15  C   UNL     1      35.028  -8.450 -26.613  0.00  0.00    +0.001 C 
ATOM     16  C   UNL     1      34.335  -7.385 -26.038  0.00  0.00    +0.000 C 
BRANCH  12  18
ATOM     17  O   UNL     1      32.151  -9.855 -22.682  0.00  0.00    -0.245 OA
ATOM     18  C   UNL     1      32.957  -8.958 -22.939  0.00  0.00    +0.339 C 
BRANCH  18  19
ATOM     19  O   UNL     1      33.273  -7.984 -22.044  0.00  0.00    -0.477 OA
ATOM     20  H   UNL     1      34.070  -8.037 -21.555  0.00  0.00    +0.295 HD
ENDBRANCH  18  19
ENDBRANCH  12  18
ENDBRANCH   8  11
ENDBRANCH   4   9
BRANCH   1  21
ATOM     21  S   UNL     1      34.157 -17.448 -24.081  0.00  0.00    +0.064 S 
ATOM     22  O   UNL     1      32.797 -17.810 -24.421  0.00  0.00    -0.153 OA
ATOM     23  O   UNL     1      35.205 -17.470 -25.080  0.00  0.00    -0.153 OA
BRANCH  21  24
ATOM     24  N   UNL     1      34.660 -18.365 -22.726  0.00  0.00    -0.151 NA
ATOM     25  C   UNL     1      36.033 -18.931 -22.800  0.00  0.00    +0.101 C 
ATOM     26  C   UNL     1      33.669 -19.365 -22.225  0.00  0.00    +0.122 C 
ATOM     27  C   UNL     1      36.497 -19.277 -21.388  0.00  0.00    +0.045 C 
ATOM     28  C   UNL     1      34.152 -20.164 -21.039  0.00  0.00    -0.008 C 
ATOM     29  C   UNL     1      35.506 -20.149 -20.659  0.00  0.00    -0.023 C 
ATOM     30  C   UNL     1      33.246 -20.965 -20.331  0.00  0.00    -0.003 C 
ATOM     31  C   UNL     1      35.923 -20.907 -19.557  0.00  0.00    -0.004 C 
ATOM     32  C   UNL     1      33.673 -21.725 -19.242  0.00  0.00    -0.000 C 
ATOM     33  C   UNL     1      35.011 -21.694 -18.855  0.00  0.00    -0.000 C 
ENDBRANCH  21  24
ENDBRANCH   1  21
TORSDOF 6
ENDMDL
MODEL 6
REMARK VINA RESULT:     -11.7      3.291     10.642
REMARK  Name = 24941254
REMARK  6 active torsions:
REMARK  status: ('A' for Active; 'I' for Inactive)
REMARK    1  A    between atoms: C_1  and  S_21
REMARK    2  A    between atoms: C_4  and  C_9
REMARK    3  A    between atoms: N_8  and  C_11
REMARK    4  A    between atoms: C_12  and  C_18
REMARK    5  A    between atoms: C_18  and  O_19
REMARK    6  A    between atoms: S_21  and  N_24
REMARK                            x       y       z     vdW  Elec       q    Type
REMARK                         _______ _______ _______ _____ _____    ______ ____
ROOT
ATOM      1  C   UNL     1      34.291 -19.617 -20.835  0.00  0.00    +0.122 C 
ATOM      2  C   UNL     1      34.547 -20.655 -19.939  0.00  0.00    +0.024 C 
ATOM      3  C   UNL     1      33.007 -19.446 -21.354  0.00  0.00    +0.020 C 
ATOM      4  C   UNL     1      33.520 -21.520 -19.562  0.00  0.00    +0.055 C 
ATOM      5  C   UNL     1      31.980 -20.311 -20.977  0.00  0.00    +0.002 C 
ATOM      6  C   UNL     1      32.237 -21.348 -20.081  0.00  0.00    +0.005 C 
ENDROOT
BRANCH   4   9
ATOM      7  O   UNL     1      33.643 -23.775 -19.004  0.00  0.00    -0.270 OA
ATOM      8  N   UNL     1      34.217 -22.214 -17.349  0.00  0.00    -0.280 N 
ATOM      9  C   UNL     1      33.786 -22.601 -18.626  0.00  0.00    +0.250 C 
ATOM     10  H   UNL     1      34.283 -21.244 -17.196  0.00  0.00    +0.155 HD
BRANCH   8  11
ATOM     11  C   UNL     1      34.572 -23.035 -16.252  0.00  0.00    +0.057 C 
ATOM     12  C   UNL     1      35.896 -23.127 -15.822  0.00  0.00    +0.089 C 
ATOM     13  C   UNL     1      33.574 -23.759 -15.598  0.00  0.00    +0.015 C 
ATOM     14  C   UNL     1      36.221 -23.943 -14.737  0.00  0.00    +0.008 C 
ATOM     15  C   UNL     1      33.901 -24.575 -14.515  0.00  0.00    +0.001 C 
ATOM     16  C   UNL     1      35.224 -24.667 -14.085  0.00  0.00    +0.000 C 
BRANCH  12  18
ATOM     17  O   UNL     1      36.819 -21.324 -17.093  0.00  0.00    -0.245 OA
ATOM     18  C   UNL     1      36.963 -22.385 -16.481  0.00  0.00    +0.339 C 
BRANCH  18  19
ATOM     19  O   UNL     1      38.172 -22.995 -16.354  0.00  0.00    -0.477 OA
ATOM     20  H   UNL     1      38.834 -22.861 -17.003  0.00  0.00    +0.295 HD
ENDBRANCH  18  19
ENDBRANCH  12  18
ENDBRANCH   8  11
ENDBRANCH   4   9
BRANCH   1  21
ATOM     21  S   UNL     1      35.590 -18.523 -21.315  0.00  0.00    +0.064 S 
ATOM     22  O   UNL     1      35.810 -17.593 -20.227  0.00  0.00    -0.153 OA
ATOM     23  O   UNL     1      36.676 -19.324 -21.840  0.00  0.00    -0.153 OA
BRANCH  21  24
ATOM     24  N   UNL     1      34.828 -17.701 -22.609  0.00  0.00    -0.151 NA
ATOM     25  C   UNL     1      35.193 -18.164 -23.975  0.00  0.00    +0.101 C 
ATOM     26  C   UNL     1      34.822 -16.210 -22.507  0.00  0.00    +0.122 C 
ATOM     27  C   UNL     1      34.114 -17.703 -24.952  0.00  0.00    +0.045 C 
ATOM     28  C   UNL     1      34.154 -15.520 -23.672  0.00  0.00    -0.008 C 
ATOM     29  C   UNL     1      33.847 -16.223 -24.850  0.00  0.00    -0.023 C 
ATOM     30  C   UNL     1      33.873 -14.149 -23.593  0.00  0.00    -0.003 C 
ATOM     31  C   UNL     1      33.233 -15.551 -25.916  0.00  0.00    -0.004 C 
ATOM     32  C   UNL     1      33.273 -13.487 -24.664  0.00  0.00    -0.000 C 
ATOM     33  C   UNL     1      32.951 -14.189 -25.824  0.00  0.00    -0.000 C 
ENDBRANCH  21  24
ENDBRANCH   1  21
TORSDOF 6
ENDMDL
MODEL 7
REMARK VINA RESULT:     -11.6      2.158      2.862
REMARK  Name = 24941254
REMARK  6 active torsions:
REMARK  status: ('A' for Active; 'I' for Inactive)
REMARK    1  A    between atoms: C_1  and  S_21
REMARK    2  A    between atoms: C_4  and  C_9
REMARK    3  A    between atoms: N_8  and  C_11
REMARK    4  A    between atoms: C_12  and  C_18
REMARK    5  A    between atoms: C_18  and  O_19
REMARK    6  A    between atoms: S_21  and  N_24
REMARK                            x       y       z     vdW  Elec       q    Type
REMARK                         _______ _______ _______ _____ _____    ______ ____
ROOT
ATOM      1  C   UNL     1      34.896 -18.505 -23.759  0.00  0.00    +0.122 C 
ATOM      2  C   UNL     1      34.497 -17.334 -24.402  0.00  0.00    +0.024 C 
ATOM      3  C   UNL     1      34.595 -19.746 -24.321  0.00  0.00    +0.020 C 
ATOM      4  C   UNL     1      33.797 -17.403 -25.606  0.00  0.00    +0.055 C 
ATOM      5  C   UNL     1      33.895 -19.815 -25.526  0.00  0.00    +0.002 C 
ATOM      6  C   UNL     1      33.496 -18.643 -26.168  0.00  0.00    +0.005 C 
ENDROOT
BRANCH   4   9
ATOM      7  O   UNL     1      32.913 -16.252 -27.425  0.00  0.00    -0.270 OA
ATOM      8  N   UNL     1      33.526 -14.998 -25.539  0.00  0.00    -0.280 N 
ATOM      9  C   UNL     1      33.381 -16.181 -26.277  0.00  0.00    +0.250 C 
ATOM     10  H   UNL     1      33.913 -15.099 -24.640  0.00  0.00    +0.155 HD
BRANCH   8  11
ATOM     11  C   UNL     1      33.187 -13.676 -25.917  0.00  0.00    +0.057 C 
ATOM     12  C   UNL     1      33.031 -12.672 -24.960  0.00  0.00    +0.089 C 
ATOM     13  C   UNL     1      33.007 -13.384 -27.269  0.00  0.00    +0.015 C 
ATOM     14  C   UNL     1      32.697 -11.377 -25.357  0.00  0.00    +0.008 C 
ATOM     15  C   UNL     1      32.672 -12.089 -27.665  0.00  0.00    +0.001 C 
ATOM     16  C   UNL     1      32.517 -11.086 -26.709  0.00  0.00    +0.000 C 
BRANCH  12  18
ATOM     17  O   UNL     1      32.378 -12.717 -22.660  0.00  0.00    -0.245 OA
ATOM     18  C   UNL     1      33.212 -12.943 -23.539  0.00  0.00    +0.339 C 
BRANCH  18  19
ATOM     19  O   UNL     1      34.429 -13.485 -23.267  0.00  0.00    -0.477 OA
ATOM     20  H   UNL     1      35.209 -13.062 -23.569  0.00  0.00    +0.295 HD
ENDBRANCH  18  19
ENDBRANCH  12  18
ENDBRANCH   8  11
ENDBRANCH   4   9
BRANCH   1  21
ATOM     21  S   UNL     1      35.780 -18.419 -22.233  0.00  0.00    +0.064 S 
ATOM     22  O   UNL     1      37.119 -18.915 -22.470  0.00  0.00    -0.153 OA
ATOM     23  O   UNL     1      35.562 -17.105 -21.666  0.00  0.00    -0.153 OA
BRANCH  21  24
ATOM     24  N   UNL     1      34.909 -19.573 -21.316  0.00  0.00    -0.151 NA
ATOM     25  C   UNL     1      33.510 -19.203 -20.969  0.00  0.00    +0.101 C 
ATOM     26  C   UNL     1      35.641 -20.149 -20.148  0.00  0.00    +0.122 C 
ATOM     27  C   UNL     1      32.744 -20.472 -20.606  0.00  0.00    +0.045 C 
ATOM     28  C   UNL     1      34.837 -21.152 -19.355  0.00  0.00    -0.008 C 
ATOM     29  C   UNL     1      33.451 -21.283 -19.549  0.00  0.00    -0.023 C 
ATOM     30  C   UNL     1      35.475 -21.934 -18.383  0.00  0.00    -0.003 C 
ATOM     31  C   UNL     1      32.733 -22.219 -18.792  0.00  0.00    -0.004 C 
ATOM     32  C   UNL     1      34.749 -22.854 -17.626  0.00  0.00    -0.000 C 
ATOM     33  C   UNL     1      33.379 -22.997 -17.833  0.00  0.00    -0.000 C 
ENDBRANCH  21  24
ENDBRANCH   1  21
TORSDOF 6
ENDMDL
MODEL 8
REMARK VINA RESULT:     -11.6      3.572     10.418
REMARK  Name = 24941254
REMARK  6 active torsions:
REMARK  status: ('A' for Active; 'I' for Inactive)
REMARK    1  A    between atoms: C_1  and  S_21
REMARK    2  A    between atoms: C_4  and  C_9
REMARK    3  A    between atoms: N_8  and  C_11
REMARK    4  A    between atoms: C_12  and  C_18
REMARK    5  A    between atoms: C_18  and  O_19
REMARK    6  A    between atoms: S_21  and  N_24
REMARK                            x       y       z     vdW  Elec       q    Type
REMARK                         _______ _______ _______ _____ _____    ______ ____
ROOT
ATOM      1  C   UNL     1      33.867 -10.569 -25.339  0.00  0.00    +0.122 C 
ATOM      2  C   UNL     1      33.969 -11.633 -24.442  0.00  0.00    +0.024 C 
ATOM      3  C   UNL     1      33.139 -10.721 -26.519  0.00  0.00    +0.020 C 
ATOM      4  C   UNL     1      33.344 -12.847 -24.726  0.00  0.00    +0.055 C 
ATOM      5  C   UNL     1      32.514 -11.935 -26.803  0.00  0.00    +0.002 C 
ATOM      6  C   UNL     1      32.617 -12.998 -25.906  0.00  0.00    +0.005 C 
ENDROOT
BRANCH   4   9
ATOM      7  O   UNL     1      33.004 -13.820 -22.640  0.00  0.00    -0.270 OA
ATOM      8  N   UNL     1      34.043 -15.124 -24.291  0.00  0.00    -0.280 N 
ATOM      9  C   UNL     1      33.450 -13.956 -23.791  0.00  0.00    +0.250 C 
ATOM     10  H   UNL     1      34.351 -15.081 -25.225  0.00  0.00    +0.155 HD
BRANCH   8  11
ATOM     11  C   UNL     1      34.256 -16.358 -23.629  0.00  0.00    +0.057 C 
ATOM     12  C   UNL     1      33.898 -17.566 -24.228  0.00  0.00    +0.089 C 
ATOM     13  C   UNL     1      34.833 -16.353 -22.359  0.00  0.00    +0.015 C 
ATOM     14  C   UNL     1      34.118 -18.769 -23.556  0.00  0.00    +0.008 C 
ATOM     15  C   UNL     1      35.051 -17.556 -21.687  0.00  0.00    +0.001 C 
ATOM     16  C   UNL     1      34.694 -18.763 -22.286  0.00  0.00    +0.000 C 
BRANCH  12  18
ATOM     17  O   UNL     1      33.857 -17.990 -26.581  0.00  0.00    -0.245 OA
ATOM     18  C   UNL     1      33.294 -17.607 -25.554  0.00  0.00    +0.339 C 
BRANCH  18  19
ATOM     19  O   UNL     1      32.007 -17.167 -25.549  0.00  0.00    -0.477 OA
ATOM     20  H   UNL     1      31.447 -17.350 -26.277  0.00  0.00    +0.295 HD
ENDBRANCH  18  19
ENDBRANCH  12  18
ENDBRANCH   8  11
ENDBRANCH   4   9
BRANCH   1  21
ATOM     21  S   UNL     1      34.659  -9.032 -24.982  0.00  0.00    +0.064 S 
ATOM     22  O   UNL     1      35.686  -9.283 -23.993  0.00  0.00    -0.153 OA
ATOM     23  O   UNL     1      34.978  -8.393 -26.241  0.00  0.00    -0.153 OA
BRANCH  21  24
ATOM     24  N   UNL     1      33.363  -8.192 -24.243  0.00  0.00    -0.151 NA
ATOM     25  C   UNL     1      32.734  -7.121 -25.061  0.00  0.00    +0.101 C 
ATOM     26  C   UNL     1      33.605  -7.750 -22.836  0.00  0.00    +0.122 C 
ATOM     27  C   UNL     1      31.348  -6.822 -24.495  0.00  0.00    +0.045 C 
ATOM     28  C   UNL     1      32.446  -7.000 -22.222  0.00  0.00    -0.008 C 
ATOM     29  C   UNL     1      31.387  -6.529 -23.017  0.00  0.00    -0.023 C 
ATOM     30  C   UNL     1      32.448  -6.735 -20.846  0.00  0.00    -0.003 C 
ATOM     31  C   UNL     1      30.330  -5.831 -22.417  0.00  0.00    -0.004 C 
ATOM     32  C   UNL     1      31.397  -6.029 -20.260  0.00  0.00    -0.000 C 
ATOM     33  C   UNL     1      30.338  -5.580 -21.046  0.00  0.00    -0.000 C 
ENDBRANCH  21  24
ENDBRANCH   1  21
TORSDOF 6
ENDMDL
MODEL 9
REMARK VINA RESULT:     -11.6      3.323      8.613
REMARK  Name = 24941254
REMARK  6 active torsions:
REMARK  status: ('A' for Active; 'I' for Inactive)
REMARK    1  A    between atoms: C_1  and  S_21
REMARK    2  A    between atoms: C_4  and  C_9
REMARK    3  A    between atoms: N_8  and  C_11
REMARK    4  A    between atoms: C_12  and  C_18
REMARK    5  A    between atoms: C_18  and  O_19
REMARK    6  A    between atoms: S_21  and  N_24
REMARK                            x       y       z     vdW  Elec       q    Type
REMARK                         _______ _______ _______ _____ _____    ______ ____
ROOT
ATOM      1  C   UNL     1      32.939 -12.523 -26.246  0.00  0.00    +0.122 C 
ATOM      2  C   UNL     1      33.530 -13.666 -25.706  0.00  0.00    +0.024 C 
ATOM      3  C   UNL     1      32.006 -12.642 -27.276  0.00  0.00    +0.020 C 
ATOM      4  C   UNL     1      33.187 -14.926 -26.196  0.00  0.00    +0.055 C 
ATOM      5  C   UNL     1      31.663 -13.902 -27.766  0.00  0.00    +0.002 C 
ATOM      6  C   UNL     1      32.254 -15.044 -27.225  0.00  0.00    +0.005 C 
ENDROOT
BRANCH   4   9
ATOM      7  O   UNL     1      34.398 -16.903 -26.386  0.00  0.00    -0.270 OA
ATOM      8  N   UNL     1      33.686 -16.268 -24.243  0.00  0.00    -0.280 N 
ATOM      9  C   UNL     1      33.802 -16.118 -25.632  0.00  0.00    +0.250 C 
ATOM     10  H   UNL     1      33.183 -15.561 -23.777  0.00  0.00    +0.155 HD
BRANCH   8  11
ATOM     11  C   UNL     1      34.200 -17.300 -23.421  0.00  0.00    +0.057 C 
ATOM     12  C   UNL     1      34.714 -17.023 -22.154  0.00  0.00    +0.089 C 
ATOM     13  C   UNL     1      34.186 -18.612 -23.896  0.00  0.00    +0.015 C 
ATOM     14  C   UNL     1      35.214 -18.058 -21.363  0.00  0.00    +0.008 C 
ATOM     15  C   UNL     1      34.688 -19.646 -23.105  0.00  0.00    +0.001 C 
ATOM     16  C   UNL     1      35.202 -19.368 -21.839  0.00  0.00    +0.000 C 
BRANCH  12  18
ATOM     17  O   UNL     1      34.882 -14.641 -22.301  0.00  0.00    -0.245 OA
ATOM     18  C   UNL     1      34.743 -15.664 -21.627  0.00  0.00    +0.339 C 
BRANCH  18  19
ATOM     19  O   UNL     1      34.596 -15.631 -20.275  0.00  0.00    -0.477 OA
ATOM     20  H   UNL     1      33.770 -15.396 -19.900  0.00  0.00    +0.295 HD
ENDBRANCH  18  19
ENDBRANCH  12  18
ENDBRANCH   8  11
ENDBRANCH   4   9
BRANCH   1  21
ATOM     21  S   UNL     1      33.374 -10.927 -25.629  0.00  0.00    +0.064 S 
ATOM     22  O   UNL     1      34.816 -10.809 -25.684  0.00  0.00    -0.153 OA
ATOM     23  O   UNL     1      32.522  -9.952 -26.277  0.00  0.00    -0.153 OA
BRANCH  21  24
ATOM     24  N   UNL     1      32.887 -11.095 -23.996  0.00  0.00    -0.151 NA
ATOM     25  C   UNL     1      32.090 -12.310 -23.678  0.00  0.00    +0.101 C 
ATOM     26  C   UNL     1      32.309  -9.867 -23.370  0.00  0.00    +0.122 C 
ATOM     27  C   UNL     1      32.158 -12.560 -22.174  0.00  0.00    +0.045 C 
ATOM     28  C   UNL     1      31.878 -10.056 -21.935  0.00  0.00    -0.008 C 
ATOM     29  C   UNL     1      31.774 -11.341 -21.375  0.00  0.00    -0.023 C 
ATOM     30  C   UNL     1      31.539  -8.936 -21.164  0.00  0.00    -0.003 C 
ATOM     31  C   UNL     1      31.366 -11.482 -20.042  0.00  0.00    -0.004 C 
ATOM     32  C   UNL     1      31.122  -9.088 -19.842  0.00  0.00    -0.000 C 
ATOM     33  C   UNL     1      31.038 -10.360 -19.281  0.00  0.00    -0.000 C 
ENDBRANCH  21  24
ENDBRANCH   1  21
TORSDOF 6
ENDMDL
