MODEL 1
REMARK VINA RESULT:     -12.9      0.000      0.000
REMARK  Name = 16741238
REMARK  6 active torsions:
REMARK  status: ('A' for Active; 'I' for Inactive)
REMARK    1  A    between atoms: N_1  and  C_22
REMARK    2  A    between atoms: C_10  and  C_15
REMARK    3  A    between atoms: C_15  and  C_16
REMARK    4  A    between atoms: C_22  and  C_23
REMARK    5  A    between atoms: C_23  and  C_26
REMARK    6  A    between atoms: N_25  and  C_28
REMARK                            x       y       z     vdW  Elec       q    Type
REMARK                         _______ _______ _______ _____ _____    ______ ____
ROOT
ATOM      1  N   UNL     1      33.253 -14.440 -25.458  0.00  0.00    -0.249 N 
ATOM      2  N   UNL     1      33.344 -16.603 -26.507  0.00  0.00    -0.373 NA
ATOM      3  N   UNL     1      32.550 -14.776 -27.683  0.00  0.00    -0.321 N 
ATOM      4  C   UNL     1      33.798 -14.906 -24.182  0.00  0.00    +0.071 C 
ATOM      5  C   UNL     1      34.103 -16.378 -24.183  0.00  0.00    +0.045 C 
ATOM      6  C   UNL     1      33.066 -15.322 -26.528  0.00  0.00    +0.239 C 
ATOM      7  C   UNL     1      33.868 -17.153 -25.326  0.00  0.00    +0.136 C 
ATOM      8  C   UNL     1      34.628 -16.979 -23.030  0.00  0.00    +0.007 C 
ATOM      9  C   UNL     1      34.163 -18.522 -25.298  0.00  0.00    +0.032 C 
ATOM     10  C   UNL     1      34.918 -18.343 -23.013  0.00  0.00    +0.039 C 
ATOM     11  C   UNL     1      34.685 -19.115 -24.148  0.00  0.00    +0.006 C 
ATOM     12  H   UNL     1      32.336 -13.815 -27.720  0.00  0.00    +0.146 HD
ATOM     13  H   UNL     1      32.397 -15.346 -28.470  0.00  0.00    +0.146 HD
ENDROOT
BRANCH  10  15
ATOM     14  O   UNL     1      36.625 -18.717 -21.459  0.00  0.00    -0.287 OA
ATOM     15  C   UNL     1      35.461 -18.958 -21.813  0.00  0.00    +0.196 C 
BRANCH  15  16
ATOM     16  C   UNL     1      34.664 -19.890 -20.960  0.00  0.00    +0.039 C 
ATOM     17  C   UNL     1      33.274 -19.782 -20.918  0.00  0.00    +0.003 C 
ATOM     18  C   UNL     1      35.310 -20.870 -20.206  0.00  0.00    +0.003 C 
ATOM     19  C   UNL     1      32.530 -20.653 -20.122  0.00  0.00    +0.000 C 
ATOM     20  C   UNL     1      34.566 -21.741 -19.410  0.00  0.00    +0.000 C 
ATOM     21  C   UNL     1      33.176 -21.632 -19.368  0.00  0.00    +0.000 C 
ENDBRANCH  15  16
ENDBRANCH  10  15
BRANCH   1  22
ATOM     22  C   UNL     1      32.933 -13.017 -25.513  0.00  0.00    +0.109 C 
BRANCH  22  23
ATOM     23  C   UNL     1      33.388 -12.319 -24.234  0.00  0.00    +0.107 C 
BRANCH  23  26
ATOM     24  O   UNL     1      33.744 -10.137 -25.171  0.00  0.00    -0.275 OA
ATOM     25  N   UNL     1      32.458 -10.240 -23.245  0.00  0.00    -0.279 N 
ATOM     26  C   UNL     1      33.223 -10.803 -24.273  0.00  0.00    +0.227 C 
ATOM     27  C   UNL     1      31.849 -11.047 -22.189  0.00  0.00    +0.115 C 
BRANCH  25  28
ATOM     28  C   UNL     1      32.213  -8.821 -23.150  0.00  0.00    +0.075 C 
ATOM     29  C   UNL     1      32.987  -8.221 -21.974  0.00  0.00    +0.020 C 
ATOM     30  C   UNL     1      30.713  -8.537 -23.033  0.00  0.00    +0.020 C 
ATOM     31  C   UNL     1      32.705  -6.729 -21.817  0.00  0.00    +0.002 C 
ATOM     32  C   UNL     1      30.434  -7.044 -22.876  0.00  0.00    +0.002 C 
ATOM     33  C   UNL     1      31.209  -6.448 -21.705  0.00  0.00    +0.000 C 
ENDBRANCH  25  28
ENDBRANCH  23  26
ENDBRANCH  22  23
ENDBRANCH   1  22
TORSDOF 6
ENDMDL
MODEL 2
REMARK VINA RESULT:     -12.2      1.935      2.449
REMARK  Name = 16741238
REMARK  6 active torsions:
REMARK  status: ('A' for Active; 'I' for Inactive)
REMARK    1  A    between atoms: N_1  and  C_22
REMARK    2  A    between atoms: C_10  and  C_15
REMARK    3  A    between atoms: C_15  and  C_16
REMARK    4  A    between atoms: C_22  and  C_23
REMARK    5  A    between atoms: C_23  and  C_26
REMARK    6  A    between atoms: N_25  and  C_28
REMARK                            x       y       z     vdW  Elec       q    Type
REMARK                         _______ _______ _______ _____ _____    ______ ____
ROOT
ATOM      1  N   UNL     1      33.251 -14.689 -25.354  0.00  0.00    -0.249 N 
ATOM      2  N   UNL     1      33.467 -16.847 -26.395  0.00  0.00    -0.373 NA
ATOM      3  N   UNL     1      32.642 -15.054 -27.601  0.00  0.00    -0.321 N 
ATOM      4  C   UNL     1      33.769 -15.132 -24.058  0.00  0.00    +0.071 C 
ATOM      5  C   UNL     1      34.134 -16.590 -24.045  0.00  0.00    +0.045 C 
ATOM      6  C   UNL     1      33.138 -15.578 -26.428  0.00  0.00    +0.239 C 
ATOM      7  C   UNL     1      33.971 -17.375 -25.195  0.00  0.00    +0.136 C 
ATOM      8  C   UNL     1      34.641 -17.169 -22.873  0.00  0.00    +0.007 C 
ATOM      9  C   UNL     1      34.320 -18.731 -25.154  0.00  0.00    +0.032 C 
ATOM     10  C   UNL     1      34.986 -18.520 -22.844  0.00  0.00    +0.039 C 
ATOM     11  C   UNL     1      34.825 -19.301 -23.985  0.00  0.00    +0.006 C 
ATOM     12  H   UNL     1      32.390 -14.103 -27.648  0.00  0.00    +0.146 HD
ATOM     13  H   UNL     1      32.540 -15.631 -28.393  0.00  0.00    +0.146 HD
ENDROOT
BRANCH  10  15
ATOM     14  O   UNL     1      36.660 -18.843 -21.243  0.00  0.00    -0.287 OA
ATOM     15  C   UNL     1      35.510 -19.111 -21.624  0.00  0.00    +0.196 C 
BRANCH  15  16
ATOM     16  C   UNL     1      34.711 -20.051 -20.782  0.00  0.00    +0.039 C 
ATOM     17  C   UNL     1      33.320 -19.960 -20.763  0.00  0.00    +0.003 C 
ATOM     18  C   UNL     1      35.356 -21.022 -20.015  0.00  0.00    +0.003 C 
ATOM     19  C   UNL     1      32.574 -20.838 -19.977  0.00  0.00    +0.000 C 
ATOM     20  C   UNL     1      34.610 -21.900 -19.229  0.00  0.00    +0.000 C 
ATOM     21  C   UNL     1      33.219 -21.808 -19.210  0.00  0.00    +0.000 C 
ENDBRANCH  15  16
ENDBRANCH  10  15
BRANCH   1  22
ATOM     22  C   UNL     1      32.876 -13.280 -25.423  0.00  0.00    +0.109 C 
BRANCH  22  23
ATOM     23  C   UNL     1      33.726 -12.455 -24.461  0.00  0.00    +0.107 C 
BRANCH  23  26
ATOM     24  O   UNL     1      32.709 -10.480 -23.548  0.00  0.00    -0.275 OA
ATOM     25  N   UNL     1      33.872 -10.223 -25.537  0.00  0.00    -0.279 N 
ATOM     26  C   UNL     1      33.382 -10.969 -24.460  0.00  0.00    +0.227 C 
ATOM     27  C   UNL     1      34.666 -10.821 -26.608  0.00  0.00    +0.115 C 
BRANCH  25  28
ATOM     28  C   UNL     1      33.629  -8.806 -25.672  0.00  0.00    +0.075 C 
ATOM     29  C   UNL     1      32.283  -8.555 -26.354  0.00  0.00    +0.020 C 
ATOM     30  C   UNL     1      34.774  -8.130 -26.432  0.00  0.00    +0.020 C 
ATOM     31  C   UNL     1      32.023  -7.065 -26.558  0.00  0.00    +0.002 C 
ATOM     32  C   UNL     1      34.512  -6.640 -26.634  0.00  0.00    +0.002 C 
ATOM     33  C   UNL     1      33.167  -6.393 -27.312  0.00  0.00    +0.000 C 
ENDBRANCH  25  28
ENDBRANCH  23  26
ENDBRANCH  22  23
ENDBRANCH   1  22
TORSDOF 6
ENDMDL
MODEL 3
REMARK VINA RESULT:     -12.1      6.537     11.139
REMARK  Name = 16741238
REMARK  6 active torsions:
REMARK  status: ('A' for Active; 'I' for Inactive)
REMARK    1  A    between atoms: N_1  and  C_22
REMARK    2  A    between atoms: C_10  and  C_15
REMARK    3  A    between atoms: C_15  and  C_16
REMARK    4  A    between atoms: C_22  and  C_23
REMARK    5  A    between atoms: C_23  and  C_26
REMARK    6  A    between atoms: N_25  and  C_28
REMARK                            x       y       z     vdW  Elec       q    Type
REMARK                         _______ _______ _______ _____ _____    ______ ____
ROOT
ATOM      1  N   UNL     1      32.949 -23.110 -17.537  0.00  0.00    -0.249 N 
ATOM      2  N   UNL     1      31.669 -23.238 -15.505  0.00  0.00    -0.373 NA
ATOM      3  N   UNL     1      30.674 -22.497 -17.457  0.00  0.00    -0.321 N 
ATOM      4  C   UNL     1      34.186 -23.603 -16.927  0.00  0.00    +0.071 C 
ATOM      5  C   UNL     1      34.032 -23.903 -15.463  0.00  0.00    +0.045 C 
ATOM      6  C   UNL     1      31.781 -22.965 -16.782  0.00  0.00    +0.239 C 
ATOM      7  C   UNL     1      32.800 -23.712 -14.822  0.00  0.00    +0.136 C 
ATOM      8  C   UNL     1      35.131 -24.380 -14.733  0.00  0.00    +0.007 C 
ATOM      9  C   UNL     1      32.687 -24.002 -13.456  0.00  0.00    +0.032 C 
ATOM     10  C   UNL     1      35.006 -24.665 -13.374  0.00  0.00    +0.039 C 
ATOM     11  C   UNL     1      33.783 -24.476 -12.735  0.00  0.00    +0.006 C 
ATOM     12  H   UNL     1      30.736 -22.287 -18.417  0.00  0.00    +0.146 HD
ATOM     13  H   UNL     1      29.822 -22.374 -16.979  0.00  0.00    +0.146 HD
ENDROOT
BRANCH  10  15
ATOM     14  O   UNL     1      36.047 -25.403 -11.413  0.00  0.00    -0.287 OA
ATOM     15  C   UNL     1      36.150 -25.158 -12.625  0.00  0.00    +0.196 C 
BRANCH  15  16
ATOM     16  C   UNL     1      37.482 -25.392 -13.260  0.00  0.00    +0.039 C 
ATOM     17  C   UNL     1      37.653 -26.448 -14.154  0.00  0.00    +0.003 C 
ATOM     18  C   UNL     1      38.556 -24.554 -12.959  0.00  0.00    +0.003 C 
ATOM     19  C   UNL     1      38.896 -26.667 -14.747  0.00  0.00    +0.000 C 
ATOM     20  C   UNL     1      39.799 -24.772 -13.552  0.00  0.00    +0.000 C 
ATOM     21  C   UNL     1      39.969 -25.829 -14.446  0.00  0.00    +0.000 C 
ENDBRANCH  15  16
ENDBRANCH  10  15
BRANCH   1  22
ATOM     22  C   UNL     1      33.041 -22.798 -18.959  0.00  0.00    +0.109 C 
BRANCH  22  23
ATOM     23  C   UNL     1      34.040 -21.669 -19.194  0.00  0.00    +0.107 C 
BRANCH  23  26
ATOM     24  O   UNL     1      32.321 -20.431 -20.324  0.00  0.00    -0.275 OA
ATOM     25  N   UNL     1      34.509 -19.803 -20.764  0.00  0.00    -0.279 N 
ATOM     26  C   UNL     1      33.531 -20.586 -20.140  0.00  0.00    +0.227 C 
ATOM     27  C   UNL     1      35.938 -20.003 -20.532  0.00  0.00    +0.115 C 
BRANCH  25  28
ATOM     28  C   UNL     1      34.179 -18.740 -21.682  0.00  0.00    +0.075 C 
ATOM     29  C   UNL     1      34.347 -19.210 -23.129  0.00  0.00    +0.020 C 
ATOM     30  C   UNL     1      35.027 -17.496 -21.398  0.00  0.00    +0.020 C 
ATOM     31  C   UNL     1      34.056 -18.089 -24.123  0.00  0.00    +0.002 C 
ATOM     32  C   UNL     1      34.733 -16.377 -22.394  0.00  0.00    +0.002 C 
ATOM     33  C   UNL     1      34.899 -16.849 -23.836  0.00  0.00    +0.000 C 
ENDBRANCH  25  28
ENDBRANCH  23  26
ENDBRANCH  22  23
ENDBRANCH   1  22
TORSDOF 6
ENDMDL
MODEL 4
REMARK VINA RESULT:     -11.9      6.073     10.731
REMARK  Name = 16741238
REMARK  6 active torsions:
REMARK  status: ('A' for Active; 'I' for Inactive)
REMARK    1  A    between atoms: N_1  and  C_22
REMARK    2  A    between atoms: C_10  and  C_15
REMARK    3  A    between atoms: C_15  and  C_16
REMARK    4  A    between atoms: C_22  and  C_23
REMARK    5  A    between atoms: C_23  and  C_26
REMARK    6  A    between atoms: N_25  and  C_28
REMARK                            x       y       z     vdW  Elec       q    Type
REMARK                         _______ _______ _______ _____ _____    ______ ____
ROOT
ATOM      1  N   UNL     1      35.756 -22.481 -17.200  0.00  0.00    -0.249 N 
ATOM      2  N   UNL     1      36.228 -23.311 -14.993  0.00  0.00    -0.373 NA
ATOM      3  N   UNL     1      37.958 -22.644 -16.376  0.00  0.00    -0.321 N 
ATOM      4  C   UNL     1      34.305 -22.631 -17.073  0.00  0.00    +0.071 C 
ATOM      5  C   UNL     1      33.893 -23.189 -15.740  0.00  0.00    +0.045 C 
ATOM      6  C   UNL     1      36.612 -22.830 -16.150  0.00  0.00    +0.239 C 
ATOM      7  C   UNL     1      34.855 -23.500 -14.770  0.00  0.00    +0.136 C 
ATOM      8  C   UNL     1      32.533 -23.397 -15.465  0.00  0.00    +0.007 C 
ATOM      9  C   UNL     1      34.441 -24.017 -13.536  0.00  0.00    +0.032 C 
ATOM     10  C   UNL     1      32.133 -23.913 -14.233  0.00  0.00    +0.039 C 
ATOM     11  C   UNL     1      33.087 -24.223 -13.267  0.00  0.00    +0.006 C 
ATOM     12  H   UNL     1      38.267 -22.283 -17.238  0.00  0.00    +0.146 HD
ATOM     13  H   UNL     1      38.610 -22.872 -15.674  0.00  0.00    +0.146 HD
ENDROOT
BRANCH  10  15
ATOM     14  O   UNL     1      30.358 -24.544 -12.846  0.00  0.00    -0.287 OA
ATOM     15  C   UNL     1      30.722 -24.126 -13.956  0.00  0.00    +0.196 C 
BRANCH  15  16
ATOM     16  C   UNL     1      29.658 -23.858 -14.970  0.00  0.00    +0.039 C 
ATOM     17  C   UNL     1      29.177 -24.895 -15.768  0.00  0.00    +0.003 C 
ATOM     18  C   UNL     1      29.144 -22.569 -15.118  0.00  0.00    +0.003 C 
ATOM     19  C   UNL     1      28.183 -24.645 -16.713  0.00  0.00    +0.000 C 
ATOM     20  C   UNL     1      28.150 -22.319 -16.063  0.00  0.00    +0.000 C 
ATOM     21  C   UNL     1      27.670 -23.357 -16.862  0.00  0.00    +0.000 C 
ENDBRANCH  15  16
ENDBRANCH  10  15
BRANCH   1  22
ATOM     22  C   UNL     1      36.214 -21.946 -18.478  0.00  0.00    +0.109 C 
BRANCH  22  23
ATOM     23  C   UNL     1      35.083 -21.203 -19.182  0.00  0.00    +0.107 C 
BRANCH  23  26
ATOM     24  O   UNL     1      36.752 -19.841 -20.244  0.00  0.00    -0.275 OA
ATOM     25  N   UNL     1      34.593 -19.666 -21.070  0.00  0.00    -0.279 N 
ATOM     26  C   UNL     1      35.566 -20.178 -20.204  0.00  0.00    +0.227 C 
ATOM     27  C   UNL     1      33.192 -20.079 -21.007  0.00  0.00    +0.115 C 
BRANCH  25  28
ATOM     28  C   UNL     1      34.900 -18.692 -22.090  0.00  0.00    +0.075 C 
ATOM     29  C   UNL     1      34.674 -17.274 -21.561  0.00  0.00    +0.020 C 
ATOM     30  C   UNL     1      34.076 -18.954 -23.354  0.00  0.00    +0.020 C 
ATOM     31  C   UNL     1      34.940 -16.223 -22.637  0.00  0.00    +0.002 C 
ATOM     32  C   UNL     1      34.345 -17.902 -24.428  0.00  0.00    +0.002 C 
ATOM     33  C   UNL     1      34.121 -16.489 -23.897  0.00  0.00    +0.000 C 
ENDBRANCH  25  28
ENDBRANCH  23  26
ENDBRANCH  22  23
ENDBRANCH   1  22
TORSDOF 6
ENDMDL
MODEL 5
REMARK VINA RESULT:     -11.9      5.418      9.736
REMARK  Name = 16741238
REMARK  6 active torsions:
REMARK  status: ('A' for Active; 'I' for Inactive)
REMARK    1  A    between atoms: N_1  and  C_22
REMARK    2  A    between atoms: C_10  and  C_15
REMARK    3  A    between atoms: C_15  and  C_16
REMARK    4  A    between atoms: C_22  and  C_23
REMARK    5  A    between atoms: C_23  and  C_26
REMARK    6  A    between atoms: N_25  and  C_28
REMARK                            x       y       z     vdW  Elec       q    Type
REMARK                         _______ _______ _______ _____ _____    ______ ____
ROOT
ATOM      1  N   UNL     1      34.363 -21.965 -19.199  0.00  0.00    -0.249 N 
ATOM      2  N   UNL     1      32.205 -22.434 -18.248  0.00  0.00    -0.373 NA
ATOM      3  N   UNL     1      32.365 -21.546 -20.378  0.00  0.00    -0.321 N 
ATOM      4  C   UNL     1      35.110 -22.428 -18.028  0.00  0.00    +0.071 C 
ATOM      5  C   UNL     1      34.215 -22.912 -16.922  0.00  0.00    +0.045 C 
ATOM      6  C   UNL     1      32.965 -22.002 -19.224  0.00  0.00    +0.239 C 
ATOM      7  C   UNL     1      32.822 -22.896 -17.075  0.00  0.00    +0.136 C 
ATOM      8  C   UNL     1      34.780 -23.384 -15.729  0.00  0.00    +0.007 C 
ATOM      9  C   UNL     1      32.013 -23.355 -16.027  0.00  0.00    +0.032 C 
ATOM     10  C   UNL     1      33.965 -23.838 -14.692  0.00  0.00    +0.039 C 
ATOM     11  C   UNL     1      32.580 -23.824 -14.842  0.00  0.00    +0.006 C 
ATOM     12  H   UNL     1      32.918 -21.219 -21.124  0.00  0.00    +0.146 HD
ATOM     13  H   UNL     1      31.384 -21.548 -20.455  0.00  0.00    +0.146 HD
ENDROOT
BRANCH  10  15
ATOM     14  O   UNL     1      33.878 -24.403 -12.424  0.00  0.00    -0.287 OA
ATOM     15  C   UNL     1      34.558 -24.326 -13.458  0.00  0.00    +0.196 C 
BRANCH  15  16
ATOM     16  C   UNL     1      35.988 -24.752 -13.371  0.00  0.00    +0.039 C 
ATOM     17  C   UNL     1      36.886 -24.027 -12.589  0.00  0.00    +0.003 C 
ATOM     18  C   UNL     1      36.424 -25.877 -14.072  0.00  0.00    +0.003 C 
ATOM     19  C   UNL     1      38.220 -24.426 -12.507  0.00  0.00    +0.000 C 
ATOM     20  C   UNL     1      37.758 -26.276 -13.990  0.00  0.00    +0.000 C 
ATOM     21  C   UNL     1      38.656 -25.550 -13.208  0.00  0.00    +0.000 C 
ENDBRANCH  15  16
ENDBRANCH  10  15
BRANCH   1  22
ATOM     22  C   UNL     1      35.183 -21.478 -20.304  0.00  0.00    +0.109 C 
BRANCH  22  23
ATOM     23  C   UNL     1      36.014 -20.277 -19.864  0.00  0.00    +0.107 C 
BRANCH  23  26
ATOM     24  O   UNL     1      37.427 -19.065 -21.381  0.00  0.00    -0.275 OA
ATOM     25  N   UNL     1      35.154 -18.622 -21.502  0.00  0.00    -0.279 N 
ATOM     26  C   UNL     1      36.278 -19.271 -20.980  0.00  0.00    +0.227 C 
ATOM     27  C   UNL     1      33.802 -18.881 -21.013  0.00  0.00    +0.115 C 
BRANCH  25  28
ATOM     28  C   UNL     1      35.247 -17.647 -22.563  0.00  0.00    +0.075 C 
ATOM     29  C   UNL     1      34.654 -16.309 -22.114  0.00  0.00    +0.020 C 
ATOM     30  C   UNL     1      34.563 -18.161 -23.833  0.00  0.00    +0.020 C 
ATOM     31  C   UNL     1      34.690 -15.273 -23.235  0.00  0.00    +0.002 C 
ATOM     32  C   UNL     1      34.601 -17.123 -24.952  0.00  0.00    +0.002 C 
ATOM     33  C   UNL     1      34.012 -15.790 -24.501  0.00  0.00    +0.000 C 
ENDBRANCH  25  28
ENDBRANCH  23  26
ENDBRANCH  22  23
ENDBRANCH   1  22
TORSDOF 6
ENDMDL
MODEL 6
REMARK VINA RESULT:     -11.8      5.366      9.776
REMARK  Name = 16741238
REMARK  6 active torsions:
REMARK  status: ('A' for Active; 'I' for Inactive)
REMARK    1  A    between atoms: N_1  and  C_22
REMARK    2  A    between atoms: C_10  and  C_15
REMARK    3  A    between atoms: C_15  and  C_16
REMARK    4  A    between atoms: C_22  and  C_23
REMARK    5  A    between atoms: C_23  and  C_26
REMARK    6  A    between atoms: N_25  and  C_28
REMARK                            x       y       z     vdW  Elec       q    Type
REMARK                         _______ _______ _______ _____ _____    ______ ____
ROOT
ATOM      1  N   UNL     1      34.320 -21.873 -19.296  0.00  0.00    -0.249 N 
ATOM      2  N   UNL     1      32.179 -22.376 -18.321  0.00  0.00    -0.373 NA
ATOM      3  N   UNL     1      32.302 -21.458 -20.441  0.00  0.00    -0.321 N 
ATOM      4  C   UNL     1      35.087 -22.344 -18.141  0.00  0.00    +0.071 C 
ATOM      5  C   UNL     1      34.212 -22.851 -17.029  0.00  0.00    +0.045 C 
ATOM      6  C   UNL     1      32.922 -21.924 -19.302  0.00  0.00    +0.239 C 
ATOM      7  C   UNL     1      32.817 -22.847 -17.163  0.00  0.00    +0.136 C 
ATOM      8  C   UNL     1      34.798 -23.334 -15.850  0.00  0.00    +0.007 C 
ATOM      9  C   UNL     1      32.027 -23.327 -16.111  0.00  0.00    +0.032 C 
ATOM     10  C   UNL     1      34.001 -23.809 -14.809  0.00  0.00    +0.039 C 
ATOM     11  C   UNL     1      32.615 -23.806 -14.940  0.00  0.00    +0.006 C 
ATOM     12  H   UNL     1      32.842 -21.115 -21.190  0.00  0.00    +0.146 HD
ATOM     13  H   UNL     1      31.320 -21.468 -20.506  0.00  0.00    +0.146 HD
ENDROOT
BRANCH  10  15
ATOM     14  O   UNL     1      33.979 -24.316 -12.526  0.00  0.00    -0.287 OA
ATOM     15  C   UNL     1      34.616 -24.307 -13.590  0.00  0.00    +0.196 C 
BRANCH  15  16
ATOM     16  C   UNL     1      36.017 -24.825 -13.553  0.00  0.00    +0.039 C 
ATOM     17  C   UNL     1      36.366 -25.948 -14.303  0.00  0.00    +0.003 C 
ATOM     18  C   UNL     1      36.978 -24.184 -12.770  0.00  0.00    +0.003 C 
ATOM     19  C   UNL     1      37.674 -26.431 -14.269  0.00  0.00    +0.000 C 
ATOM     20  C   UNL     1      38.286 -24.666 -12.737  0.00  0.00    +0.000 C 
ATOM     21  C   UNL     1      38.634 -25.790 -13.486  0.00  0.00    +0.000 C 
ENDBRANCH  15  16
ENDBRANCH  10  15
BRANCH   1  22
ATOM     22  C   UNL     1      35.120 -21.364 -20.405  0.00  0.00    +0.109 C 
BRANCH  22  23
ATOM     23  C   UNL     1      35.120 -19.838 -20.407  0.00  0.00    +0.107 C 
BRANCH  23  26
ATOM     24  O   UNL     1      33.327 -19.277 -21.903  0.00  0.00    -0.275 OA
ATOM     25  N   UNL     1      35.456 -18.621 -22.545  0.00  0.00    -0.279 N 
ATOM     26  C   UNL     1      34.539 -19.227 -21.679  0.00  0.00    +0.227 C 
ATOM     27  C   UNL     1      36.888 -18.573 -22.261  0.00  0.00    +0.115 C 
BRANCH  25  28
ATOM     28  C   UNL     1      35.055 -17.999 -23.784  0.00  0.00    +0.075 C 
ATOM     29  C   UNL     1      34.324 -16.682 -23.511  0.00  0.00    +0.020 C 
ATOM     30  C   UNL     1      34.192 -18.953 -24.615  0.00  0.00    +0.020 C 
ATOM     31  C   UNL     1      33.842 -16.027 -24.803  0.00  0.00    +0.002 C 
ATOM     32  C   UNL     1      33.711 -18.295 -25.907  0.00  0.00    +0.002 C 
ATOM     33  C   UNL     1      32.986 -16.982 -25.632  0.00  0.00    +0.000 C 
ENDBRANCH  25  28
ENDBRANCH  23  26
ENDBRANCH  22  23
ENDBRANCH   1  22
TORSDOF 6
ENDMDL
MODEL 7
REMARK VINA RESULT:     -11.8      1.592      9.674
REMARK  Name = 16741238
REMARK  6 active torsions:
REMARK  status: ('A' for Active; 'I' for Inactive)
REMARK    1  A    between atoms: N_1  and  C_22
REMARK    2  A    between atoms: C_10  and  C_15
REMARK    3  A    between atoms: C_15  and  C_16
REMARK    4  A    between atoms: C_22  and  C_23
REMARK    5  A    between atoms: C_23  and  C_26
REMARK    6  A    between atoms: N_25  and  C_28
REMARK                            x       y       z     vdW  Elec       q    Type
REMARK                         _______ _______ _______ _____ _____    ______ ____
ROOT
ATOM      1  N   UNL     1      33.053 -15.576 -25.620  0.00  0.00    -0.249 N 
ATOM      2  N   UNL     1      32.359 -13.945 -27.246  0.00  0.00    -0.373 NA
ATOM      3  N   UNL     1      32.083 -16.201 -27.675  0.00  0.00    -0.321 N 
ATOM      4  C   UNL     1      33.529 -14.583 -24.655  0.00  0.00    +0.071 C 
ATOM      5  C   UNL     1      33.359 -13.171 -25.142  0.00  0.00    +0.045 C 
ATOM      6  C   UNL     1      32.502 -15.185 -26.845  0.00  0.00    +0.239 C 
ATOM      7  C   UNL     1      32.790 -12.914 -26.397  0.00  0.00    +0.136 C 
ATOM      8  C   UNL     1      33.773 -12.103 -24.332  0.00  0.00    +0.007 C 
ATOM      9  C   UNL     1      32.644 -11.588 -26.824  0.00  0.00    +0.032 C 
ATOM     10  C   UNL     1      33.622 -10.787 -24.767  0.00  0.00    +0.039 C 
ATOM     11  C   UNL     1      33.057 -10.529 -26.014  0.00  0.00    +0.006 C 
ATOM     12  H   UNL     1      32.179 -17.139 -27.392  0.00  0.00    +0.146 HD
ATOM     13  H   UNL     1      31.686 -15.989 -28.551  0.00  0.00    +0.146 HD
ENDROOT
BRANCH  10  15
ATOM     14  O   UNL     1      35.229  -9.291 -23.962  0.00  0.00    -0.287 OA
ATOM     15  C   UNL     1      34.054  -9.686 -23.923  0.00  0.00    +0.196 C 
BRANCH  15  16
ATOM     16  C   UNL     1      33.127  -8.986 -22.983  0.00  0.00    +0.039 C 
ATOM     17  C   UNL     1      31.942  -9.603 -22.583  0.00  0.00    +0.003 C 
ATOM     18  C   UNL     1      33.447  -7.715 -22.505  0.00  0.00    +0.003 C 
ATOM     19  C   UNL     1      31.077  -8.950 -21.706  0.00  0.00    +0.000 C 
ATOM     20  C   UNL     1      32.582  -7.062 -21.628  0.00  0.00    +0.000 C 
ATOM     21  C   UNL     1      31.396  -7.679 -21.228  0.00  0.00    +0.000 C 
ENDBRANCH  15  16
ENDBRANCH  10  15
BRANCH   1  22
ATOM     22  C   UNL     1      33.197 -16.966 -25.201  0.00  0.00    +0.109 C 
BRANCH  22  23
ATOM     23  C   UNL     1      34.225 -17.081 -24.079  0.00  0.00    +0.107 C 
BRANCH  23  26
ATOM     24  O   UNL     1      34.234 -19.477 -24.245  0.00  0.00    -0.275 OA
ATOM     25  N   UNL     1      34.627 -18.582 -22.143  0.00  0.00    -0.279 N 
ATOM     26  C   UNL     1      34.359 -18.492 -23.513  0.00  0.00    +0.227 C 
ATOM     27  C   UNL     1      34.771 -17.403 -21.293  0.00  0.00    +0.115 C 
BRANCH  25  28
ATOM     28  C   UNL     1      34.783 -19.848 -21.467  0.00  0.00    +0.075 C 
ATOM     29  C   UNL     1      33.546 -20.159 -20.621  0.00  0.00    +0.020 C 
ATOM     30  C   UNL     1      36.056 -19.856 -20.616  0.00  0.00    +0.020 C 
ATOM     31  C   UNL     1      33.704 -21.468 -19.851  0.00  0.00    +0.002 C 
ATOM     32  C   UNL     1      36.211 -21.166 -19.848  0.00  0.00    +0.002 C 
ATOM     33  C   UNL     1      34.975 -21.475 -19.008  0.00  0.00    +0.000 C 
ENDBRANCH  25  28
ENDBRANCH  23  26
ENDBRANCH  22  23
ENDBRANCH   1  22
TORSDOF 6
ENDMDL
MODEL 8
REMARK VINA RESULT:     -11.3      1.688      2.559
REMARK  Name = 16741238
REMARK  6 active torsions:
REMARK  status: ('A' for Active; 'I' for Inactive)
REMARK    1  A    between atoms: N_1  and  C_22
REMARK    2  A    between atoms: C_10  and  C_15
REMARK    3  A    between atoms: C_15  and  C_16
REMARK    4  A    between atoms: C_22  and  C_23
REMARK    5  A    between atoms: C_23  and  C_26
REMARK    6  A    between atoms: N_25  and  C_28
REMARK                            x       y       z     vdW  Elec       q    Type
REMARK                         _______ _______ _______ _____ _____    ______ ____
ROOT
ATOM      1  N   UNL     1      33.002 -12.983 -26.061  0.00  0.00    -0.249 N 
ATOM      2  N   UNL     1      31.744 -14.481 -27.461  0.00  0.00    -0.373 NA
ATOM      3  N   UNL     1      31.537 -12.193 -27.729  0.00  0.00    -0.321 N 
ATOM      4  C   UNL     1      33.660 -14.052 -25.307  0.00  0.00    +0.071 C 
ATOM      5  C   UNL     1      33.238 -15.423 -25.756  0.00  0.00    +0.045 C 
ATOM      6  C   UNL     1      32.094 -13.275 -27.083  0.00  0.00    +0.239 C 
ATOM      7  C   UNL     1      32.313 -15.579 -26.797  0.00  0.00    +0.136 C 
ATOM      8  C   UNL     1      33.777 -16.555 -25.127  0.00  0.00    +0.007 C 
ATOM      9  C   UNL     1      31.940 -16.869 -27.195  0.00  0.00    +0.032 C 
ATOM     10  C   UNL     1      33.398 -17.835 -25.531  0.00  0.00    +0.039 C 
ATOM     11  C   UNL     1      32.479 -17.992 -26.566  0.00  0.00    +0.006 C 
ATOM     12  H   UNL     1      31.787 -11.278 -27.462  0.00  0.00    +0.146 HD
ATOM     13  H   UNL     1      30.891 -12.334 -28.458  0.00  0.00    +0.146 HD
ENDROOT
BRANCH  10  15
ATOM     14  O   UNL     1      34.063 -20.077 -25.485  0.00  0.00    -0.287 OA
ATOM     15  C   UNL     1      33.960 -19.003 -24.873  0.00  0.00    +0.196 C 
BRANCH  15  16
ATOM     16  C   UNL     1      34.436 -18.973 -23.457  0.00  0.00    +0.039 C 
ATOM     17  C   UNL     1      35.752 -18.614 -23.171  0.00  0.00    +0.003 C 
ATOM     18  C   UNL     1      33.562 -19.303 -22.420  0.00  0.00    +0.003 C 
ATOM     19  C   UNL     1      36.196 -18.586 -21.849  0.00  0.00    +0.000 C 
ATOM     20  C   UNL     1      34.006 -19.275 -21.099  0.00  0.00    +0.000 C 
ATOM     21  C   UNL     1      35.323 -18.916 -20.813  0.00  0.00    +0.000 C 
ENDBRANCH  15  16
ENDBRANCH  10  15
BRANCH   1  22
ATOM     22  C   UNL     1      33.371 -11.628 -25.664  0.00  0.00    +0.109 C 
BRANCH  22  23
ATOM     23  C   UNL     1      33.074 -11.406 -24.184  0.00  0.00    +0.107 C 
BRANCH  23  26
ATOM     24  O   UNL     1      33.833  -9.136 -24.373  0.00  0.00    -0.275 OA
ATOM     25  N   UNL     1      32.335  -9.588 -22.663  0.00  0.00    -0.279 N 
ATOM     26  C   UNL     1      33.126  -9.941 -23.761  0.00  0.00    +0.227 C 
ATOM     27  C   UNL     1      31.504 -10.558 -21.952  0.00  0.00    +0.115 C 
BRANCH  25  28
ATOM     28  C   UNL     1      32.279  -8.240 -22.149  0.00  0.00    +0.075 C 
ATOM     29  C   UNL     1      32.631  -8.219 -20.660  0.00  0.00    +0.020 C 
ATOM     30  C   UNL     1      30.904  -7.618 -22.406  0.00  0.00    +0.020 C 
ATOM     31  C   UNL     1      32.529  -6.812 -20.077  0.00  0.00    +0.002 C 
ATOM     32  C   UNL     1      30.805  -6.211 -21.822  0.00  0.00    +0.002 C 
ATOM     33  C   UNL     1      31.159  -6.193 -20.338  0.00  0.00    +0.000 C 
ENDBRANCH  25  28
ENDBRANCH  23  26
ENDBRANCH  22  23
ENDBRANCH   1  22
TORSDOF 6
ENDMDL
MODEL 9
REMARK VINA RESULT:     -11.0      5.651     10.174
REMARK  Name = 16741238
REMARK  6 active torsions:
REMARK  status: ('A' for Active; 'I' for Inactive)
REMARK    1  A    between atoms: N_1  and  C_22
REMARK    2  A    between atoms: C_10  and  C_15
REMARK    3  A    between atoms: C_15  and  C_16
REMARK    4  A    between atoms: C_22  and  C_23
REMARK    5  A    between atoms: C_23  and  C_26
REMARK    6  A    between atoms: N_25  and  C_28
REMARK                            x       y       z     vdW  Elec       q    Type
REMARK                         _______ _______ _______ _____ _____    ______ ____
ROOT
ATOM      1  N   UNL     1      34.922 -22.174 -18.557  0.00  0.00    -0.249 N 
ATOM      2  N   UNL     1      35.527 -22.717 -16.293  0.00  0.00    -0.373 NA
ATOM      3  N   UNL     1      37.121 -21.897 -17.755  0.00  0.00    -0.321 N 
ATOM      4  C   UNL     1      33.516 -22.551 -18.396  0.00  0.00    +0.071 C 
ATOM      5  C   UNL     1      33.203 -23.050 -17.013  0.00  0.00    +0.045 C 
ATOM      6  C   UNL     1      35.824 -22.283 -17.494  0.00  0.00    +0.239 C 
ATOM      7  C   UNL     1      34.204 -23.111 -16.034  0.00  0.00    +0.136 C 
ATOM      8  C   UNL     1      31.898 -23.455 -16.700  0.00  0.00    +0.007 C 
ATOM      9  C   UNL     1      33.883 -23.578 -14.754  0.00  0.00    +0.032 C 
ATOM     10  C   UNL     1      31.589 -23.920 -15.422  0.00  0.00    +0.039 C 
ATOM     11  C   UNL     1      32.582 -23.981 -14.448  0.00  0.00    +0.006 C 
ATOM     12  H   UNL     1      37.365 -21.567 -18.650  0.00  0.00    +0.146 HD
ATOM     13  H   UNL     1      37.802 -21.951 -17.047  0.00  0.00    +0.146 HD
ENDROOT
BRANCH  10  15
ATOM     14  O   UNL     1      30.035 -25.257 -14.296  0.00  0.00    -0.287 OA
ATOM     15  C   UNL     1      30.233 -24.339 -15.107  0.00  0.00    +0.196 C 
BRANCH  15  16
ATOM     16  C   UNL     1      29.033 -23.700 -15.726  0.00  0.00    +0.039 C 
ATOM     17  C   UNL     1      28.477 -24.237 -16.887  0.00  0.00    +0.003 C 
ATOM     18  C   UNL     1      28.467 -22.566 -15.143  0.00  0.00    +0.003 C 
ATOM     19  C   UNL     1      27.357 -23.641 -17.464  0.00  0.00    +0.000 C 
ATOM     20  C   UNL     1      27.346 -21.970 -15.720  0.00  0.00    +0.000 C 
ATOM     21  C   UNL     1      26.791 -22.508 -16.882  0.00  0.00    +0.000 C 
ENDBRANCH  15  16
ENDBRANCH  10  15
BRANCH   1  22
ATOM     22  C   UNL     1      35.284 -21.686 -19.884  0.00  0.00    +0.109 C 
BRANCH  22  23
ATOM     23  C   UNL     1      35.098 -20.174 -19.965  0.00  0.00    +0.107 C 
BRANCH  23  26
ATOM     24  O   UNL     1      33.017 -20.069 -21.159  0.00  0.00    -0.275 OA
ATOM     25  N   UNL     1      34.806 -18.926 -22.091  0.00  0.00    -0.279 N 
ATOM     26  C   UNL     1      34.202 -19.728 -21.117  0.00  0.00    +0.227 C 
ATOM     27  C   UNL     1      36.212 -18.533 -22.023  0.00  0.00    +0.115 C 
BRANCH  25  28
ATOM     28  C   UNL     1      34.085 -18.426 -23.238  0.00  0.00    +0.075 C 
ATOM     29  C   UNL     1      34.294 -19.343 -24.444  0.00  0.00    +0.020 C 
ATOM     30  C   UNL     1      34.500 -16.986 -23.553  0.00  0.00    +0.020 C 
ATOM     31  C   UNL     1      33.586 -18.810 -25.687  0.00  0.00    +0.002 C 
ATOM     32  C   UNL     1      33.790 -16.456 -24.797  0.00  0.00    +0.002 C 
ATOM     33  C   UNL     1      33.998 -17.374 -25.997  0.00  0.00    +0.000 C 
ENDBRANCH  25  28
ENDBRANCH  23  26
ENDBRANCH  22  23
ENDBRANCH   1  22
TORSDOF 6
ENDMDL
