MODEL 1
REMARK VINA RESULT:     -12.2      0.000      0.000
REMARK  Name = 25118925
REMARK  3 active torsions:
REMARK  status: ('A' for Active; 'I' for Inactive)
REMARK    1  A    between atoms: C_3  and  C_12
REMARK    2  A    between atoms: C_5  and  C_24
REMARK    3  A    between atoms: C_27  and  C_33
REMARK                            x       y       z     vdW  Elec       q    Type
REMARK                         _______ _______ _______ _____ _____    ______ ____
ROOT
ATOM      1  N   UNL     1      34.777 -17.832 -22.130  0.00  0.00    -0.279 N 
ATOM      2  N   UNL     1      33.285 -18.711 -23.522  0.00  0.00    -0.394 NA
ATOM      3  C   UNL     1      33.987 -18.909 -22.428  0.00  0.00    +0.160 C 
ATOM      4  C   UNL     1      34.564 -16.889 -23.096  0.00  0.00    +0.152 C 
ATOM      5  C   UNL     1      33.640 -17.454 -23.943  0.00  0.00    +0.130 C 
ATOM      6  C   UNL     1      35.675 -17.700 -21.008  0.00  0.00    +0.115 C 
ENDROOT
BRANCH   3  12
ATOM      7  N   UNL     1      34.288 -21.670 -19.121  0.00  0.00    -0.296 N 
ATOM      8  N   UNL     1      33.424 -23.333 -17.644  0.00  0.00    -0.233 NA
ATOM      9  N   UNL     1      36.699 -22.847 -15.359  0.00  0.00    -0.223 N 
ATOM     10  N   UNL     1      34.606 -24.035 -15.629  0.00  0.00    -0.232 NA
ATOM     11  N   UNL     1      37.434 -21.904 -15.977  0.00  0.00    -0.183 NA
ATOM     12  C   UNL     1      33.963 -20.157 -21.567  0.00  0.00    +0.070 C 
ATOM     13  C   UNL     1      32.962 -20.040 -20.407  0.00  0.00    +0.030 C 
ATOM     14  C   UNL     1      35.352 -20.504 -21.012  0.00  0.00    +0.030 C 
ATOM     15  C   UNL     1      32.934 -21.317 -19.569  0.00  0.00    +0.092 C 
ATOM     16  C   UNL     1      35.314 -21.776 -20.165  0.00  0.00    +0.092 C 
ATOM     17  C   UNL     1      34.400 -22.449 -17.964  0.00  0.00    +0.118 C 
ATOM     18  C   UNL     1      35.507 -22.333 -17.128  0.00  0.00    +0.152 C 
ATOM     19  C   UNL     1      35.535 -23.142 -16.005  0.00  0.00    +0.133 C 
ATOM     20  C   UNL     1      36.702 -21.595 -17.053  0.00  0.00    +0.105 C 
ATOM     21  C   UNL     1      33.586 -24.061 -16.513  0.00  0.00    +0.252 C 
ATOM     22  H   UNL     1      36.975 -23.283 -14.521  0.00  0.00    +0.176 HD
ENDBRANCH   3  12
BRANCH   5  24
ATOM     23  F   UNL     1      31.582 -15.019 -28.498  0.00  0.00    -0.204 F 
ATOM     24  C   UNL     1      33.111 -16.825 -25.113  0.00  0.00    +0.027 C 
ATOM     25  C   UNL     1      33.323 -15.464 -25.331  0.00  0.00    +0.008 C 
ATOM     26  C   UNL     1      32.385 -17.574 -26.040  0.00  0.00    +0.005 C 
ATOM     27  C   UNL     1      32.808 -14.850 -26.473  0.00  0.00    +0.099 C 
ATOM     28  C   UNL     1      31.869 -16.962 -27.181  0.00  0.00    +0.030 C 
ATOM     29  C   UNL     1      32.081 -15.600 -27.398  0.00  0.00    +0.144 C 
BRANCH  27  33
ATOM     30  F   UNL     1      33.832 -13.129 -27.780  0.00  0.00    -0.166 F 
ATOM     31  F   UNL     1      31.886 -12.692 -26.928  0.00  0.00    -0.166 F 
ATOM     32  F   UNL     1      33.638 -12.783 -25.642  0.00  0.00    -0.166 F 
ATOM     33  C   UNL     1      33.035 -13.395 -26.703  0.00  0.00    +0.421 C 
ENDBRANCH  27  33
ENDBRANCH   5  24
TORSDOF 3
ENDMDL
MODEL 2
REMARK VINA RESULT:     -12.0      7.061     11.975
REMARK  Name = 25118925
REMARK  3 active torsions:
REMARK  status: ('A' for Active; 'I' for Inactive)
REMARK    1  A    between atoms: C_3  and  C_12
REMARK    2  A    between atoms: C_5  and  C_24
REMARK    3  A    between atoms: C_27  and  C_33
REMARK                            x       y       z     vdW  Elec       q    Type
REMARK                         _______ _______ _______ _____ _____    ______ ____
ROOT
ATOM      1  N   UNL     1      33.085 -13.143 -25.330  0.00  0.00    -0.279 N 
ATOM      2  N   UNL     1      33.414 -13.097 -23.133  0.00  0.00    -0.394 NA
ATOM      3  C   UNL     1      33.028 -12.403 -24.182  0.00  0.00    +0.160 C 
ATOM      4  C   UNL     1      33.536 -14.388 -24.992  0.00  0.00    +0.152 C 
ATOM      5  C   UNL     1      33.732 -14.336 -23.633  0.00  0.00    +0.130 C 
ATOM      6  C   UNL     1      32.738 -12.706 -26.661  0.00  0.00    +0.115 C 
ENDROOT
BRANCH   3  12
ATOM      7  N   UNL     1      32.504  -8.224 -23.225  0.00  0.00    -0.296 N 
ATOM      8  N   UNL     1      32.472  -5.899 -23.763  0.00  0.00    -0.233 NA
ATOM      9  N   UNL     1      32.257  -5.105 -19.825  0.00  0.00    -0.223 N 
ATOM     10  N   UNL     1      32.343  -4.163 -22.055  0.00  0.00    -0.232 NA
ATOM     11  N   UNL     1      32.258  -6.304 -19.214  0.00  0.00    -0.183 NA
ATOM     12  C   UNL     1      32.567 -10.958 -24.173  0.00  0.00    +0.070 C 
ATOM     13  C   UNL     1      33.719  -9.982 -24.453  0.00  0.00    +0.030 C 
ATOM     14  C   UNL     1      31.881 -10.578 -22.852  0.00  0.00    +0.030 C 
ATOM     15  C   UNL     1      33.228  -8.535 -24.466  0.00  0.00    +0.092 C 
ATOM     16  C   UNL     1      31.403  -9.125 -22.869  0.00  0.00    +0.092 C 
ATOM     17  C   UNL     1      32.451  -6.882 -22.830  0.00  0.00    +0.118 C 
ATOM     18  C   UNL     1      32.375  -6.535 -21.485  0.00  0.00    +0.152 C 
ATOM     19  C   UNL     1      32.326  -5.185 -21.185  0.00  0.00    +0.133 C 
ATOM     20  C   UNL     1      32.329  -7.171 -20.230  0.00  0.00    +0.105 C 
ATOM     21  C   UNL     1      32.417  -4.620 -23.324  0.00  0.00    +0.252 C 
ATOM     22  H   UNL     1      32.211  -4.251 -19.338  0.00  0.00    +0.176 HD
ENDBRANCH   3  12
BRANCH   5  24
ATOM     23  F   UNL     1      35.577 -18.549 -20.510  0.00  0.00    -0.204 F 
ATOM     24  C   UNL     1      34.206 -15.422 -22.832  0.00  0.00    +0.027 C 
ATOM     25  C   UNL     1      34.481 -16.656 -23.421  0.00  0.00    +0.008 C 
ATOM     26  C   UNL     1      34.397 -15.245 -21.461  0.00  0.00    +0.005 C 
ATOM     27  C   UNL     1      34.944 -17.714 -22.640  0.00  0.00    +0.099 C 
ATOM     28  C   UNL     1      34.859 -16.303 -20.679  0.00  0.00    +0.030 C 
ATOM     29  C   UNL     1      35.133 -17.538 -21.269  0.00  0.00    +0.144 C 
BRANCH  27  33
ATOM     30  F   UNL     1      34.742 -20.096 -22.569  0.00  0.00    -0.166 F 
ATOM     31  F   UNL     1      34.716 -19.165 -24.527  0.00  0.00    -0.166 F 
ATOM     32  F   UNL     1      36.573 -19.269 -23.400  0.00  0.00    -0.166 F 
ATOM     33  C   UNL     1      35.235 -19.033 -23.271  0.00  0.00    +0.421 C 
ENDBRANCH  27  33
ENDBRANCH   5  24
TORSDOF 3
ENDMDL
MODEL 3
REMARK VINA RESULT:     -11.7      1.327      2.391
REMARK  Name = 25118925
REMARK  3 active torsions:
REMARK  status: ('A' for Active; 'I' for Inactive)
REMARK    1  A    between atoms: C_3  and  C_12
REMARK    2  A    between atoms: C_5  and  C_24
REMARK    3  A    between atoms: C_27  and  C_33
REMARK                            x       y       z     vdW  Elec       q    Type
REMARK                         _______ _______ _______ _____ _____    ______ ____
ROOT
ATOM      1  N   UNL     1      34.596 -19.127 -23.976  0.00  0.00    -0.279 N 
ATOM      2  N   UNL     1      33.995 -17.762 -22.329  0.00  0.00    -0.394 NA
ATOM      3  C   UNL     1      34.242 -19.011 -22.661  0.00  0.00    +0.160 C 
ATOM      4  C   UNL     1      34.575 -17.872 -24.518  0.00  0.00    +0.152 C 
ATOM      5  C   UNL     1      34.202 -17.048 -23.483  0.00  0.00    +0.130 C 
ATOM      6  C   UNL     1      34.933 -20.342 -24.679  0.00  0.00    +0.115 C 
ENDROOT
BRANCH   3  12
ATOM      7  N   UNL     1      34.381 -21.606 -19.211  0.00  0.00    -0.296 N 
ATOM      8  N   UNL     1      33.430 -23.160 -17.670  0.00  0.00    -0.233 NA
ATOM      9  N   UNL     1      36.675 -22.667 -15.343  0.00  0.00    -0.223 N 
ATOM     10  N   UNL     1      34.548 -23.796 -15.597  0.00  0.00    -0.232 NA
ATOM     11  N   UNL     1      37.454 -21.782 -15.992  0.00  0.00    -0.183 NA
ATOM     12  C   UNL     1      34.157 -20.211 -21.737  0.00  0.00    +0.070 C 
ATOM     13  C   UNL     1      33.138 -20.001 -20.607  0.00  0.00    +0.030 C 
ATOM     14  C   UNL     1      35.522 -20.576 -21.136  0.00  0.00    +0.030 C 
ATOM     15  C   UNL     1      33.049 -21.231 -19.705  0.00  0.00    +0.092 C 
ATOM     16  C   UNL     1      35.422 -21.801 -20.226  0.00  0.00    +0.092 C 
ATOM     17  C   UNL     1      34.443 -22.328 -18.013  0.00  0.00    +0.118 C 
ATOM     18  C   UNL     1      35.536 -22.206 -17.161  0.00  0.00    +0.152 C 
ATOM     19  C   UNL     1      35.515 -22.956 -15.998  0.00  0.00    +0.133 C 
ATOM     20  C   UNL     1      36.755 -21.505 -17.099  0.00  0.00    +0.105 C 
ATOM     21  C   UNL     1      33.545 -23.833 -16.500  0.00  0.00    +0.252 C 
ATOM     22  H   UNL     1      36.919 -23.068 -14.478  0.00  0.00    +0.176 HD
ENDBRANCH   3  12
BRANCH   5  24
ATOM     23  F   UNL     1      33.590 -11.535 -23.859  0.00  0.00    -0.204 F 
ATOM     24  C   UNL     1      34.044 -15.630 -23.583  0.00  0.00    +0.027 C 
ATOM     25  C   UNL     1      33.664 -15.053 -24.795  0.00  0.00    +0.008 C 
ATOM     26  C   UNL     1      34.269 -14.823 -22.467  0.00  0.00    +0.005 C 
ATOM     27  C   UNL     1      33.510 -13.671 -24.892  0.00  0.00    +0.099 C 
ATOM     28  C   UNL     1      34.115 -13.441 -22.563  0.00  0.00    +0.030 C 
ATOM     29  C   UNL     1      33.735 -12.865 -23.776  0.00  0.00    +0.144 C 
BRANCH  27  33
ATOM     30  F   UNL     1      31.891 -12.429 -26.140  0.00  0.00    -0.166 F 
ATOM     31  F   UNL     1      33.977 -12.107 -26.640  0.00  0.00    -0.166 F 
ATOM     32  F   UNL     1      33.004 -13.972 -27.195  0.00  0.00    -0.166 F 
ATOM     33  C   UNL     1      33.105 -13.056 -26.188  0.00  0.00    +0.421 C 
ENDBRANCH  27  33
ENDBRANCH   5  24
TORSDOF 3
ENDMDL
MODEL 4
REMARK VINA RESULT:     -11.5      6.943     12.177
REMARK  Name = 25118925
REMARK  3 active torsions:
REMARK  status: ('A' for Active; 'I' for Inactive)
REMARK    1  A    between atoms: C_3  and  C_12
REMARK    2  A    between atoms: C_5  and  C_24
REMARK    3  A    between atoms: C_27  and  C_33
REMARK                            x       y       z     vdW  Elec       q    Type
REMARK                         _______ _______ _______ _____ _____    ______ ____
ROOT
ATOM      1  N   UNL     1      32.998 -12.850 -25.632  0.00  0.00    -0.279 N 
ATOM      2  N   UNL     1      33.879 -13.787 -23.821  0.00  0.00    -0.394 NA
ATOM      3  C   UNL     1      33.490 -12.657 -24.371  0.00  0.00    +0.160 C 
ATOM      4  C   UNL     1      33.078 -14.187 -25.903  0.00  0.00    +0.152 C 
ATOM      5  C   UNL     1      33.625 -14.744 -24.771  0.00  0.00    +0.130 C 
ATOM      6  C   UNL     1      32.485 -11.839 -26.525  0.00  0.00    +0.115 C 
ENDROOT
BRANCH   3  12
ATOM      7  N   UNL     1      32.942  -8.467 -23.476  0.00  0.00    -0.296 N 
ATOM      8  N   UNL     1      32.345  -6.651 -22.049  0.00  0.00    -0.233 NA
ATOM      9  N   UNL     1      32.499  -4.227 -25.257  0.00  0.00    -0.223 N 
ATOM     10  N   UNL     1      32.083  -4.370 -22.875  0.00  0.00    -0.232 NA
ATOM     11  N   UNL     1      32.836  -5.019 -26.292  0.00  0.00    -0.183 NA
ATOM     12  C   UNL     1      33.558 -11.284 -23.730  0.00  0.00    +0.070 C 
ATOM     13  C   UNL     1      32.181 -10.801 -23.252  0.00  0.00    +0.030 C 
ATOM     14  C   UNL     1      34.172 -10.237 -24.670  0.00  0.00    +0.030 C 
ATOM     15  C   UNL     1      32.276  -9.429 -22.585  0.00  0.00    +0.092 C 
ATOM     16  C   UNL     1      34.253  -8.864 -24.000  0.00  0.00    +0.092 C 
ATOM     17  C   UNL     1      32.658  -7.110 -23.285  0.00  0.00    +0.118 C 
ATOM     18  C   UNL     1      32.694  -6.215 -24.350  0.00  0.00    +0.152 C 
ATOM     19  C   UNL     1      32.400  -4.892 -24.071  0.00  0.00    +0.133 C 
ATOM     20  C   UNL     1      32.953  -6.228 -25.733  0.00  0.00    +0.105 C 
ATOM     21  C   UNL     1      32.081  -5.328 -21.923  0.00  0.00    +0.252 C 
ATOM     22  H   UNL     1      32.340  -3.260 -25.346  0.00  0.00    +0.176 HD
ENDBRANCH   3  12
BRANCH   5  24
ATOM     23  F   UNL     1      34.681 -20.161 -24.097  0.00  0.00    -0.204 F 
ATOM     24  C   UNL     1      33.898 -16.136 -24.595  0.00  0.00    +0.027 C 
ATOM     25  C   UNL     1      34.509 -16.586 -23.424  0.00  0.00    +0.008 C 
ATOM     26  C   UNL     1      33.552 -17.046 -25.594  0.00  0.00    +0.005 C 
ATOM     27  C   UNL     1      34.775 -17.944 -23.253  0.00  0.00    +0.099 C 
ATOM     28  C   UNL     1      33.818 -18.404 -25.424  0.00  0.00    +0.030 C 
ATOM     29  C   UNL     1      34.430 -18.853 -24.253  0.00  0.00    +0.144 C 
BRANCH  27  33
ATOM     30  F   UNL     1      34.906 -19.590 -21.523  0.00  0.00    -0.166 F 
ATOM     31  F   UNL     1      36.766 -18.660 -22.139  0.00  0.00    -0.166 F 
ATOM     32  F   UNL     1      35.319 -17.527 -20.976  0.00  0.00    -0.166 F 
ATOM     33  C   UNL     1      35.429 -18.422 -22.001  0.00  0.00    +0.421 C 
ENDBRANCH  27  33
ENDBRANCH   5  24
TORSDOF 3
ENDMDL
MODEL 5
REMARK VINA RESULT:     -11.5      6.242     10.857
REMARK  Name = 25118925
REMARK  3 active torsions:
REMARK  status: ('A' for Active; 'I' for Inactive)
REMARK    1  A    between atoms: C_3  and  C_12
REMARK    2  A    between atoms: C_5  and  C_24
REMARK    3  A    between atoms: C_27  and  C_33
REMARK                            x       y       z     vdW  Elec       q    Type
REMARK                         _______ _______ _______ _____ _____    ______ ____
ROOT
ATOM      1  N   UNL     1      33.612 -15.593 -25.105  0.00  0.00    -0.279 N 
ATOM      2  N   UNL     1      33.839 -15.479 -22.898  0.00  0.00    -0.394 NA
ATOM      3  C   UNL     1      33.483 -14.824 -23.981  0.00  0.00    +0.160 C 
ATOM      4  C   UNL     1      34.080 -16.816 -24.712  0.00  0.00    +0.152 C 
ATOM      5  C   UNL     1      34.212 -16.721 -23.347  0.00  0.00    +0.130 C 
ATOM      6  C   UNL     1      33.315 -15.201 -26.462  0.00  0.00    +0.115 C 
ENDROOT
BRANCH   3  12
ATOM      7  N   UNL     1      32.742 -10.658 -23.117  0.00  0.00    -0.296 N 
ATOM      8  N   UNL     1      32.706  -8.337 -23.671  0.00  0.00    -0.233 NA
ATOM      9  N   UNL     1      32.030  -7.535 -19.787  0.00  0.00    -0.223 N 
ATOM     10  N   UNL     1      32.340  -6.599 -21.999  0.00  0.00    -0.232 NA
ATOM     11  N   UNL     1      31.995  -8.731 -19.172  0.00  0.00    -0.183 NA
ATOM     12  C   UNL     1      32.985 -13.393 -24.034  0.00  0.00    +0.070 C 
ATOM     13  C   UNL     1      34.134 -12.386 -24.189  0.00  0.00    +0.030 C 
ATOM     14  C   UNL     1      32.145 -13.027 -22.801  0.00  0.00    +0.030 C 
ATOM     15  C   UNL     1      33.608 -10.953 -24.267  0.00  0.00    +0.092 C 
ATOM     16  C   UNL     1      31.633 -11.588 -22.881  0.00  0.00    +0.092 C 
ATOM     17  C   UNL     1      32.608  -9.317 -22.740  0.00  0.00    +0.118 C 
ATOM     18  C   UNL     1      32.372  -8.967 -21.414  0.00  0.00    +0.152 C 
ATOM     19  C   UNL     1      32.253  -7.618 -21.130  0.00  0.00    +0.133 C 
ATOM     20  C   UNL     1      32.204  -9.600 -20.168  0.00  0.00    +0.105 C 
ATOM     21  C   UNL     1      32.568  -7.058 -23.249  0.00  0.00    +0.252 C 
ATOM     22  H   UNL     1      31.906  -6.681 -19.314  0.00  0.00    +0.176 HD
ENDBRANCH   3  12
BRANCH   5  24
ATOM     23  F   UNL     1      36.033 -20.804 -20.041  0.00  0.00    -0.204 F 
ATOM     24  C   UNL     1      34.677 -17.772 -22.496  0.00  0.00    +0.027 C 
ATOM     25  C   UNL     1      33.769 -18.667 -21.931  0.00  0.00    +0.008 C 
ATOM     26  C   UNL     1      36.041 -17.903 -22.232  0.00  0.00    +0.005 C 
ATOM     27  C   UNL     1      34.223 -19.692 -21.102  0.00  0.00    +0.099 C 
ATOM     28  C   UNL     1      36.496 -18.927 -21.403  0.00  0.00    +0.030 C 
ATOM     29  C   UNL     1      35.587 -19.822 -20.837  0.00  0.00    +0.144 C 
BRANCH  27  33
ATOM     30  F   UNL     1      33.011 -20.419 -19.173  0.00  0.00    -0.166 F 
ATOM     31  F   UNL     1      32.020 -20.623 -21.091  0.00  0.00    -0.166 F 
ATOM     32  F   UNL     1      33.670 -21.944 -20.576  0.00  0.00    -0.166 F 
ATOM     33  C   UNL     1      33.250 -20.647 -20.498  0.00  0.00    +0.421 C 
ENDBRANCH  27  33
ENDBRANCH   5  24
TORSDOF 3
ENDMDL
MODEL 6
REMARK VINA RESULT:     -11.5      7.195     13.178
REMARK  Name = 25118925
REMARK  3 active torsions:
REMARK  status: ('A' for Active; 'I' for Inactive)
REMARK    1  A    between atoms: C_3  and  C_12
REMARK    2  A    between atoms: C_5  and  C_24
REMARK    3  A    between atoms: C_27  and  C_33
REMARK                            x       y       z     vdW  Elec       q    Type
REMARK                         _______ _______ _______ _____ _____    ______ ____
ROOT
ATOM      1  N   UNL     1      32.903 -13.114 -26.363  0.00  0.00    -0.279 N 
ATOM      2  N   UNL     1      33.930 -12.401 -24.526  0.00  0.00    -0.394 NA
ATOM      3  C   UNL     1      33.448 -12.050 -25.699  0.00  0.00    +0.160 C 
ATOM      4  C   UNL     1      33.046 -14.213 -25.563  0.00  0.00    +0.152 C 
ATOM      5  C   UNL     1      33.682 -13.748 -24.436  0.00  0.00    +0.130 C 
ATOM      6  C   UNL     1      32.287 -13.098 -27.668  0.00  0.00    +0.115 C 
ENDROOT
BRANCH   3  12
ATOM      7  N   UNL     1      33.620  -7.764 -26.202  0.00  0.00    -0.296 N 
ATOM      8  N   UNL     1      34.520  -5.759 -27.131  0.00  0.00    -0.233 NA
ATOM      9  N   UNL     1      32.348  -3.679 -24.459  0.00  0.00    -0.223 N 
ATOM     10  N   UNL     1      33.923  -3.547 -26.294  0.00  0.00    -0.232 NA
ATOM     11  N   UNL     1      31.684  -4.600 -23.737  0.00  0.00    -0.183 NA
ATOM     12  C   UNL     1      33.470 -10.653 -26.289  0.00  0.00    +0.070 C 
ATOM     13  C   UNL     1      34.790  -9.923 -25.999  0.00  0.00    +0.030 C 
ATOM     14  C   UNL     1      32.292  -9.799 -25.797  0.00  0.00    +0.030 C 
ATOM     15  C   UNL     1      34.801  -8.529 -26.626  0.00  0.00    +0.092 C 
ATOM     16  C   UNL     1      32.317  -8.402 -26.419  0.00  0.00    +0.092 C 
ATOM     17  C   UNL     1      33.715  -6.368 -26.226  0.00  0.00    +0.118 C 
ATOM     18  C   UNL     1      32.991  -5.586 -25.331  0.00  0.00    +0.152 C 
ATOM     19  C   UNL     1      33.146  -4.214 -25.426  0.00  0.00    +0.133 C 
ATOM     20  C   UNL     1      32.079  -5.760 -24.274  0.00  0.00    +0.105 C 
ATOM     21  C   UNL     1      34.573  -4.406 -27.109  0.00  0.00    +0.252 C 
ATOM     22  H   UNL     1      32.267  -2.710 -24.303  0.00  0.00    +0.176 HD
ENDBRANCH   3  12
BRANCH   5  24
ATOM     23  F   UNL     1      35.090 -16.866 -20.053  0.00  0.00    -0.204 F 
ATOM     24  C   UNL     1      34.044 -14.553 -23.311  0.00  0.00    +0.027 C 
ATOM     25  C   UNL     1      34.476 -15.865 -23.500  0.00  0.00    +0.008 C 
ATOM     26  C   UNL     1      33.968 -14.024 -22.022  0.00  0.00    +0.005 C 
ATOM     27  C   UNL     1      34.830 -16.650 -22.403  0.00  0.00    +0.099 C 
ATOM     28  C   UNL     1      34.321 -14.807 -20.924  0.00  0.00    +0.030 C 
ATOM     29  C   UNL     1      34.752 -16.120 -21.115  0.00  0.00    +0.144 C 
BRANCH  27  33
ATOM     30  F   UNL     1      34.510 -18.982 -21.981  0.00  0.00    -0.166 F 
ATOM     31  F   UNL     1      35.313 -18.435 -23.919  0.00  0.00    -0.166 F 
ATOM     32  F   UNL     1      36.556 -18.264 -22.142  0.00  0.00    -0.166 F 
ATOM     33  C   UNL     1      35.290 -18.053 -22.608  0.00  0.00    +0.421 C 
ENDBRANCH  27  33
ENDBRANCH   5  24
TORSDOF 3
ENDMDL
MODEL 7
REMARK VINA RESULT:     -11.5      6.336     10.969
REMARK  Name = 25118925
REMARK  3 active torsions:
REMARK  status: ('A' for Active; 'I' for Inactive)
REMARK    1  A    between atoms: C_3  and  C_12
REMARK    2  A    between atoms: C_5  and  C_24
REMARK    3  A    between atoms: C_27  and  C_33
REMARK                            x       y       z     vdW  Elec       q    Type
REMARK                         _______ _______ _______ _____ _____    ______ ____
ROOT
ATOM      1  N   UNL     1      33.211 -13.649 -26.468  0.00  0.00    -0.279 N 
ATOM      2  N   UNL     1      33.314 -14.175 -24.312  0.00  0.00    -0.394 NA
ATOM      3  C   UNL     1      33.071 -13.216 -25.178  0.00  0.00    +0.160 C 
ATOM      4  C   UNL     1      33.566 -14.968 -26.421  0.00  0.00    +0.152 C 
ATOM      5  C   UNL     1      33.623 -15.269 -25.081  0.00  0.00    +0.130 C 
ATOM      6  C   UNL     1      33.024 -12.870 -27.669  0.00  0.00    +0.115 C 
ENDROOT
BRANCH   3  12
ATOM      7  N   UNL     1      32.613  -9.395 -23.216  0.00  0.00    -0.296 N 
ATOM      8  N   UNL     1      32.764  -7.016 -23.117  0.00  0.00    -0.233 NA
ATOM      9  N   UNL     1      32.039  -7.247 -19.167  0.00  0.00    -0.223 N 
ATOM     10  N   UNL     1      32.479  -5.773 -21.037  0.00  0.00    -0.232 NA
ATOM     11  N   UNL     1      31.899  -8.559 -18.901  0.00  0.00    -0.183 NA
ATOM     12  C   UNL     1      32.681 -11.789 -24.842  0.00  0.00    +0.070 C 
ATOM     13  C   UNL     1      33.905 -10.871 -24.709  0.00  0.00    +0.030 C 
ATOM     14  C   UNL     1      31.836 -11.707 -23.562  0.00  0.00    +0.030 C 
ATOM     15  C   UNL     1      33.488  -9.434 -24.397  0.00  0.00    +0.092 C 
ATOM     16  C   UNL     1      31.433 -10.265 -23.251  0.00  0.00    +0.092 C 
ATOM     17  C   UNL     1      32.568  -8.200 -22.489  0.00  0.00    +0.118 C 
ATOM     18  C   UNL     1      32.320  -8.207 -21.119  0.00  0.00    +0.152 C 
ATOM     19  C   UNL     1      32.293  -6.980 -20.479  0.00  0.00    +0.133 C 
ATOM     20  C   UNL     1      32.071  -9.138 -20.094  0.00  0.00    +0.105 C 
ATOM     21  C   UNL     1      32.708  -5.892 -22.363  0.00  0.00    +0.252 C 
ATOM     22  H   UNL     1      31.964  -6.546 -18.479  0.00  0.00    +0.176 HD
ENDBRANCH   3  12
BRANCH   5  24
ATOM     23  F   UNL     1      34.929 -20.260 -23.007  0.00  0.00    -0.204 F 
ATOM     24  C   UNL     1      33.960 -16.552 -24.545  0.00  0.00    +0.027 C 
ATOM     25  C   UNL     1      34.349 -16.671 -23.210  0.00  0.00    +0.008 C 
ATOM     26  C   UNL     1      33.898 -17.685 -25.356  0.00  0.00    +0.005 C 
ATOM     27  C   UNL     1      34.677 -17.921 -22.688  0.00  0.00    +0.099 C 
ATOM     28  C   UNL     1      34.227 -18.935 -24.835  0.00  0.00    +0.030 C 
ATOM     29  C   UNL     1      34.616 -19.054 -23.500  0.00  0.00    +0.144 C 
BRANCH  27  33
ATOM     30  F   UNL     1      36.360 -18.532 -21.102  0.00  0.00    -0.166 F 
ATOM     31  F   UNL     1      35.078 -16.862 -20.582  0.00  0.00    -0.166 F 
ATOM     32  F   UNL     1      34.287 -18.888 -20.551  0.00  0.00    -0.166 F 
ATOM     33  C   UNL     1      35.093 -18.046 -21.261  0.00  0.00    +0.421 C 
ENDBRANCH  27  33
ENDBRANCH   5  24
TORSDOF 3
ENDMDL
MODEL 8
REMARK VINA RESULT:     -11.3      2.017      3.363
REMARK  Name = 25118925
REMARK  3 active torsions:
REMARK  status: ('A' for Active; 'I' for Inactive)
REMARK    1  A    between atoms: C_3  and  C_12
REMARK    2  A    between atoms: C_5  and  C_24
REMARK    3  A    between atoms: C_27  and  C_33
REMARK                            x       y       z     vdW  Elec       q    Type
REMARK                         _______ _______ _______ _____ _____    ______ ____
ROOT
ATOM      1  N   UNL     1      35.279 -20.130 -20.706  0.00  0.00    -0.279 N 
ATOM      2  N   UNL     1      33.341 -19.773 -21.732  0.00  0.00    -0.394 NA
ATOM      3  C   UNL     1      33.960 -20.475 -20.808  0.00  0.00    +0.160 C 
ATOM      4  C   UNL     1      35.516 -19.145 -21.624  0.00  0.00    +0.152 C 
ATOM      5  C   UNL     1      34.306 -18.942 -22.244  0.00  0.00    +0.130 C 
ATOM      6  C   UNL     1      36.255 -20.692 -19.804  0.00  0.00    +0.115 C 
ENDROOT
BRANCH   3  12
ATOM      7  N   UNL     1      32.648 -22.832 -17.435  0.00  0.00    -0.296 N 
ATOM      8  N   UNL     1      30.993 -23.941 -16.121  0.00  0.00    -0.233 NA
ATOM      9  N   UNL     1      33.753 -24.393 -13.229  0.00  0.00    -0.223 N 
ATOM     10  N   UNL     1      31.460 -24.806 -13.889  0.00  0.00    -0.232 NA
ATOM     11  N   UNL     1      34.875 -23.826 -13.709  0.00  0.00    -0.183 NA
ATOM     12  C   UNL     1      33.335 -21.547 -19.936  0.00  0.00    +0.070 C 
ATOM     13  C   UNL     1      32.249 -20.979 -19.010  0.00  0.00    +0.030 C 
ATOM     14  C   UNL     1      34.383 -22.296 -19.099  0.00  0.00    +0.030 C 
ATOM     15  C   UNL     1      31.614 -22.079 -18.160  0.00  0.00    +0.092 C 
ATOM     16  C   UNL     1      33.738 -23.387 -18.243  0.00  0.00    +0.092 C 
ATOM     17  C   UNL     1      32.261 -23.484 -16.258  0.00  0.00    +0.118 C 
ATOM     18  C   UNL     1      33.165 -23.676 -15.217  0.00  0.00    +0.152 C 
ATOM     19  C   UNL     1      32.698 -24.330 -14.091  0.00  0.00    +0.133 C 
ATOM     20  C   UNL     1      34.511 -23.391 -14.920  0.00  0.00    +0.105 C 
ATOM     21  C   UNL     1      30.676 -24.565 -14.962  0.00  0.00    +0.252 C 
ATOM     22  H   UNL     1      33.697 -24.812 -12.340  0.00  0.00    +0.176 HD
ENDBRANCH   3  12
BRANCH   5  24
ATOM     23  F   UNL     1      33.398 -15.244 -26.295  0.00  0.00    -0.204 F 
ATOM     24  C   UNL     1      34.071 -17.993 -23.288  0.00  0.00    +0.027 C 
ATOM     25  C   UNL     1      33.180 -18.293 -24.317  0.00  0.00    +0.008 C 
ATOM     26  C   UNL     1      34.733 -16.764 -23.275  0.00  0.00    +0.005 C 
ATOM     27  C   UNL     1      32.950 -17.368 -25.334  0.00  0.00    +0.099 C 
ATOM     28  C   UNL     1      34.504 -15.838 -24.292  0.00  0.00    +0.030 C 
ATOM     29  C   UNL     1      33.612 -16.140 -25.322  0.00  0.00    +0.144 C 
BRANCH  27  33
ATOM     30  F   UNL     1      32.279 -17.051 -27.608  0.00  0.00    -0.166 F 
ATOM     31  F   UNL     1      31.962 -19.019 -26.754  0.00  0.00    -0.166 F 
ATOM     32  F   UNL     1      30.710 -17.352 -26.132  0.00  0.00    -0.166 F 
ATOM     33  C   UNL     1      31.997 -17.692 -26.434  0.00  0.00    +0.421 C 
ENDBRANCH  27  33
ENDBRANCH   5  24
TORSDOF 3
ENDMDL
MODEL 9
REMARK VINA RESULT:     -11.3      6.125     11.242
REMARK  Name = 25118925
REMARK  3 active torsions:
REMARK  status: ('A' for Active; 'I' for Inactive)
REMARK    1  A    between atoms: C_3  and  C_12
REMARK    2  A    between atoms: C_5  and  C_24
REMARK    3  A    between atoms: C_27  and  C_33
REMARK                            x       y       z     vdW  Elec       q    Type
REMARK                         _______ _______ _______ _____ _____    ______ ____
ROOT
ATOM      1  N   UNL     1      33.474 -20.723 -20.201  0.00  0.00    -0.279 N 
ATOM      2  N   UNL     1      35.606 -20.580 -19.596  0.00  0.00    -0.394 NA
ATOM      3  C   UNL     1      34.700 -20.178 -20.461  0.00  0.00    +0.160 C 
ATOM      4  C   UNL     1      33.606 -21.523 -19.100  0.00  0.00    +0.152 C 
ATOM      5  C   UNL     1      34.930 -21.418 -18.746  0.00  0.00    +0.130 C 
ATOM      6  C   UNL     1      32.254 -20.505 -20.941  0.00  0.00    +0.115 C 
ENDROOT
BRANCH   3  12
ATOM      7  N   UNL     1      34.152 -17.564 -23.856  0.00  0.00    -0.296 N 
ATOM      8  N   UNL     1      34.401 -15.495 -25.017  0.00  0.00    -0.233 NA
ATOM      9  N   UNL     1      31.783 -16.847 -27.756  0.00  0.00    -0.223 N 
ATOM     10  N   UNL     1      33.202 -15.004 -27.085  0.00  0.00    -0.232 NA
ATOM     11  N   UNL     1      31.435 -18.081 -27.346  0.00  0.00    -0.183 NA
ATOM     12  C   UNL     1      34.935 -19.230 -21.621  0.00  0.00    +0.070 C 
ATOM     13  C   UNL     1      34.237 -17.877 -21.413  0.00  0.00    +0.030 C 
ATOM     14  C   UNL     1      34.491 -19.835 -22.961  0.00  0.00    +0.030 C 
ATOM     15  C   UNL     1      34.509 -16.928 -22.580  0.00  0.00    +0.092 C 
ATOM     16  C   UNL     1      34.755 -18.875 -24.122  0.00  0.00    +0.092 C 
ATOM     17  C   UNL     1      33.833 -16.722 -24.927  0.00  0.00    +0.118 C 
ATOM     18  C   UNL     1      32.935 -17.126 -25.911  0.00  0.00    +0.152 C 
ATOM     19  C   UNL     1      32.677 -16.230 -26.933  0.00  0.00    +0.133 C 
ATOM     20  C   UNL     1      32.141 -18.245 -26.222  0.00  0.00    +0.105 C 
ATOM     21  C   UNL     1      34.055 -14.724 -26.076  0.00  0.00    +0.252 C 
ATOM     22  H   UNL     1      31.425 -16.429 -28.573  0.00  0.00    +0.176 HD
ENDBRANCH   3  12
BRANCH   5  24
ATOM     23  F   UNL     1      37.296 -24.030 -14.446  0.00  0.00    -0.204 F 
ATOM     24  C   UNL     1      35.535 -22.091 -17.638  0.00  0.00    +0.027 C 
ATOM     25  C   UNL     1      34.770 -22.925 -16.824  0.00  0.00    +0.008 C 
ATOM     26  C   UNL     1      36.894 -21.914 -17.374  0.00  0.00    +0.005 C 
ATOM     27  C   UNL     1      35.361 -23.581 -15.745  0.00  0.00    +0.099 C 
ATOM     28  C   UNL     1      37.485 -22.569 -16.295  0.00  0.00    +0.030 C 
ATOM     29  C   UNL     1      36.718 -23.404 -15.481  0.00  0.00    +0.144 C 
BRANCH  27  33
ATOM     30  F   UNL     1      34.651 -24.189 -13.544  0.00  0.00    -0.166 F 
ATOM     31  F   UNL     1      33.201 -24.413 -15.141  0.00  0.00    -0.166 F 
ATOM     32  F   UNL     1      34.881 -25.788 -14.999  0.00  0.00    -0.166 F 
ATOM     33  C   UNL     1      34.540 -24.472 -14.875  0.00  0.00    +0.421 C 
ENDBRANCH  27  33
ENDBRANCH   5  24
TORSDOF 3
ENDMDL
