MODEL 1
REMARK VINA RESULT:     -12.5      0.000      0.000
REMARK  Name = 10407120
REMARK  4 active torsions:
REMARK  status: ('A' for Active; 'I' for Inactive)
REMARK    1  A    between atoms: N_2  and  C_19
REMARK    2  A    between atoms: C_3  and  C_6
REMARK    3  A    between atoms: C_5  and  C_16
REMARK    4  A    between atoms: C_19  and  C_21
REMARK                            x       y       z     vdW  Elec       q    Type
REMARK                         _______ _______ _______ _____ _____    ______ ____
ROOT
ATOM      1  O   UNL     1      34.098 -16.416 -26.609  0.00  0.00    -0.270 OA
ATOM      2  N   UNL     1      33.292 -14.729 -25.227  0.00  0.00    -0.267 N 
ATOM      3  C   UNL     1      33.993 -15.910 -25.491  0.00  0.00    +0.250 C 
ATOM      4  C   UNL     1      32.632 -14.031 -26.323  0.00  0.00    +0.116 C 
ENDROOT
BRANCH   3   6
ATOM      5  C   UNL     1      34.163 -17.790 -23.898  0.00  0.00    +0.006 C 
ATOM      6  C   UNL     1      34.614 -16.582 -24.312  0.00  0.00    +0.058 C 
BRANCH   5  16
ATOM      7  O   UNL     1      36.010 -22.078 -17.772  0.00  0.00    -0.275 OA
ATOM      8  N   UNL     1      36.214 -20.558 -19.481  0.00  0.00    -0.270 N 
ATOM      9  N   UNL     1      36.504 -19.044 -21.275  0.00  0.00    -0.229 NA
ATOM     10  C   UNL     1      33.465 -20.925 -20.068  0.00  0.00    +0.039 C 
ATOM     11  C   UNL     1      34.345 -20.075 -20.932  0.00  0.00    +0.010 C 
ATOM     12  C   UNL     1      34.265 -22.042 -19.415  0.00  0.00    +0.090 C 
ATOM     13  C   UNL     1      35.684 -19.881 -20.597  0.00  0.00    +0.130 C 
ATOM     14  C   UNL     1      33.836 -19.375 -22.027  0.00  0.00    +0.000 C 
ATOM     15  C   UNL     1      35.552 -21.550 -18.785  0.00  0.00    +0.227 C 
ATOM     16  C   UNL     1      34.664 -18.526 -22.752  0.00  0.00    +0.019 C 
ATOM     17  C   UNL     1      35.977 -18.395 -22.337  0.00  0.00    +0.100 C 
ATOM     18  H   UNL     1      37.115 -20.307 -19.177  0.00  0.00    +0.156 HD
ENDBRANCH   5  16
ENDBRANCH   3   6
BRANCH   2  19
ATOM     19  C   UNL     1      33.125 -14.128 -23.905  0.00  0.00    +0.158 C 
BRANCH  19  21
ATOM     20  O   UNL     1      34.336 -12.243 -24.766  0.00  0.00    -0.456 OA
ATOM     21  C   UNL     1      33.362 -12.646 -23.929  0.00  0.00    +0.139 A 
ATOM     22  C   UNL     1      32.780 -11.618 -23.266  0.00  0.00    +0.013 A 
ATOM     23  C   UNL     1      33.445 -10.449 -23.721  0.00  0.00    +0.033 A 
ATOM     24  C   UNL     1      34.393 -10.888 -24.641  0.00  0.00    +0.145 A 
ATOM     25  C   UNL     1      31.686 -11.688 -22.277  0.00  0.00    +0.034 C 
ATOM     26  C   UNL     1      33.352  -9.072 -23.458  0.00  0.00    +0.003 C 
ATOM     27  C   UNL     1      35.264 -10.044 -25.328  0.00  0.00    +0.037 C 
ATOM     28  C   UNL     1      34.215  -8.198 -24.133  0.00  0.00    +0.000 C 
ATOM     29  C   UNL     1      35.154  -8.678 -25.050  0.00  0.00    +0.003 C 
ENDBRANCH  19  21
ENDBRANCH   2  19
TORSDOF 4
ENDMDL
MODEL 2
REMARK VINA RESULT:     -12.1      1.146      2.386
REMARK  Name = 10407120
REMARK  4 active torsions:
REMARK  status: ('A' for Active; 'I' for Inactive)
REMARK    1  A    between atoms: N_2  and  C_19
REMARK    2  A    between atoms: C_3  and  C_6
REMARK    3  A    between atoms: C_5  and  C_16
REMARK    4  A    between atoms: C_19  and  C_21
REMARK                            x       y       z     vdW  Elec       q    Type
REMARK                         _______ _______ _______ _____ _____    ______ ____
ROOT
ATOM      1  O   UNL     1      32.494 -16.551 -25.817  0.00  0.00    -0.270 OA
ATOM      2  N   UNL     1      33.396 -14.487 -25.241  0.00  0.00    -0.267 N 
ATOM      3  C   UNL     1      33.190 -15.859 -25.072  0.00  0.00    +0.250 C 
ATOM      4  C   UNL     1      32.762 -13.802 -26.360  0.00  0.00    +0.116 C 
ENDROOT
BRANCH   3   6
ATOM      5  C   UNL     1      33.949 -17.828 -23.789  0.00  0.00    +0.006 C 
ATOM      6  C   UNL     1      33.849 -16.481 -23.886  0.00  0.00    +0.058 C 
BRANCH   5  16
ATOM      7  O   UNL     1      36.283 -22.072 -17.799  0.00  0.00    -0.275 OA
ATOM      8  N   UNL     1      36.334 -20.530 -19.500  0.00  0.00    -0.270 N 
ATOM      9  N   UNL     1      36.468 -18.990 -21.291  0.00  0.00    -0.229 NA
ATOM     10  C   UNL     1      33.581 -21.023 -19.961  0.00  0.00    +0.039 C 
ATOM     11  C   UNL     1      34.378 -20.125 -20.857  0.00  0.00    +0.010 C 
ATOM     12  C   UNL     1      34.462 -22.105 -19.358  0.00  0.00    +0.090 C 
ATOM     13  C   UNL     1      35.721 -19.870 -20.583  0.00  0.00    +0.130 C 
ATOM     14  C   UNL     1      33.785 -19.441 -21.920  0.00  0.00    +0.000 C 
ATOM     15  C   UNL     1      35.753 -21.558 -18.784  0.00  0.00    +0.227 C 
ATOM     16  C   UNL     1      34.537 -18.549 -22.675  0.00  0.00    +0.019 C 
ATOM     17  C   UNL     1      35.861 -18.359 -22.321  0.00  0.00    +0.100 C 
ATOM     18  H   UNL     1      37.236 -20.239 -19.237  0.00  0.00    +0.156 HD
ENDBRANCH   5  16
ENDBRANCH   3   6
BRANCH   2  19
ATOM     19  C   UNL     1      34.189 -13.640 -24.352  0.00  0.00    +0.158 C 
BRANCH  19  21
ATOM     20  O   UNL     1      32.691 -13.128 -22.548  0.00  0.00    -0.456 OA
ATOM     21  C   UNL     1      33.339 -12.641 -23.623  0.00  0.00    +0.139 A 
ATOM     22  C   UNL     1      33.092 -11.326 -23.834  0.00  0.00    +0.013 A 
ATOM     23  C   UNL     1      32.203 -10.936 -22.799  0.00  0.00    +0.033 A 
ATOM     24  C   UNL     1      31.987 -12.080 -22.036  0.00  0.00    +0.145 A 
ATOM     25  C   UNL     1      33.628 -10.470 -24.911  0.00  0.00    +0.034 C 
ATOM     26  C   UNL     1      31.557  -9.746 -22.422  0.00  0.00    +0.003 C 
ATOM     27  C   UNL     1      31.166 -12.126 -20.911  0.00  0.00    +0.037 C 
ATOM     28  C   UNL     1      30.724  -9.761 -21.295  0.00  0.00    +0.000 C 
ATOM     29  C   UNL     1      30.533 -10.931 -20.555  0.00  0.00    +0.003 C 
ENDBRANCH  19  21
ENDBRANCH   2  19
TORSDOF 4
ENDMDL
MODEL 3
REMARK VINA RESULT:     -11.8      6.010     13.004
REMARK  Name = 10407120
REMARK  4 active torsions:
REMARK  status: ('A' for Active; 'I' for Inactive)
REMARK    1  A    between atoms: N_2  and  C_19
REMARK    2  A    between atoms: C_3  and  C_6
REMARK    3  A    between atoms: C_5  and  C_16
REMARK    4  A    between atoms: C_19  and  C_21
REMARK                            x       y       z     vdW  Elec       q    Type
REMARK                         _______ _______ _______ _____ _____    ______ ____
ROOT
ATOM      1  O   UNL     1      30.410 -24.639 -16.180  0.00  0.00    -0.270 OA
ATOM      2  N   UNL     1      31.732 -24.089 -14.349  0.00  0.00    -0.267 N 
ATOM      3  C   UNL     1      31.300 -23.956 -15.672  0.00  0.00    +0.250 C 
ATOM      4  C   UNL     1      31.111 -25.090 -13.492  0.00  0.00    +0.116 C 
ENDROOT
BRANCH   3   6
ATOM      5  C   UNL     1      32.940 -23.305 -17.401  0.00  0.00    +0.006 C 
ATOM      6  C   UNL     1      32.007 -22.929 -16.494  0.00  0.00    +0.058 C 
BRANCH   5  16
ATOM      7  O   UNL     1      36.263 -18.277 -22.198  0.00  0.00    -0.275 OA
ATOM      8  N   UNL     1      36.040 -19.870 -20.558  0.00  0.00    -0.270 N 
ATOM      9  N   UNL     1      35.857 -21.447 -18.805  0.00  0.00    -0.229 NA
ATOM     10  C   UNL     1      33.280 -20.046 -21.176  0.00  0.00    +0.039 C 
ATOM     11  C   UNL     1      33.874 -20.792 -20.022  0.00  0.00    +0.010 C 
ATOM     12  C   UNL     1      34.041 -18.756 -21.435  0.00  0.00    +0.090 C 
ATOM     13  C   UNL     1      35.242 -20.718 -19.765  0.00  0.00    +0.130 C 
ATOM     14  C   UNL     1      33.107 -21.658 -19.240  0.00  0.00    +0.000 C 
ATOM     15  C   UNL     1      35.543 -18.958 -21.468  0.00  0.00    +0.227 C 
ATOM     16  C   UNL     1      33.713 -22.401 -18.233  0.00  0.00    +0.019 C 
ATOM     17  C   UNL     1      35.078 -22.263 -18.060  0.00  0.00    +0.100 C 
ATOM     18  H   UNL     1      37.017 -19.931 -20.457  0.00  0.00    +0.156 HD
ENDBRANCH   5  16
ENDBRANCH   3   6
BRANCH   2  19
ATOM     19  C   UNL     1      32.808 -23.313 -13.734  0.00  0.00    +0.158 C 
BRANCH  19  21
ATOM     20  O   UNL     1      34.400 -24.763 -14.795  0.00  0.00    -0.456 OA
ATOM     21  C   UNL     1      34.093 -24.087 -13.672  0.00  0.00    +0.139 A 
ATOM     22  C   UNL     1      35.019 -24.242 -12.696  0.00  0.00    +0.013 A 
ATOM     23  C   UNL     1      36.010 -25.097 -13.246  0.00  0.00    +0.033 A 
ATOM     24  C   UNL     1      35.582 -25.389 -14.538  0.00  0.00    +0.145 A 
ATOM     25  C   UNL     1      35.010 -23.651 -11.343  0.00  0.00    +0.034 C 
ATOM     26  C   UNL     1      37.219 -25.655 -12.797  0.00  0.00    +0.003 C 
ATOM     27  C   UNL     1      36.279 -26.206 -15.426  0.00  0.00    +0.037 C 
ATOM     28  C   UNL     1      37.943 -26.482 -13.667  0.00  0.00    +0.000 C 
ATOM     29  C   UNL     1      37.478 -26.751 -14.957  0.00  0.00    +0.003 C 
ENDBRANCH  19  21
ENDBRANCH   2  19
TORSDOF 4
ENDMDL
MODEL 4
REMARK VINA RESULT:     -11.8      2.178      2.955
REMARK  Name = 10407120
REMARK  4 active torsions:
REMARK  status: ('A' for Active; 'I' for Inactive)
REMARK    1  A    between atoms: N_2  and  C_19
REMARK    2  A    between atoms: C_3  and  C_6
REMARK    3  A    between atoms: C_5  and  C_16
REMARK    4  A    between atoms: C_19  and  C_21
REMARK                            x       y       z     vdW  Elec       q    Type
REMARK                         _______ _______ _______ _____ _____    ______ ____
ROOT
ATOM      1  O   UNL     1      33.130 -18.266 -26.151  0.00  0.00    -0.270 OA
ATOM      2  N   UNL     1      34.209 -16.435 -25.210  0.00  0.00    -0.267 N 
ATOM      3  C   UNL     1      33.849 -17.785 -25.275  0.00  0.00    +0.250 C 
ATOM      4  C   UNL     1      33.717 -15.515 -26.227  0.00  0.00    +0.116 C 
ENDROOT
BRANCH   3   6
ATOM      5  C   UNL     1      33.822 -18.595 -22.943  0.00  0.00    +0.006 C 
ATOM      6  C   UNL     1      34.368 -18.657 -24.180  0.00  0.00    +0.058 C 
BRANCH   5  16
ATOM      7  O   UNL     1      35.296 -23.005 -16.801  0.00  0.00    -0.275 OA
ATOM      8  N   UNL     1      35.628 -21.511 -18.514  0.00  0.00    -0.270 N 
ATOM      9  N   UNL     1      36.046 -20.032 -20.311  0.00  0.00    -0.229 NA
ATOM     10  C   UNL     1      32.860 -21.652 -19.105  0.00  0.00    +0.039 C 
ATOM     11  C   UNL     1      33.809 -20.880 -19.970  0.00  0.00    +0.010 C 
ATOM     12  C   UNL     1      33.563 -22.829 -18.448  0.00  0.00    +0.090 C 
ATOM     13  C   UNL     1      35.159 -20.796 -19.633  0.00  0.00    +0.130 C 
ATOM     14  C   UNL     1      33.361 -20.143 -21.067  0.00  0.00    +0.000 C 
ATOM     15  C   UNL     1      34.886 -22.444 -17.817  0.00  0.00    +0.227 C 
ATOM     16  C   UNL     1      34.258 -19.367 -21.793  0.00  0.00    +0.019 C 
ATOM     17  C   UNL     1      35.576 -19.344 -21.376  0.00  0.00    +0.100 C 
ATOM     18  H   UNL     1      36.547 -21.335 -18.209  0.00  0.00    +0.156 HD
ENDBRANCH   5  16
ENDBRANCH   3   6
BRANCH   2  19
ATOM     19  C   UNL     1      35.033 -15.835 -24.163  0.00  0.00    +0.158 C 
BRANCH  19  21
ATOM     20  O   UNL     1      33.526 -13.989 -23.877  0.00  0.00    -0.456 OA
ATOM     21  C   UNL     1      34.229 -14.952 -23.253  0.00  0.00    +0.139 A 
ATOM     22  C   UNL     1      34.068 -14.933 -21.908  0.00  0.00    +0.013 A 
ATOM     23  C   UNL     1      33.179 -13.857 -21.649  0.00  0.00    +0.033 A 
ATOM     24  C   UNL     1      32.876 -13.309 -22.892  0.00  0.00    +0.145 A 
ATOM     25  C   UNL     1      34.681 -15.835 -20.914  0.00  0.00    +0.034 C 
ATOM     26  C   UNL     1      32.598 -13.286 -20.504  0.00  0.00    +0.003 C 
ATOM     27  C   UNL     1      32.026 -12.221 -23.080  0.00  0.00    +0.037 C 
ATOM     28  C   UNL     1      31.738 -12.190 -20.661  0.00  0.00    +0.000 C 
ATOM     29  C   UNL     1      31.460 -11.668 -21.927  0.00  0.00    +0.003 C 
ENDBRANCH  19  21
ENDBRANCH   2  19
TORSDOF 4
ENDMDL
MODEL 5
REMARK VINA RESULT:     -11.7      2.341      9.872
REMARK  Name = 10407120
REMARK  4 active torsions:
REMARK  status: ('A' for Active; 'I' for Inactive)
REMARK    1  A    between atoms: N_2  and  C_19
REMARK    2  A    between atoms: C_3  and  C_6
REMARK    3  A    between atoms: C_5  and  C_16
REMARK    4  A    between atoms: C_19  and  C_21
REMARK                            x       y       z     vdW  Elec       q    Type
REMARK                         _______ _______ _______ _____ _____    ______ ____
ROOT
ATOM      1  O   UNL     1      33.749 -18.078 -26.625  0.00  0.00    -0.270 OA
ATOM      2  N   UNL     1      34.186 -18.320 -24.355  0.00  0.00    -0.267 N 
ATOM      3  C   UNL     1      33.835 -17.593 -25.496  0.00  0.00    +0.250 C 
ATOM      4  C   UNL     1      34.474 -19.743 -24.475  0.00  0.00    +0.116 C 
ENDROOT
BRANCH   3   6
ATOM      5  C   UNL     1      33.358 -15.329 -26.360  0.00  0.00    +0.006 C 
ATOM      6  C   UNL     1      33.586 -16.135 -25.296  0.00  0.00    +0.058 C 
BRANCH   5  16
ATOM      7  O   UNL     1      32.417  -7.779 -25.156  0.00  0.00    -0.275 OA
ATOM      8  N   UNL     1      32.447  -9.803 -26.241  0.00  0.00    -0.270 N 
ATOM      9  N   UNL     1      32.541 -11.846 -27.428  0.00  0.00    -0.229 NA
ATOM     10  C   UNL     1      33.086 -11.055 -23.780  0.00  0.00    +0.039 C 
ATOM     11  C   UNL     1      33.050 -11.824 -25.065  0.00  0.00    +0.010 C 
ATOM     12  C   UNL     1      33.480  -9.607 -24.027  0.00  0.00    +0.090 C 
ATOM     13  C   UNL     1      32.693 -11.189 -26.254  0.00  0.00    +0.130 C 
ATOM     14  C   UNL     1      33.265 -13.203 -25.097  0.00  0.00    +0.000 C 
ATOM     15  C   UNL     1      32.705  -8.975 -25.166  0.00  0.00    +0.227 C 
ATOM     16  C   UNL     1      33.135 -13.896 -26.295  0.00  0.00    +0.019 C 
ATOM     17  C   UNL     1      32.772 -13.178 -27.421  0.00  0.00    +0.100 C 
ATOM     18  H   UNL     1      32.066  -9.396 -27.052  0.00  0.00    +0.156 HD
ENDBRANCH   5  16
ENDBRANCH   3   6
BRANCH   2  19
ATOM     19  C   UNL     1      34.328 -17.759 -23.012  0.00  0.00    +0.158 C 
BRANCH  19  21
ATOM     20  O   UNL     1      33.264 -19.339 -21.551  0.00  0.00    -0.456 OA
ATOM     21  C   UNL     1      34.439 -18.829 -21.966  0.00  0.00    +0.139 A 
ATOM     22  C   UNL     1      35.504 -19.394 -21.347  0.00  0.00    +0.013 A 
ATOM     23  C   UNL     1      34.959 -20.353 -20.454  0.00  0.00    +0.033 A 
ATOM     24  C   UNL     1      33.579 -20.280 -20.617  0.00  0.00    +0.145 A 
ATOM     25  C   UNL     1      36.933 -19.084 -21.552  0.00  0.00    +0.034 C 
ATOM     26  C   UNL     1      35.477 -21.273 -19.527  0.00  0.00    +0.003 C 
ATOM     27  C   UNL     1      32.666 -21.066 -19.917  0.00  0.00    +0.037 C 
ATOM     28  C   UNL     1      34.584 -22.078 -18.807  0.00  0.00    +0.000 C 
ATOM     29  C   UNL     1      33.204 -21.974 -19.000  0.00  0.00    +0.003 C 
ENDBRANCH  19  21
ENDBRANCH   2  19
TORSDOF 4
ENDMDL
MODEL 6
REMARK VINA RESULT:     -11.5      5.529     11.858
REMARK  Name = 10407120
REMARK  4 active torsions:
REMARK  status: ('A' for Active; 'I' for Inactive)
REMARK    1  A    between atoms: N_2  and  C_19
REMARK    2  A    between atoms: C_3  and  C_6
REMARK    3  A    between atoms: C_5  and  C_16
REMARK    4  A    between atoms: C_19  and  C_21
REMARK                            x       y       z     vdW  Elec       q    Type
REMARK                         _______ _______ _______ _____ _____    ______ ____
ROOT
ATOM      1  O   UNL     1      37.679 -22.077 -15.413  0.00  0.00    -0.270 OA
ATOM      2  N   UNL     1      36.468 -24.060 -15.368  0.00  0.00    -0.267 N 
ATOM      3  C   UNL     1      36.765 -22.780 -15.845  0.00  0.00    +0.250 C 
ATOM      4  C   UNL     1      37.271 -24.625 -14.291  0.00  0.00    +0.116 C 
ENDROOT
BRANCH   3   6
ATOM      5  C   UNL     1      36.412 -21.667 -18.021  0.00  0.00    +0.006 C 
ATOM      6  C   UNL     1      35.878 -22.260 -16.927  0.00  0.00    +0.058 C 
BRANCH   5  16
ATOM      7  O   UNL     1      33.158 -18.241 -24.105  0.00  0.00    -0.275 OA
ATOM      8  N   UNL     1      33.374 -19.520 -22.210  0.00  0.00    -0.270 N 
ATOM      9  N   UNL     1      33.560 -20.917 -20.310  0.00  0.00    -0.229 NA
ATOM     10  C   UNL     1      36.054 -18.627 -21.973  0.00  0.00    +0.039 C 
ATOM     11  C   UNL     1      35.490 -19.668 -21.056  0.00  0.00    +0.010 C 
ATOM     12  C   UNL     1      35.385 -18.689 -23.338  0.00  0.00    +0.090 C 
ATOM     13  C   UNL     1      34.157 -20.060 -21.171  0.00  0.00    +0.130 C 
ATOM     14  C   UNL     1      36.240 -20.197 -20.004  0.00  0.00    +0.000 C 
ATOM     15  C   UNL     1      33.874 -18.757 -23.247  0.00  0.00    +0.227 C 
ATOM     16  C   UNL     1      35.654 -21.096 -19.120  0.00  0.00    +0.019 C 
ATOM     17  C   UNL     1      34.324 -21.418 -19.313  0.00  0.00    +0.100 C 
ATOM     18  H   UNL     1      32.407 -19.698 -22.196  0.00  0.00    +0.156 HD
ENDBRANCH   5  16
ENDBRANCH   3   6
BRANCH   2  19
ATOM     19  C   UNL     1      35.369 -24.899 -15.841  0.00  0.00    +0.158 C 
BRANCH  19  21
ATOM     20  O   UNL     1      33.225 -24.036 -16.489  0.00  0.00    -0.456 OA
ATOM     21  C   UNL     1      34.030 -24.342 -15.454  0.00  0.00    +0.139 A 
ATOM     22  C   UNL     1      33.462 -24.081 -14.252  0.00  0.00    +0.013 A 
ATOM     23  C   UNL     1      32.174 -23.561 -14.546  0.00  0.00    +0.033 A 
ATOM     24  C   UNL     1      32.078 -23.553 -15.935  0.00  0.00    +0.145 A 
ATOM     25  C   UNL     1      34.050 -24.291 -12.914  0.00  0.00    +0.034 C 
ATOM     26  C   UNL     1      31.082 -23.096 -13.795  0.00  0.00    +0.003 C 
ATOM     27  C   UNL     1      30.959 -23.112 -16.638  0.00  0.00    +0.037 C 
ATOM     28  C   UNL     1      29.942 -22.645 -14.474  0.00  0.00    +0.000 C 
ATOM     29  C   UNL     1      29.884 -22.653 -15.870  0.00  0.00    +0.003 C 
ENDBRANCH  19  21
ENDBRANCH   2  19
TORSDOF 4
ENDMDL
MODEL 7
REMARK VINA RESULT:     -11.3      2.444      9.688
REMARK  Name = 10407120
REMARK  4 active torsions:
REMARK  status: ('A' for Active; 'I' for Inactive)
REMARK    1  A    between atoms: N_2  and  C_19
REMARK    2  A    between atoms: C_3  and  C_6
REMARK    3  A    between atoms: C_5  and  C_16
REMARK    4  A    between atoms: C_19  and  C_21
REMARK                            x       y       z     vdW  Elec       q    Type
REMARK                         _______ _______ _______ _____ _____    ______ ____
ROOT
ATOM      1  O   UNL     1      33.830 -16.863 -25.834  0.00  0.00    -0.270 OA
ATOM      2  N   UNL     1      34.492 -17.622 -23.739  0.00  0.00    -0.267 N 
ATOM      3  C   UNL     1      34.092 -16.641 -24.651  0.00  0.00    +0.250 C 
ATOM      4  C   UNL     1      34.617 -19.004 -24.185  0.00  0.00    +0.116 C 
ENDROOT
BRANCH   3   6
ATOM      5  C   UNL     1      33.052 -14.403 -24.561  0.00  0.00    +0.006 C 
ATOM      6  C   UNL     1      34.018 -15.246 -24.125  0.00  0.00    +0.058 C 
BRANCH   5  16
ATOM      7  O   UNL     1      31.836  -7.383 -21.631  0.00  0.00    -0.275 OA
ATOM      8  N   UNL     1      32.501  -9.025 -23.093  0.00  0.00    -0.270 N 
ATOM      9  N   UNL     1      33.280 -10.677 -24.596  0.00  0.00    -0.229 NA
ATOM     10  C   UNL     1      31.301 -10.952 -21.396  0.00  0.00    +0.039 C 
ATOM     11  C   UNL     1      32.096 -11.354 -22.600  0.00  0.00    +0.010 C 
ATOM     12  C   UNL     1      31.814  -9.640 -20.823  0.00  0.00    +0.090 C 
ATOM     13  C   UNL     1      32.641 -10.383 -23.439  0.00  0.00    +0.130 C 
ATOM     14  C   UNL     1      32.226 -12.692 -22.975  0.00  0.00    +0.000 C 
ATOM     15  C   UNL     1      32.013  -8.575 -21.882  0.00  0.00    +0.227 C 
ATOM     16  C   UNL     1      32.896 -13.020 -24.149  0.00  0.00    +0.019 C 
ATOM     17  C   UNL     1      33.397 -11.985 -24.917  0.00  0.00    +0.100 C 
ATOM     18  H   UNL     1      32.768  -8.352 -23.759  0.00  0.00    +0.156 HD
ENDBRANCH   5  16
ENDBRANCH   3   6
BRANCH   2  19
ATOM     19  C   UNL     1      34.840 -17.378 -22.340  0.00  0.00    +0.158 C 
BRANCH  19  21
ATOM     20  O   UNL     1      33.517 -19.018 -21.193  0.00  0.00    -0.456 OA
ATOM     21  C   UNL     1      34.764 -18.629 -21.516  0.00  0.00    +0.139 A 
ATOM     22  C   UNL     1      35.716 -19.458 -21.025  0.00  0.00    +0.013 A 
ATOM     23  C   UNL     1      35.012 -20.472 -20.323  0.00  0.00    +0.033 A 
ATOM     24  C   UNL     1      33.663 -20.155 -20.456  0.00  0.00    +0.145 A 
ATOM     25  C   UNL     1      37.180 -19.342 -21.181  0.00  0.00    +0.034 C 
ATOM     26  C   UNL     1      35.363 -21.619 -19.591  0.00  0.00    +0.003 C 
ATOM     27  C   UNL     1      32.626 -20.907 -19.908  0.00  0.00    +0.037 C 
ATOM     28  C   UNL     1      34.342 -22.395 -19.027  0.00  0.00    +0.000 C 
ATOM     29  C   UNL     1      32.999 -22.043 -19.183  0.00  0.00    +0.003 C 
ENDBRANCH  19  21
ENDBRANCH   2  19
TORSDOF 4
ENDMDL
MODEL 8
REMARK VINA RESULT:     -11.3      4.052      7.296
REMARK  Name = 10407120
REMARK  4 active torsions:
REMARK  status: ('A' for Active; 'I' for Inactive)
REMARK    1  A    between atoms: N_2  and  C_19
REMARK    2  A    between atoms: C_3  and  C_6
REMARK    3  A    between atoms: C_5  and  C_16
REMARK    4  A    between atoms: C_19  and  C_21
REMARK                            x       y       z     vdW  Elec       q    Type
REMARK                         _______ _______ _______ _____ _____    ______ ____
ROOT
ATOM      1  O   UNL     1      32.358 -22.069 -19.732  0.00  0.00    -0.270 OA
ATOM      2  N   UNL     1      33.790 -20.464 -20.614  0.00  0.00    -0.267 N 
ATOM      3  C   UNL     1      33.431 -21.463 -19.704  0.00  0.00    +0.250 C 
ATOM      4  C   UNL     1      32.860 -20.093 -21.672  0.00  0.00    +0.116 C 
ENDROOT
BRANCH   3   6
ATOM      5  C   UNL     1      34.056 -22.479 -17.542  0.00  0.00    +0.006 C 
ATOM      6  C   UNL     1      34.424 -21.764 -18.632  0.00  0.00    +0.058 C 
BRANCH   5  16
ATOM      7  O   UNL     1      37.908 -24.548 -11.199  0.00  0.00    -0.275 OA
ATOM      8  N   UNL     1      37.496 -23.685 -13.288  0.00  0.00    -0.270 N 
ATOM      9  N   UNL     1      37.143 -22.859 -15.476  0.00  0.00    -0.229 NA
ATOM     10  C   UNL     1      34.730 -24.148 -12.878  0.00  0.00    +0.039 C 
ATOM     11  C   UNL     1      35.257 -23.657 -14.191  0.00  0.00    +0.010 C 
ATOM     12  C   UNL     1      35.763 -25.008 -12.168  0.00  0.00    +0.090 C 
ATOM     13  C   UNL     1      36.618 -23.401 -14.352  0.00  0.00    +0.130 C 
ATOM     14  C   UNL     1      34.402 -23.345 -15.250  0.00  0.00    +0.000 C 
ATOM     15  C   UNL     1      37.139 -24.372 -12.144  0.00  0.00    +0.227 C 
ATOM     16  C   UNL     1      34.920 -22.808 -16.422  0.00  0.00    +0.019 C 
ATOM     17  C   UNL     1      36.284 -22.584 -16.483  0.00  0.00    +0.100 C 
ATOM     18  H   UNL     1      38.426 -23.373 -13.364  0.00  0.00    +0.156 HD
ENDBRANCH   5  16
ENDBRANCH   3   6
BRANCH   2  19
ATOM     19  C   UNL     1      35.041 -19.709 -20.581  0.00  0.00    +0.158 C 
BRANCH  19  21
ATOM     20  O   UNL     1      34.686 -17.344 -20.382  0.00  0.00    -0.456 OA
ATOM     21  C   UNL     1      34.902 -18.364 -21.233  0.00  0.00    +0.139 A 
ATOM     22  C   UNL     1      34.953 -17.967 -22.527  0.00  0.00    +0.013 A 
ATOM     23  C   UNL     1      34.750 -16.562 -22.501  0.00  0.00    +0.033 A 
ATOM     24  C   UNL     1      34.590 -16.229 -21.159  0.00  0.00    +0.145 A 
ATOM     25  C   UNL     1      35.173 -18.809 -23.719  0.00  0.00    +0.034 C 
ATOM     26  C   UNL     1      34.683 -15.538 -23.460  0.00  0.00    +0.003 C 
ATOM     27  C   UNL     1      34.367 -14.933 -20.697  0.00  0.00    +0.037 C 
ATOM     28  C   UNL     1      34.459 -14.224 -23.026  0.00  0.00    +0.000 C 
ATOM     29  C   UNL     1      34.304 -13.930 -21.669  0.00  0.00    +0.003 C 
ENDBRANCH  19  21
ENDBRANCH   2  19
TORSDOF 4
ENDMDL
MODEL 9
REMARK VINA RESULT:     -11.0      5.566     12.364
REMARK  Name = 10407120
REMARK  4 active torsions:
REMARK  status: ('A' for Active; 'I' for Inactive)
REMARK    1  A    between atoms: N_2  and  C_19
REMARK    2  A    between atoms: C_3  and  C_6
REMARK    3  A    between atoms: C_5  and  C_16
REMARK    4  A    between atoms: C_19  and  C_21
REMARK                            x       y       z     vdW  Elec       q    Type
REMARK                         _______ _______ _______ _____ _____    ______ ____
ROOT
ATOM      1  O   UNL     1      31.025 -24.485 -16.465  0.00  0.00    -0.270 OA
ATOM      2  N   UNL     1      32.731 -23.654 -15.121  0.00  0.00    -0.267 N 
ATOM      3  C   UNL     1      31.892 -23.638 -16.239  0.00  0.00    +0.250 C 
ATOM      4  C   UNL     1      32.599 -24.727 -14.144  0.00  0.00    +0.116 C 
ENDROOT
BRANCH   3   6
ATOM      5  C   UNL     1      32.975 -22.677 -18.240  0.00  0.00    +0.006 C 
ATOM      6  C   UNL     1      32.110 -22.525 -17.209  0.00  0.00    +0.058 C 
BRANCH   5  16
ATOM      7  O   UNL     1      35.526 -17.442 -23.281  0.00  0.00    -0.275 OA
ATOM      8  N   UNL     1      34.068 -18.730 -22.061  0.00  0.00    -0.270 N 
ATOM      9  N   UNL     1      32.525 -20.089 -20.892  0.00  0.00    -0.229 NA
ATOM     10  C   UNL     1      36.273 -19.765 -20.613  0.00  0.00    +0.039 C 
ATOM     11  C   UNL     1      34.885 -20.289 -20.408  0.00  0.00    +0.010 C 
ATOM     12  C   UNL     1      36.458 -19.268 -22.038  0.00  0.00    +0.090 C 
ATOM     13  C   UNL     1      33.813 -19.733 -21.106  0.00  0.00    +0.130 C 
ATOM     14  C   UNL     1      34.607 -21.264 -19.449  0.00  0.00    +0.000 C 
ATOM     15  C   UNL     1      35.328 -18.369 -22.496  0.00  0.00    +0.227 C 
ATOM     16  C   UNL     1      33.293 -21.661 -19.226  0.00  0.00    +0.019 C 
ATOM     17  C   UNL     1      32.298 -21.046 -19.965  0.00  0.00    +0.100 C 
ATOM     18  H   UNL     1      33.296 -18.254 -22.443  0.00  0.00    +0.156 HD
ENDBRANCH   5  16
ENDBRANCH   3   6
BRANCH   2  19
ATOM     19  C   UNL     1      33.788 -22.681 -14.850  0.00  0.00    +0.158 C 
BRANCH  19  21
ATOM     20  O   UNL     1      35.307 -24.225 -13.817  0.00  0.00    -0.456 OA
ATOM     21  C   UNL     1      35.144 -23.323 -14.803  0.00  0.00    +0.139 A 
ATOM     22  C   UNL     1      36.252 -23.173 -15.567  0.00  0.00    +0.013 A 
ATOM     23  C   UNL     1      37.214 -24.062 -15.018  0.00  0.00    +0.033 A 
ATOM     24  C   UNL     1      36.584 -24.684 -13.945  0.00  0.00    +0.145 A 
ATOM     25  C   UNL     1      36.432 -22.277 -16.727  0.00  0.00    +0.034 C 
ATOM     26  C   UNL     1      38.544 -24.409 -15.309  0.00  0.00    +0.003 C 
ATOM     27  C   UNL     1      37.189 -25.639 -13.131  0.00  0.00    +0.037 C 
ATOM     28  C   UNL     1      39.180 -25.366 -14.507  0.00  0.00    +0.000 C 
ATOM     29  C   UNL     1      38.513 -25.968 -13.438  0.00  0.00    +0.003 C 
ENDBRANCH  19  21
ENDBRANCH   2  19
TORSDOF 4
ENDMDL
