MODEL 1
REMARK VINA RESULT:     -11.7      0.000      0.000
REMARK  Name = 16048422
REMARK  11 active torsions:
REMARK  status: ('A' for Active; 'I' for Inactive)
REMARK    1  A    between atoms: C_1  and  C_4
REMARK    2  A    between atoms: C_1  and  N_18
REMARK    3  A    between atoms: C_1  and  C_33
REMARK    4  A    between atoms: N_3  and  C_6
REMARK    5  A    between atoms: C_6  and  C_9
REMARK    6  A    between atoms: C_9  and  C_11
REMARK    7  A    between atoms: C_19  and  C_21
REMARK    8  A    between atoms: C_24  and  C_27
REMARK    9  A    between atoms: C_33  and  C_34
REMARK   10  A    between atoms: C_34  and  C_36
REMARK   11  A    between atoms: C_36  and  O_37
REMARK                            x       y       z     vdW  Elec       q    Type
REMARK                         _______ _______ _______ _____ _____    ______ ____
ROOT
ATOM      1  C   UNL     1      34.109 -23.899 -15.661  0.00  0.00    +0.149 C 
ENDROOT
BRANCH   1   4
ATOM      2  O   UNL     1      32.745 -22.656 -14.097  0.00  0.00    -0.273 OA
ATOM      3  N   UNL     1      31.809 -24.481 -15.186  0.00  0.00    -0.306 N 
ATOM      4  C   UNL     1      32.829 -23.586 -14.897  0.00  0.00    +0.240 C 
ATOM      5  H   UNL     1      31.982 -25.192 -15.845  0.00  0.00    +0.149 HD
BRANCH   3   6
ATOM      6  C   UNL     1      30.505 -24.420 -14.567  0.00  0.00    +0.061 C 
ATOM      7  C   UNL     1      29.567 -25.417 -15.265  0.00  0.00    +0.020 C 
ATOM      8  C   UNL     1      30.657 -24.838 -13.095  0.00  0.00    +0.020 C 
BRANCH   6   9
ATOM      9  C   UNL     1      29.945 -22.974 -14.613  0.00  0.00    +0.044 C 
BRANCH   9  11
ATOM     10  F   UNL     1      25.569 -22.130 -18.071  0.00  0.00    -0.204 F 
ATOM     11  C   UNL     1      28.771 -22.748 -15.540  0.00  0.00    -0.020 C 
ATOM     12  C   UNL     1      28.892 -23.035 -16.900  0.00  0.00    -0.002 C 
ATOM     13  C   UNL     1      27.570 -22.252 -15.035  0.00  0.00    -0.002 C 
ATOM     14  C   UNL     1      27.810 -22.827 -17.754  0.00  0.00    +0.029 C 
ATOM     15  C   UNL     1      26.488 -22.044 -15.890  0.00  0.00    +0.029 C 
ATOM     16  C   UNL     1      26.608 -22.331 -17.250  0.00  0.00    +0.140 C 
ENDBRANCH   9  11
ENDBRANCH   6   9
ENDBRANCH   3   6
ENDBRANCH   1   4
BRANCH   1  18
ATOM     17  O   UNL     1      33.030 -24.132 -18.312  0.00  0.00    -0.270 OA
ATOM     18  N   UNL     1      34.185 -22.913 -16.712  0.00  0.00    -0.295 N 
ATOM     19  C   UNL     1      33.630 -23.117 -17.967  0.00  0.00    +0.246 C 
ATOM     20  H   UNL     1      34.648 -22.064 -16.532  0.00  0.00    +0.150 HD
BRANCH  19  21
ATOM     21  C   UNL     1      33.818 -22.017 -18.947  0.00  0.00    +0.053 C 
ATOM     22  C   UNL     1      35.103 -21.647 -19.343  0.00  0.00    +0.005 C 
ATOM     23  C   UNL     1      32.708 -21.354 -19.471  0.00  0.00    +0.005 C 
ATOM     24  C   UNL     1      34.169 -19.951 -20.788  0.00  0.00    +0.000 C 
ATOM     25  C   UNL     1      35.279 -20.613 -20.263  0.00  0.00    +0.000 C 
ATOM     26  C   UNL     1      32.884 -20.321 -20.392  0.00  0.00    +0.000 C 
BRANCH  24  27
ATOM     27  C   UNL     1      34.351 -18.879 -21.742  0.00  0.00    +0.000 C 
ATOM     28  C   UNL     1      34.042 -19.083 -23.087  0.00  0.00    +0.000 C 
ATOM     29  C   UNL     1      34.834 -17.641 -21.318  0.00  0.00    +0.000 C 
ATOM     30  C   UNL     1      34.216 -18.049 -24.007  0.00  0.00    +0.000 C 
ATOM     31  C   UNL     1      35.009 -16.607 -22.239  0.00  0.00    +0.000 C 
ATOM     32  C   UNL     1      34.700 -16.812 -23.583  0.00  0.00    +0.000 C 
ENDBRANCH  24  27
ENDBRANCH  19  21
ENDBRANCH   1  18
BRANCH   1  33
ATOM     33  C   UNL     1      35.345 -23.823 -14.756  0.00  0.00    +0.041 C 
BRANCH  33  34
ATOM     34  C   UNL     1      35.541 -25.043 -13.854  0.00  0.00    +0.112 C 
BRANCH  34  36
ATOM     35  O   UNL     1      35.899 -25.420 -11.474  0.00  0.00    -0.250 OA
ATOM     36  C   UNL     1      35.477 -24.713 -12.379  0.00  0.00    +0.314 C 
BRANCH  36  37
ATOM     37  O   UNL     1      34.910 -23.498 -12.166  0.00  0.00    -0.480 OA
ATOM     38  H   UNL     1      35.373 -22.841 -11.684  0.00  0.00    +0.295 HD
ENDBRANCH  36  37
ENDBRANCH  34  36
ENDBRANCH  33  34
ENDBRANCH   1  33
TORSDOF 11
ENDMDL
MODEL 2
REMARK VINA RESULT:     -11.6      7.868     13.545
REMARK  Name = 16048422
REMARK  11 active torsions:
REMARK  status: ('A' for Active; 'I' for Inactive)
REMARK    1  A    between atoms: C_1  and  C_4
REMARK    2  A    between atoms: C_1  and  N_18
REMARK    3  A    between atoms: C_1  and  C_33
REMARK    4  A    between atoms: N_3  and  C_6
REMARK    5  A    between atoms: C_6  and  C_9
REMARK    6  A    between atoms: C_9  and  C_11
REMARK    7  A    between atoms: C_19  and  C_21
REMARK    8  A    between atoms: C_24  and  C_27
REMARK    9  A    between atoms: C_33  and  C_34
REMARK   10  A    between atoms: C_34  and  C_36
REMARK   11  A    between atoms: C_36  and  O_37
REMARK                            x       y       z     vdW  Elec       q    Type
REMARK                         _______ _______ _______ _____ _____    ______ ____
ROOT
ATOM      1  C   UNL     1      33.540 -13.814 -25.366  0.00  0.00    +0.149 C 
ENDROOT
BRANCH   1   4
ATOM      2  O   UNL     1      33.854 -12.592 -23.302  0.00  0.00    -0.273 OA
ATOM      3  N   UNL     1      33.386 -11.402 -25.241  0.00  0.00    -0.306 N 
ATOM      4  C   UNL     1      33.626 -12.556 -24.510  0.00  0.00    +0.240 C 
ATOM      5  H   UNL     1      33.213 -11.487 -26.206  0.00  0.00    +0.149 HD
BRANCH   3   6
ATOM      6  C   UNL     1      33.377 -10.082 -24.654  0.00  0.00    +0.061 C 
ATOM      7  C   UNL     1      34.822  -9.648 -24.363  0.00  0.00    +0.020 C 
ATOM      8  C   UNL     1      32.771  -9.109 -25.679  0.00  0.00    +0.020 C 
BRANCH   6   9
ATOM      9  C   UNL     1      32.500 -10.058 -23.375  0.00  0.00    +0.044 C 
BRANCH   9  11
ATOM     10  F   UNL     1      31.050  -4.950 -21.470  0.00  0.00    -0.204 F 
ATOM     11  C   UNL     1      32.111  -8.688 -22.864  0.00  0.00    -0.020 C 
ATOM     12  C   UNL     1      30.840  -8.180 -23.132  0.00  0.00    -0.002 C 
ATOM     13  C   UNL     1      33.024  -7.935 -22.126  0.00  0.00    -0.002 C 
ATOM     14  C   UNL     1      30.482  -6.917 -22.660  0.00  0.00    +0.029 C 
ATOM     15  C   UNL     1      32.665  -6.672 -21.655  0.00  0.00    +0.029 C 
ATOM     16  C   UNL     1      31.394  -6.164 -21.922  0.00  0.00    +0.140 C 
ENDBRANCH   9  11
ENDBRANCH   6   9
ENDBRANCH   3   6
ENDBRANCH   1   4
BRANCH   1  18
ATOM     17  O   UNL     1      34.754 -16.363 -25.887  0.00  0.00    -0.270 OA
ATOM     18  N   UNL     1      33.652 -14.918 -24.445  0.00  0.00    -0.295 N 
ATOM     19  C   UNL     1      34.260 -16.117 -24.790  0.00  0.00    +0.246 C 
ATOM     20  H   UNL     1      33.285 -14.818 -23.538  0.00  0.00    +0.150 HD
BRANCH  19  21
ATOM     21  C   UNL     1      34.271 -17.166 -23.738  0.00  0.00    +0.053 C 
ATOM     22  C   UNL     1      34.817 -16.891 -22.484  0.00  0.00    +0.005 C 
ATOM     23  C   UNL     1      33.734 -18.425 -24.004  0.00  0.00    +0.005 C 
ATOM     24  C   UNL     1      34.291 -19.136 -21.763  0.00  0.00    +0.000 C 
ATOM     25  C   UNL     1      34.828 -17.876 -21.496  0.00  0.00    +0.000 C 
ATOM     26  C   UNL     1      33.744 -19.411 -23.016  0.00  0.00    +0.000 C 
BRANCH  24  27
ATOM     27  C   UNL     1      34.301 -20.158 -20.739  0.00  0.00    +0.000 C 
ATOM     28  C   UNL     1      33.099 -20.655 -20.237  0.00  0.00    +0.000 C 
ATOM     29  C   UNL     1      35.514 -20.648 -20.254  0.00  0.00    +0.000 C 
ATOM     30  C   UNL     1      33.109 -21.641 -19.251  0.00  0.00    +0.000 C 
ATOM     31  C   UNL     1      35.524 -21.634 -19.267  0.00  0.00    +0.000 C 
ATOM     32  C   UNL     1      34.321 -22.130 -18.766  0.00  0.00    +0.000 C 
ENDBRANCH  24  27
ENDBRANCH  19  21
ENDBRANCH   1  18
BRANCH   1  33
ATOM     33  C   UNL     1      32.218 -13.886 -26.140  0.00  0.00    +0.041 C 
BRANCH  33  34
ATOM     34  C   UNL     1      32.334 -14.518 -27.528  0.00  0.00    +0.112 C 
BRANCH  34  36
ATOM     35  O   UNL     1      32.051 -16.931 -27.712  0.00  0.00    -0.250 OA
ATOM     36  C   UNL     1      31.561 -15.811 -27.664  0.00  0.00    +0.314 C 
BRANCH  36  37
ATOM     37  O   UNL     1      30.221 -15.588 -27.699  0.00  0.00    -0.480 OA
ATOM     38  H   UNL     1      29.865 -14.810 -27.317  0.00  0.00    +0.295 HD
ENDBRANCH  36  37
ENDBRANCH  34  36
ENDBRANCH  33  34
ENDBRANCH   1  33
TORSDOF 11
ENDMDL
MODEL 3
REMARK VINA RESULT:     -11.2      3.475      6.646
REMARK  Name = 16048422
REMARK  11 active torsions:
REMARK  status: ('A' for Active; 'I' for Inactive)
REMARK    1  A    between atoms: C_1  and  C_4
REMARK    2  A    between atoms: C_1  and  N_18
REMARK    3  A    between atoms: C_1  and  C_33
REMARK    4  A    between atoms: N_3  and  C_6
REMARK    5  A    between atoms: C_6  and  C_9
REMARK    6  A    between atoms: C_9  and  C_11
REMARK    7  A    between atoms: C_19  and  C_21
REMARK    8  A    between atoms: C_24  and  C_27
REMARK    9  A    between atoms: C_33  and  C_34
REMARK   10  A    between atoms: C_34  and  C_36
REMARK   11  A    between atoms: C_36  and  O_37
REMARK                            x       y       z     vdW  Elec       q    Type
REMARK                         _______ _______ _______ _____ _____    ______ ____
ROOT
ATOM      1  C   UNL     1      30.961 -23.347 -15.235  0.00  0.00    +0.149 C 
ENDROOT
BRANCH   1   4
ATOM      2  O   UNL     1      31.895 -25.371 -14.293  0.00  0.00    -0.273 OA
ATOM      3  N   UNL     1      33.263 -23.506 -14.504  0.00  0.00    -0.306 N 
ATOM      4  C   UNL     1      32.071 -24.203 -14.638  0.00  0.00    +0.240 C 
ATOM      5  H   UNL     1      33.296 -22.572 -14.813  0.00  0.00    +0.149 HD
BRANCH   3   6
ATOM      6  C   UNL     1      34.458 -24.084 -13.933  0.00  0.00    +0.061 C 
ATOM      7  C   UNL     1      34.277 -24.222 -12.414  0.00  0.00    +0.020 C 
ATOM      8  C   UNL     1      34.642 -25.488 -14.535  0.00  0.00    +0.020 C 
BRANCH   6   9
ATOM      9  C   UNL     1      35.702 -23.229 -14.289  0.00  0.00    +0.044 C 
BRANCH   9  11
ATOM     10  F   UNL     1      40.636 -25.963 -14.365  0.00  0.00    -0.204 F 
ATOM     11  C   UNL     1      37.025 -23.962 -14.310  0.00  0.00    -0.020 C 
ATOM     12  C   UNL     1      37.794 -23.980 -15.473  0.00  0.00    -0.002 C 
ATOM     13  C   UNL     1      37.475 -24.620 -13.165  0.00  0.00    -0.002 C 
ATOM     14  C   UNL     1      39.015 -24.655 -15.491  0.00  0.00    +0.029 C 
ATOM     15  C   UNL     1      38.695 -25.295 -13.183  0.00  0.00    +0.029 C 
ATOM     16  C   UNL     1      39.464 -25.313 -14.347  0.00  0.00    +0.140 C 
ENDBRANCH   9  11
ENDBRANCH   6   9
ENDBRANCH   3   6
ENDBRANCH   1   4
BRANCH   1  18
ATOM     17  O   UNL     1      32.724 -24.406 -17.239  0.00  0.00    -0.270 OA
ATOM     18  N   UNL     1      31.575 -22.615 -16.316  0.00  0.00    -0.295 N 
ATOM     19  C   UNL     1      32.417 -23.217 -17.240  0.00  0.00    +0.246 C 
ATOM     20  H   UNL     1      31.390 -21.653 -16.401  0.00  0.00    +0.150 HD
BRANCH  19  21
ATOM     21  C   UNL     1      32.991 -22.321 -18.276  0.00  0.00    +0.053 C 
ATOM     22  C   UNL     1      32.154 -21.489 -19.020  0.00  0.00    +0.005 C 
ATOM     23  C   UNL     1      34.367 -22.311 -18.504  0.00  0.00    +0.005 C 
ATOM     24  C   UNL     1      34.070 -20.637 -20.222  0.00  0.00    +0.000 C 
ATOM     25  C   UNL     1      32.694 -20.648 -19.994  0.00  0.00    +0.000 C 
ATOM     26  C   UNL     1      34.907 -21.469 -19.477  0.00  0.00    +0.000 C 
BRANCH  24  27
ATOM     27  C   UNL     1      34.629 -19.765 -21.230  0.00  0.00    +0.000 C 
ATOM     28  C   UNL     1      33.857 -19.379 -22.326  0.00  0.00    +0.000 C 
ATOM     29  C   UNL     1      35.941 -19.307 -21.107  0.00  0.00    +0.000 C 
ATOM     30  C   UNL     1      34.397 -18.537 -23.298  0.00  0.00    +0.000 C 
ATOM     31  C   UNL     1      36.481 -18.465 -22.080  0.00  0.00    +0.000 C 
ATOM     32  C   UNL     1      35.708 -18.080 -23.176  0.00  0.00    +0.000 C 
ENDBRANCH  24  27
ENDBRANCH  19  21
ENDBRANCH   1  18
BRANCH   1  33
ATOM     33  C   UNL     1      29.798 -24.203 -15.751  0.00  0.00    +0.041 C 
BRANCH  33  34
ATOM     34  C   UNL     1      28.420 -23.559 -15.585  0.00  0.00    +0.112 C 
BRANCH  34  36
ATOM     35  O   UNL     1      27.630 -22.006 -17.287  0.00  0.00    -0.250 OA
ATOM     36  C   UNL     1      27.786 -23.155 -16.897  0.00  0.00    +0.314 C 
BRANCH  36  37
ATOM     37  O   UNL     1      27.424 -24.240 -17.630  0.00  0.00    -0.480 OA
ATOM     38  H   UNL     1      28.077 -24.841 -17.932  0.00  0.00    +0.295 HD
ENDBRANCH  36  37
ENDBRANCH  34  36
ENDBRANCH  33  34
ENDBRANCH   1  33
TORSDOF 11
ENDMDL
MODEL 4
REMARK VINA RESULT:     -10.9      8.327     14.260
REMARK  Name = 16048422
REMARK  11 active torsions:
REMARK  status: ('A' for Active; 'I' for Inactive)
REMARK    1  A    between atoms: C_1  and  C_4
REMARK    2  A    between atoms: C_1  and  N_18
REMARK    3  A    between atoms: C_1  and  C_33
REMARK    4  A    between atoms: N_3  and  C_6
REMARK    5  A    between atoms: C_6  and  C_9
REMARK    6  A    between atoms: C_9  and  C_11
REMARK    7  A    between atoms: C_19  and  C_21
REMARK    8  A    between atoms: C_24  and  C_27
REMARK    9  A    between atoms: C_33  and  C_34
REMARK   10  A    between atoms: C_34  and  C_36
REMARK   11  A    between atoms: C_36  and  O_37
REMARK                            x       y       z     vdW  Elec       q    Type
REMARK                         _______ _______ _______ _____ _____    ______ ____
ROOT
ATOM      1  C   UNL     1      33.428 -13.563 -25.685  0.00  0.00    +0.149 C 
ENDROOT
BRANCH   1   4
ATOM      2  O   UNL     1      33.539 -12.318 -23.615  0.00  0.00    -0.273 OA
ATOM      3  N   UNL     1      33.681 -11.158 -25.621  0.00  0.00    -0.306 N 
ATOM      4  C   UNL     1      33.564 -12.301 -24.844  0.00  0.00    +0.240 C 
ATOM      5  H   UNL     1      33.690 -11.256 -26.601  0.00  0.00    +0.149 HD
BRANCH   3   6
ATOM      6  C   UNL     1      33.789  -9.829 -25.063  0.00  0.00    +0.061 C 
ATOM      7  C   UNL     1      32.711  -9.644 -23.985  0.00  0.00    +0.020 C 
ATOM      8  C   UNL     1      35.172  -9.703 -24.401  0.00  0.00    +0.020 C 
BRANCH   6   9
ATOM      9  C   UNL     1      33.678  -8.757 -26.178  0.00  0.00    +0.044 C 
BRANCH   9  11
ATOM     10  F   UNL     1      30.282  -4.390 -25.076  0.00  0.00    -0.204 F 
ATOM     11  C   UNL     1      32.768  -7.586 -25.883  0.00  0.00    -0.020 C 
ATOM     12  C   UNL     1      33.193  -6.571 -25.027  0.00  0.00    -0.002 C 
ATOM     13  C   UNL     1      31.503  -7.522 -26.466  0.00  0.00    -0.002 C 
ATOM     14  C   UNL     1      32.354  -5.491 -24.755  0.00  0.00    +0.029 C 
ATOM     15  C   UNL     1      30.663  -6.442 -26.195  0.00  0.00    +0.029 C 
ATOM     16  C   UNL     1      31.089  -5.427 -25.338  0.00  0.00    +0.140 C 
ENDBRANCH   9  11
ENDBRANCH   6   9
ENDBRANCH   3   6
ENDBRANCH   1   4
BRANCH   1  18
ATOM     17  O   UNL     1      34.633 -16.114 -26.223  0.00  0.00    -0.270 OA
ATOM     18  N   UNL     1      33.567 -14.662 -24.761  0.00  0.00    -0.295 N 
ATOM     19  C   UNL     1      34.168 -15.862 -25.115  0.00  0.00    +0.246 C 
ATOM     20  H   UNL     1      33.224 -14.557 -23.846  0.00  0.00    +0.150 HD
BRANCH  19  21
ATOM     21  C   UNL     1      34.208 -16.904 -24.057  0.00  0.00    +0.053 C 
ATOM     22  C   UNL     1      33.786 -18.203 -24.341  0.00  0.00    +0.005 C 
ATOM     23  C   UNL     1      34.670 -16.584 -22.781  0.00  0.00    +0.005 C 
ATOM     24  C   UNL     1      34.286 -18.861 -22.071  0.00  0.00    +0.000 C 
ATOM     25  C   UNL     1      33.824 -19.182 -23.347  0.00  0.00    +0.000 C 
ATOM     26  C   UNL     1      34.709 -17.563 -21.787  0.00  0.00    +0.000 C 
BRANCH  24  27
ATOM     27  C   UNL     1      34.326 -19.876 -21.040  0.00  0.00    +0.000 C 
ATOM     28  C   UNL     1      33.138 -20.377 -20.508  0.00  0.00    +0.000 C 
ATOM     29  C   UNL     1      35.552 -20.355 -20.580  0.00  0.00    +0.000 C 
ATOM     30  C   UNL     1      33.176 -21.356 -19.515  0.00  0.00    +0.000 C 
ATOM     31  C   UNL     1      35.590 -21.334 -19.586  0.00  0.00    +0.000 C 
ATOM     32  C   UNL     1      34.402 -21.834 -19.054  0.00  0.00    +0.000 C 
ENDBRANCH  24  27
ENDBRANCH  19  21
ENDBRANCH   1  18
BRANCH   1  33
ATOM     33  C   UNL     1      32.075 -13.627 -26.403  0.00  0.00    +0.041 C 
BRANCH  33  34
ATOM     34  C   UNL     1      32.102 -14.379 -27.735  0.00  0.00    +0.112 C 
BRANCH  34  36
ATOM     35  O   UNL     1      31.885 -16.805 -27.706  0.00  0.00    -0.250 OA
ATOM     36  C   UNL     1      31.364 -15.699 -27.693  0.00  0.00    +0.314 C 
BRANCH  36  37
ATOM     37  O   UNL     1      30.021 -15.514 -27.605  0.00  0.00    -0.480 OA
ATOM     38  H   UNL     1      29.645 -14.688 -27.836  0.00  0.00    +0.295 HD
ENDBRANCH  36  37
ENDBRANCH  34  36
ENDBRANCH  33  34
ENDBRANCH   1  33
TORSDOF 11
ENDMDL
MODEL 5
REMARK VINA RESULT:     -10.3      6.232     11.731
REMARK  Name = 16048422
REMARK  11 active torsions:
REMARK  status: ('A' for Active; 'I' for Inactive)
REMARK    1  A    between atoms: C_1  and  C_4
REMARK    2  A    between atoms: C_1  and  N_18
REMARK    3  A    between atoms: C_1  and  C_33
REMARK    4  A    between atoms: N_3  and  C_6
REMARK    5  A    between atoms: C_6  and  C_9
REMARK    6  A    between atoms: C_9  and  C_11
REMARK    7  A    between atoms: C_19  and  C_21
REMARK    8  A    between atoms: C_24  and  C_27
REMARK    9  A    between atoms: C_33  and  C_34
REMARK   10  A    between atoms: C_34  and  C_36
REMARK   11  A    between atoms: C_36  and  O_37
REMARK                            x       y       z     vdW  Elec       q    Type
REMARK                         _______ _______ _______ _____ _____    ______ ____
ROOT
ATOM      1  C   UNL     1      34.243 -16.429 -23.933  0.00  0.00    +0.149 C 
ENDROOT
BRANCH   1   4
ATOM      2  O   UNL     1      34.392 -14.820 -22.134  0.00  0.00    -0.273 OA
ATOM      3  N   UNL     1      33.378 -14.177 -24.121  0.00  0.00    -0.306 N 
ATOM      4  C   UNL     1      34.035 -15.067 -23.284  0.00  0.00    +0.240 C 
ATOM      5  H   UNL     1      33.135 -14.479 -25.027  0.00  0.00    +0.149 HD
BRANCH   3   6
ATOM      6  C   UNL     1      33.032 -12.830 -23.729  0.00  0.00    +0.061 C 
ATOM      7  C   UNL     1      34.257 -12.159 -23.089  0.00  0.00    +0.020 C 
ATOM      8  C   UNL     1      32.651 -12.048 -24.997  0.00  0.00    +0.020 C 
BRANCH   6   9
ATOM      9  C   UNL     1      31.813 -12.836 -22.770  0.00  0.00    +0.044 C 
BRANCH   9  11
ATOM     10  F   UNL     1      31.464  -8.491 -19.191  0.00  0.00    -0.204 F 
ATOM     11  C   UNL     1      31.719 -11.671 -21.810  0.00  0.00    -0.020 C 
ATOM     12  C   UNL     1      31.628 -10.369 -22.302  0.00  0.00    -0.002 C 
ATOM     13  C   UNL     1      31.724 -11.900 -20.435  0.00  0.00    -0.002 C 
ATOM     14  C   UNL     1      31.541  -9.295 -21.417  0.00  0.00    +0.029 C 
ATOM     15  C   UNL     1      31.637 -10.825 -19.550  0.00  0.00    +0.029 C 
ATOM     16  C   UNL     1      31.546  -9.523 -20.041  0.00  0.00    +0.140 C 
ENDBRANCH   9  11
ENDBRANCH   6   9
ENDBRANCH   3   6
ENDBRANCH   1   4
BRANCH   1  18
ATOM     17  O   UNL     1      35.045 -19.183 -24.054  0.00  0.00    -0.270 OA
ATOM     18  N   UNL     1      34.212 -17.383 -22.852  0.00  0.00    -0.295 N 
ATOM     19  C   UNL     1      34.623 -18.699 -23.007  0.00  0.00    +0.246 C 
ATOM     20  H   UNL     1      33.888 -17.090 -21.971  0.00  0.00    +0.150 HD
BRANCH  19  21
ATOM     21  C   UNL     1      34.504 -19.563 -21.804  0.00  0.00    +0.053 C 
ATOM     22  C   UNL     1      35.650 -20.062 -21.187  0.00  0.00    +0.005 C 
ATOM     23  C   UNL     1      33.244 -19.874 -21.292  0.00  0.00    +0.005 C 
ATOM     24  C   UNL     1      34.279 -21.185 -19.546  0.00  0.00    +0.000 C 
ATOM     25  C   UNL     1      35.538 -20.874 -20.058  0.00  0.00    +0.000 C 
ATOM     26  C   UNL     1      33.131 -20.686 -20.162  0.00  0.00    +0.000 C 
BRANCH  24  27
ATOM     27  C   UNL     1      34.162 -22.026 -18.375  0.00  0.00    +0.000 C 
ATOM     28  C   UNL     1      32.957 -22.674 -18.099  0.00  0.00    +0.000 C 
ATOM     29  C   UNL     1      35.253 -22.192 -17.522  0.00  0.00    +0.000 C 
ATOM     30  C   UNL     1      32.845 -23.486 -16.970  0.00  0.00    +0.000 C 
ATOM     31  C   UNL     1      35.140 -23.004 -16.393  0.00  0.00    +0.000 C 
ATOM     32  C   UNL     1      33.936 -23.651 -16.117  0.00  0.00    +0.000 C 
ENDBRANCH  24  27
ENDBRANCH  19  21
ENDBRANCH   1  18
BRANCH   1  33
ATOM     33  C   UNL     1      33.150 -16.742 -24.963  0.00  0.00    +0.041 C 
BRANCH  33  34
ATOM     34  C   UNL     1      33.588 -16.567 -26.419  0.00  0.00    +0.112 C 
BRANCH  34  36
ATOM     35  O   UNL     1      32.480 -14.588 -27.308  0.00  0.00    -0.250 OA
ATOM     36  C   UNL     1      32.586 -15.805 -27.258  0.00  0.00    +0.314 C 
BRANCH  36  37
ATOM     37  O   UNL     1      31.812 -16.646 -27.993  0.00  0.00    -0.480 OA
ATOM     38  H   UNL     1      30.917 -16.789 -27.756  0.00  0.00    +0.295 HD
ENDBRANCH  36  37
ENDBRANCH  34  36
ENDBRANCH  33  34
ENDBRANCH   1  33
TORSDOF 11
ENDMDL
MODEL 6
REMARK VINA RESULT:     -10.3      7.313     12.210
REMARK  Name = 16048422
REMARK  11 active torsions:
REMARK  status: ('A' for Active; 'I' for Inactive)
REMARK    1  A    between atoms: C_1  and  C_4
REMARK    2  A    between atoms: C_1  and  N_18
REMARK    3  A    between atoms: C_1  and  C_33
REMARK    4  A    between atoms: N_3  and  C_6
REMARK    5  A    between atoms: C_6  and  C_9
REMARK    6  A    between atoms: C_9  and  C_11
REMARK    7  A    between atoms: C_19  and  C_21
REMARK    8  A    between atoms: C_24  and  C_27
REMARK    9  A    between atoms: C_33  and  C_34
REMARK   10  A    between atoms: C_34  and  C_36
REMARK   11  A    between atoms: C_36  and  O_37
REMARK                            x       y       z     vdW  Elec       q    Type
REMARK                         _______ _______ _______ _____ _____    ______ ____
ROOT
ATOM      1  C   UNL     1      33.139 -14.718 -26.889  0.00  0.00    +0.149 C 
ENDROOT
BRANCH   1   4
ATOM      2  O   UNL     1      32.070 -12.548 -26.862  0.00  0.00    -0.273 OA
ATOM      3  N   UNL     1      33.192 -13.261 -24.958  0.00  0.00    -0.306 N 
ATOM      4  C   UNL     1      32.724 -13.396 -26.256  0.00  0.00    +0.240 C 
ATOM      5  H   UNL     1      33.708 -14.003 -24.566  0.00  0.00    +0.149 HD
BRANCH   3   6
ATOM      6  C   UNL     1      32.962 -12.083 -24.152  0.00  0.00    +0.061 C 
ATOM      7  C   UNL     1      34.133 -11.902 -23.175  0.00  0.00    +0.020 C 
ATOM      8  C   UNL     1      32.914 -10.866 -25.091  0.00  0.00    +0.020 C 
BRANCH   6   9
ATOM      9  C   UNL     1      31.603 -12.187 -23.410  0.00  0.00    +0.044 C 
BRANCH   9  11
ATOM     10  F   UNL     1      31.520 -10.219 -18.125  0.00  0.00    -0.204 F 
ATOM     11  C   UNL     1      31.581 -11.659 -21.993  0.00  0.00    -0.020 C 
ATOM     12  C   UNL     1      31.385 -10.298 -21.759  0.00  0.00    -0.002 C 
ATOM     13  C   UNL     1      31.757 -12.533 -20.921  0.00  0.00    -0.002 C 
ATOM     14  C   UNL     1      31.364  -9.812 -20.452  0.00  0.00    +0.029 C 
ATOM     15  C   UNL     1      31.735 -12.047 -19.614  0.00  0.00    +0.029 C 
ATOM     16  C   UNL     1      31.539 -10.686 -19.380  0.00  0.00    +0.140 C 
ENDBRANCH   9  11
ENDBRANCH   6   9
ENDBRANCH   3   6
ENDBRANCH   1   4
BRANCH   1  18
ATOM     17  O   UNL     1      35.375 -16.432 -26.333  0.00  0.00    -0.270 OA
ATOM     18  N   UNL     1      33.258 -15.651 -25.795  0.00  0.00    -0.295 N 
ATOM     19  C   UNL     1      34.383 -16.440 -25.608  0.00  0.00    +0.246 C 
ATOM     20  H   UNL     1      32.513 -15.731 -25.158  0.00  0.00    +0.150 HD
BRANCH  19  21
ATOM     21  C   UNL     1      34.339 -17.371 -24.450  0.00  0.00    +0.053 C 
ATOM     22  C   UNL     1      34.051 -18.720 -24.651  0.00  0.00    +0.005 C 
ATOM     23  C   UNL     1      34.586 -16.894 -23.163  0.00  0.00    +0.005 C 
ATOM     24  C   UNL     1      34.256 -19.117 -22.277  0.00  0.00    +0.000 C 
ATOM     25  C   UNL     1      34.009 -19.594 -23.564  0.00  0.00    +0.000 C 
ATOM     26  C   UNL     1      34.545 -17.767 -22.076  0.00  0.00    +0.000 C 
BRANCH  24  27
ATOM     27  C   UNL     1      34.213 -20.022 -21.149  0.00  0.00    +0.000 C 
ATOM     28  C   UNL     1      35.398 -20.533 -20.619  0.00  0.00    +0.000 C 
ATOM     29  C   UNL     1      32.987 -20.383 -20.590  0.00  0.00    +0.000 C 
ATOM     30  C   UNL     1      35.356 -21.404 -19.530  0.00  0.00    +0.000 C 
ATOM     31  C   UNL     1      32.946 -21.256 -19.502  0.00  0.00    +0.000 C 
ATOM     32  C   UNL     1      34.131 -21.766 -18.973  0.00  0.00    +0.000 C 
ENDBRANCH  24  27
ENDBRANCH  19  21
ENDBRANCH   1  18
BRANCH   1  33
ATOM     33  C   UNL     1      32.107 -15.209 -27.911  0.00  0.00    +0.041 C 
BRANCH  33  34
ATOM     34  C   UNL     1      30.920 -15.954 -27.299  0.00  0.00    +0.112 C 
BRANCH  34  36
ATOM     35  O   UNL     1      31.852 -18.188 -27.571  0.00  0.00    -0.250 OA
ATOM     36  C   UNL     1      31.251 -17.372 -26.887  0.00  0.00    +0.314 C 
BRANCH  36  37
ATOM     37  O   UNL     1      30.819 -17.637 -25.627  0.00  0.00    -0.480 OA
ATOM     38  H   UNL     1      31.365 -17.436 -24.892  0.00  0.00    +0.295 HD
ENDBRANCH  36  37
ENDBRANCH  34  36
ENDBRANCH  33  34
ENDBRANCH   1  33
TORSDOF 11
ENDMDL
MODEL 7
REMARK VINA RESULT:     -10.2     11.566     15.312
REMARK  Name = 16048422
REMARK  11 active torsions:
REMARK  status: ('A' for Active; 'I' for Inactive)
REMARK    1  A    between atoms: C_1  and  C_4
REMARK    2  A    between atoms: C_1  and  N_18
REMARK    3  A    between atoms: C_1  and  C_33
REMARK    4  A    between atoms: N_3  and  C_6
REMARK    5  A    between atoms: C_6  and  C_9
REMARK    6  A    between atoms: C_9  and  C_11
REMARK    7  A    between atoms: C_19  and  C_21
REMARK    8  A    between atoms: C_24  and  C_27
REMARK    9  A    between atoms: C_33  and  C_34
REMARK   10  A    between atoms: C_34  and  C_36
REMARK   11  A    between atoms: C_36  and  O_37
REMARK                            x       y       z     vdW  Elec       q    Type
REMARK                         _______ _______ _______ _____ _____    ______ ____
ROOT
ATOM      1  C   UNL     1      33.393  -7.758 -25.093  0.00  0.00    +0.149 C 
ENDROOT
BRANCH   1   4
ATOM      2  O   UNL     1      31.287  -7.002 -24.175  0.00  0.00    -0.273 OA
ATOM      3  N   UNL     1      33.050  -7.416 -22.722  0.00  0.00    -0.306 N 
ATOM      4  C   UNL     1      32.445  -7.359 -23.969  0.00  0.00    +0.240 C 
ATOM      5  H   UNL     1      33.986  -7.717 -22.669  0.00  0.00    +0.149 HD
BRANCH   3   6
ATOM      6  C   UNL     1      32.373  -7.054 -21.497  0.00  0.00    +0.061 C 
ATOM      7  C   UNL     1      33.322  -7.278 -20.310  0.00  0.00    +0.020 C 
ATOM      8  C   UNL     1      32.023  -5.559 -21.571  0.00  0.00    +0.020 C 
BRANCH   6   9
ATOM      9  C   UNL     1      31.057  -7.860 -21.342  0.00  0.00    +0.044 C 
BRANCH   9  11
ATOM     10  F   UNL     1      31.642 -13.315 -20.031  0.00  0.00    -0.204 F 
ATOM     11  C   UNL     1      31.214  -9.323 -20.990  0.00  0.00    -0.020 C 
ATOM     12  C   UNL     1      31.320  -9.711 -19.655  0.00  0.00    -0.002 C 
ATOM     13  C   UNL     1      31.253 -10.282 -22.001  0.00  0.00    -0.002 C 
ATOM     14  C   UNL     1      31.464 -11.060 -19.331  0.00  0.00    +0.029 C 
ATOM     15  C   UNL     1      31.397 -11.631 -21.677  0.00  0.00    +0.029 C 
ATOM     16  C   UNL     1      31.503 -12.020 -20.342  0.00  0.00    +0.140 C 
ENDBRANCH   9  11
ENDBRANCH   6   9
ENDBRANCH   3   6
ENDBRANCH   1   4
BRANCH   1  18
ATOM     17  O   UNL     1      34.949  -9.887 -23.957  0.00  0.00    -0.270 OA
ATOM     18  N   UNL     1      33.189  -9.173 -25.288  0.00  0.00    -0.295 N 
ATOM     19  C   UNL     1      33.997 -10.131 -24.694  0.00  0.00    +0.246 C 
ATOM     20  H   UNL     1      32.450  -9.470 -25.865  0.00  0.00    +0.150 HD
BRANCH  19  21
ATOM     21  C   UNL     1      33.674 -11.545 -25.016  0.00  0.00    +0.053 C 
ATOM     22  C   UNL     1      33.792 -12.529 -24.035  0.00  0.00    +0.005 C 
ATOM     23  C   UNL     1      33.251 -11.887 -26.301  0.00  0.00    +0.005 C 
ATOM     24  C   UNL     1      33.066 -14.199 -25.623  0.00  0.00    +0.000 C 
ATOM     25  C   UNL     1      33.488 -13.857 -24.339  0.00  0.00    +0.000 C 
ATOM     26  C   UNL     1      32.947 -13.214 -26.605  0.00  0.00    +0.000 C 
BRANCH  24  27
ATOM     27  C   UNL     1      32.750 -15.575 -25.939  0.00  0.00    +0.000 C 
ATOM     28  C   UNL     1      33.268 -16.607 -25.155  0.00  0.00    +0.000 C 
ATOM     29  C   UNL     1      31.927 -15.871 -27.026  0.00  0.00    +0.000 C 
ATOM     30  C   UNL     1      32.963 -17.934 -25.459  0.00  0.00    +0.000 C 
ATOM     31  C   UNL     1      31.623 -17.199 -27.329  0.00  0.00    +0.000 C 
ATOM     32  C   UNL     1      32.141 -18.229 -26.545  0.00  0.00    +0.000 C 
ENDBRANCH  24  27
ENDBRANCH  19  21
ENDBRANCH   1  18
BRANCH   1  33
ATOM     33  C   UNL     1      33.102  -6.985 -26.384  0.00  0.00    +0.041 C 
BRANCH  33  34
ATOM     34  C   UNL     1      32.097  -7.668 -27.315  0.00  0.00    +0.112 C 
BRANCH  34  36
ATOM     35  O   UNL     1      30.875  -6.224 -28.850  0.00  0.00    -0.250 OA
ATOM     36  C   UNL     1      30.972  -6.757 -27.753  0.00  0.00    +0.314 C 
BRANCH  36  37
ATOM     37  O   UNL     1      30.039  -6.613 -26.775  0.00  0.00    -0.480 OA
ATOM     38  H   UNL     1      30.183  -6.008 -26.075  0.00  0.00    +0.295 HD
ENDBRANCH  36  37
ENDBRANCH  34  36
ENDBRANCH  33  34
ENDBRANCH   1  33
TORSDOF 11
ENDMDL
MODEL 8
REMARK VINA RESULT:     -10.2      6.799     12.844
REMARK  Name = 16048422
REMARK  11 active torsions:
REMARK  status: ('A' for Active; 'I' for Inactive)
REMARK    1  A    between atoms: C_1  and  C_4
REMARK    2  A    between atoms: C_1  and  N_18
REMARK    3  A    between atoms: C_1  and  C_33
REMARK    4  A    between atoms: N_3  and  C_6
REMARK    5  A    between atoms: C_6  and  C_9
REMARK    6  A    between atoms: C_9  and  C_11
REMARK    7  A    between atoms: C_19  and  C_21
REMARK    8  A    between atoms: C_24  and  C_27
REMARK    9  A    between atoms: C_33  and  C_34
REMARK   10  A    between atoms: C_34  and  C_36
REMARK   11  A    between atoms: C_36  and  O_37
REMARK                            x       y       z     vdW  Elec       q    Type
REMARK                         _______ _______ _______ _____ _____    ______ ____
ROOT
ATOM      1  C   UNL     1      34.187 -16.378 -24.241  0.00  0.00    +0.149 C 
ENDROOT
BRANCH   1   4
ATOM      2  O   UNL     1      34.519 -14.697 -22.534  0.00  0.00    -0.273 OA
ATOM      3  N   UNL     1      33.365 -14.113 -24.462  0.00  0.00    -0.306 N 
ATOM      4  C   UNL     1      34.065 -14.984 -23.640  0.00  0.00    +0.240 C 
ATOM      5  H   UNL     1      33.043 -14.447 -25.331  0.00  0.00    +0.149 HD
BRANCH   3   6
ATOM      6  C   UNL     1      33.084 -12.741 -24.105  0.00  0.00    +0.061 C 
ATOM      7  C   UNL     1      32.243 -12.092 -25.215  0.00  0.00    +0.020 C 
ATOM      8  C   UNL     1      32.261 -12.747 -22.806  0.00  0.00    +0.020 C 
BRANCH   6   9
ATOM      9  C   UNL     1      34.401 -11.962 -23.850  0.00  0.00    +0.044 C 
BRANCH   9  11
ATOM     10  F   UNL     1      34.667  -6.776 -26.052  0.00  0.00    -0.204 F 
ATOM     11  C   UNL     1      34.472 -10.572 -24.441  0.00  0.00    -0.020 C 
ATOM     12  C   UNL     1      33.806  -9.515 -23.819  0.00  0.00    -0.002 C 
ATOM     13  C   UNL     1      35.203 -10.346 -25.607  0.00  0.00    -0.002 C 
ATOM     14  C   UNL     1      33.873  -8.233 -24.363  0.00  0.00    +0.029 C 
ATOM     15  C   UNL     1      35.270  -9.064 -26.151  0.00  0.00    +0.029 C 
ATOM     16  C   UNL     1      34.604  -8.008 -25.529  0.00  0.00    +0.140 C 
ENDBRANCH   9  11
ENDBRANCH   6   9
ENDBRANCH   3   6
ENDBRANCH   1   4
BRANCH   1  18
ATOM     17  O   UNL     1      34.788 -19.183 -24.359  0.00  0.00    -0.270 OA
ATOM     18  N   UNL     1      34.359 -17.270 -23.121  0.00  0.00    -0.295 N 
ATOM     19  C   UNL     1      34.650 -18.617 -23.278  0.00  0.00    +0.246 C 
ATOM     20  H   UNL     1      34.268 -16.909 -22.210  0.00  0.00    +0.150 HD
BRANCH  19  21
ATOM     21  C   UNL     1      34.769 -19.407 -22.026  0.00  0.00    +0.053 C 
ATOM     22  C   UNL     1      33.626 -19.923 -21.414  0.00  0.00    +0.005 C 
ATOM     23  C   UNL     1      36.024 -19.633 -21.462  0.00  0.00    +0.005 C 
ATOM     24  C   UNL     1      34.994 -20.890 -19.674  0.00  0.00    +0.000 C 
ATOM     25  C   UNL     1      33.739 -20.664 -20.238  0.00  0.00    +0.000 C 
ATOM     26  C   UNL     1      36.137 -20.375 -20.285  0.00  0.00    +0.000 C 
BRANCH  24  27
ATOM     27  C   UNL     1      35.111 -21.659 -18.454  0.00  0.00    +0.000 C 
ATOM     28  C   UNL     1      34.029 -22.412 -17.997  0.00  0.00    +0.000 C 
ATOM     29  C   UNL     1      36.307 -21.650 -17.735  0.00  0.00    +0.000 C 
ATOM     30  C   UNL     1      34.143 -23.154 -16.822  0.00  0.00    +0.000 C 
ATOM     31  C   UNL     1      36.419 -22.392 -16.559  0.00  0.00    +0.000 C 
ATOM     32  C   UNL     1      35.337 -23.144 -16.103  0.00  0.00    +0.000 C 
ENDBRANCH  24  27
ENDBRANCH  19  21
ENDBRANCH   1  18
BRANCH   1  33
ATOM     33  C   UNL     1      32.943 -16.760 -25.052  0.00  0.00    +0.041 C 
BRANCH  33  34
ATOM     34  C   UNL     1      33.184 -16.877 -26.558  0.00  0.00    +0.112 C 
BRANCH  34  36
ATOM     35  O   UNL     1      32.861 -14.657 -27.509  0.00  0.00    -0.250 OA
ATOM     36  C   UNL     1      32.475 -15.809 -27.362  0.00  0.00    +0.314 C 
BRANCH  36  37
ATOM     37  O   UNL     1      31.347 -16.291 -27.944  0.00  0.00    -0.480 OA
ATOM     38  H   UNL     1      31.402 -16.984 -28.572  0.00  0.00    +0.295 HD
ENDBRANCH  36  37
ENDBRANCH  34  36
ENDBRANCH  33  34
ENDBRANCH   1  33
TORSDOF 11
ENDMDL
MODEL 9
REMARK VINA RESULT:     -10.2      7.081     11.710
REMARK  Name = 16048422
REMARK  11 active torsions:
REMARK  status: ('A' for Active; 'I' for Inactive)
REMARK    1  A    between atoms: C_1  and  C_4
REMARK    2  A    between atoms: C_1  and  N_18
REMARK    3  A    between atoms: C_1  and  C_33
REMARK    4  A    between atoms: N_3  and  C_6
REMARK    5  A    between atoms: C_6  and  C_9
REMARK    6  A    between atoms: C_9  and  C_11
REMARK    7  A    between atoms: C_19  and  C_21
REMARK    8  A    between atoms: C_24  and  C_27
REMARK    9  A    between atoms: C_33  and  C_34
REMARK   10  A    between atoms: C_34  and  C_36
REMARK   11  A    between atoms: C_36  and  O_37
REMARK                            x       y       z     vdW  Elec       q    Type
REMARK                         _______ _______ _______ _____ _____    ______ ____
ROOT
ATOM      1  C   UNL     1      33.091 -15.369 -24.560  0.00  0.00    +0.149 C 
ENDROOT
BRANCH   1   4
ATOM      2  O   UNL     1      35.053 -15.493 -23.151  0.00  0.00    -0.273 OA
ATOM      3  N   UNL     1      33.893 -17.449 -23.619  0.00  0.00    -0.306 N 
ATOM      4  C   UNL     1      34.119 -16.083 -23.692  0.00  0.00    +0.240 C 
ATOM      5  H   UNL     1      33.113 -17.820 -24.092  0.00  0.00    +0.149 HD
BRANCH   3   6
ATOM      6  C   UNL     1      34.746 -18.355 -22.885  0.00  0.00    +0.061 C 
ATOM      7  C   UNL     1      34.594 -19.772 -23.459  0.00  0.00    +0.020 C 
ATOM      8  C   UNL     1      36.203 -17.901 -23.082  0.00  0.00    +0.020 C 
BRANCH   6   9
ATOM      9  C   UNL     1      34.417 -18.309 -21.370  0.00  0.00    +0.044 C 
BRANCH   9  11
ATOM     10  F   UNL     1      33.609 -23.299 -18.867  0.00  0.00    -0.204 F 
ATOM     11  C   UNL     1      34.201 -19.647 -20.699  0.00  0.00    -0.020 C 
ATOM     12  C   UNL     1      35.296 -20.413 -20.301  0.00  0.00    -0.002 C 
ATOM     13  C   UNL     1      32.905 -20.114 -20.478  0.00  0.00    -0.002 C 
ATOM     14  C   UNL     1      35.096 -21.646 -19.682  0.00  0.00    +0.029 C 
ATOM     15  C   UNL     1      32.705 -21.347 -19.858  0.00  0.00    +0.029 C 
ATOM     16  C   UNL     1      33.801 -22.114 -19.461  0.00  0.00    +0.140 C 
ENDBRANCH   9  11
ENDBRANCH   6   9
ENDBRANCH   3   6
ENDBRANCH   1   4
BRANCH   1  18
ATOM     17  O   UNL     1      33.372 -12.876 -25.956  0.00  0.00    -0.270 OA
ATOM     18  N   UNL     1      32.959 -14.048 -23.997  0.00  0.00    -0.295 N 
ATOM     19  C   UNL     1      33.112 -12.896 -24.756  0.00  0.00    +0.246 C 
ATOM     20  H   UNL     1      32.751 -13.959 -23.040  0.00  0.00    +0.150 HD
BRANCH  19  21
ATOM     21  C   UNL     1      32.972 -11.612 -24.022  0.00  0.00    +0.053 C 
ATOM     22  C   UNL     1      32.141 -11.533 -22.905  0.00  0.00    +0.005 C 
ATOM     23  C   UNL     1      33.674 -10.485 -24.451  0.00  0.00    +0.005 C 
ATOM     24  C   UNL     1      32.710  -9.200 -22.645  0.00  0.00    +0.000 C 
ATOM     25  C   UNL     1      32.009 -10.326 -22.217  0.00  0.00    +0.000 C 
ATOM     26  C   UNL     1      33.543  -9.278 -23.762  0.00  0.00    +0.000 C 
BRANCH  24  27
ATOM     27  C   UNL     1      32.574  -7.949 -21.932  0.00  0.00    +0.000 C 
ATOM     28  C   UNL     1      32.597  -7.935 -20.537  0.00  0.00    +0.000 C 
ATOM     29  C   UNL     1      32.423  -6.755 -22.638  0.00  0.00    +0.000 C 
ATOM     30  C   UNL     1      32.467  -6.728 -19.849  0.00  0.00    +0.000 C 
ATOM     31  C   UNL     1      32.292  -5.549 -21.950  0.00  0.00    +0.000 C 
ATOM     32  C   UNL     1      32.315  -5.536 -20.555  0.00  0.00    +0.000 C 
ENDBRANCH  24  27
ENDBRANCH  19  21
ENDBRANCH   1  18
BRANCH   1  33
ATOM     33  C   UNL     1      33.538 -15.292 -26.025  0.00  0.00    +0.041 C 
BRANCH  33  34
ATOM     34  C   UNL     1      32.637 -16.055 -26.999  0.00  0.00    +0.112 C 
BRANCH  34  36
ATOM     35  O   UNL     1      31.042 -17.629 -26.042  0.00  0.00    -0.250 OA
ATOM     36  C   UNL     1      32.167 -17.388 -26.460  0.00  0.00    +0.314 C 
BRANCH  36  37
ATOM     37  O   UNL     1      33.150 -18.324 -26.520  0.00  0.00    -0.480 OA
ATOM     38  H   UNL     1      33.630 -18.449 -27.314  0.00  0.00    +0.295 HD
ENDBRANCH  36  37
ENDBRANCH  34  36
ENDBRANCH  33  34
ENDBRANCH   1  33
TORSDOF 11
ENDMDL
