MODEL 1
REMARK VINA RESULT:     -12.0      0.000      0.000
REMARK  Name = 9800765
REMARK  5 active torsions:
REMARK  status: ('A' for Active; 'I' for Inactive)
REMARK    1  A    between atoms: C_3  and  C_17
REMARK    2  A    between atoms: C_5  and  N_8
REMARK    3  A    between atoms: N_8  and  C_14
REMARK    4  A    between atoms: C_17  and  C_20
REMARK    5  A    between atoms: C_23  and  C_26
REMARK                            x       y       z     vdW  Elec       q    Type
REMARK                         _______ _______ _______ _____ _____    ______ ____
ROOT
ATOM      1  O   UNL     1      33.488 -20.767 -19.935  0.00  0.00    -0.337 OA
ATOM      2  N   UNL     1      33.929 -19.619 -20.583  0.00  0.00    -0.079 NA
ATOM      3  C   UNL     1      35.253 -19.768 -20.687  0.00  0.00    +0.106 C 
ATOM      4  C   UNL     1      35.698 -20.978 -20.128  0.00  0.00    +0.076 C 
ATOM      5  C   UNL     1      34.551 -21.560 -19.675  0.00  0.00    +0.252 C 
ENDROOT
BRANCH   3   6
ATOM      6  C   UNL     1      36.061 -18.722 -21.334  0.00  0.00    +0.066 C 
ATOM      7  C   UNL     1      37.496 -19.176 -21.695  0.00  0.00    +0.011 C 
BRANCH   6   9
ATOM      8  F   UNL     1      33.775 -19.369 -25.575  0.00  0.00    -0.204 F 
ATOM      9  C   UNL     1      35.245 -18.175 -22.510  0.00  0.00    -0.015 C 
ATOM     10  C   UNL     1      34.881 -19.038 -23.515  0.00  0.00    +0.026 C 
ATOM     11  C   UNL     1      34.911 -16.840 -22.513  0.00  0.00    -0.004 C 
ATOM     12  C   UNL     1      33.783 -17.192 -24.620  0.00  0.00    +0.027 C 
ATOM     13  C   UNL     1      34.139 -18.540 -24.586  0.00  0.00    +0.140 C 
ATOM     14  C   UNL     1      34.169 -16.342 -23.583  0.00  0.00    +0.002 C 
BRANCH  12  15
ATOM     15  C   UNL     1      33.011 -16.670 -25.727  0.00  0.00    +0.002 C 
ATOM     16  C   UNL     1      33.413 -15.494 -26.363  0.00  0.00    +0.000 C 
ATOM     17  C   UNL     1      31.869 -17.342 -26.160  0.00  0.00    +0.000 C 
ATOM     18  C   UNL     1      32.671 -14.992 -27.431  0.00  0.00    +0.000 C 
ATOM     19  C   UNL     1      31.127 -16.839 -27.229  0.00  0.00    +0.000 C 
ATOM     20  C   UNL     1      31.527 -15.663 -27.864  0.00  0.00    +0.000 C 
ENDBRANCH  12  15
ENDBRANCH   6   9
ENDBRANCH   3   6
BRANCH   5  21
ATOM     21  N   UNL     1      34.382 -22.754 -19.041  0.00  0.00    -0.147 NA
BRANCH  21  29
ATOM     22  O   UNL     1      35.473 -23.977 -14.510  0.00  0.00    -0.350 OA
ATOM     23  N   UNL     1      34.133 -22.980 -16.758  0.00  0.00    -0.277 N 
ATOM     24  N   UNL     1      32.238 -22.602 -17.933  0.00  0.00    -0.373 N 
ATOM     25  C   UNL     1      33.382 -23.632 -15.688  0.00  0.00    +0.125 C 
ATOM     26  C   UNL     1      35.410 -22.399 -16.351  0.00  0.00    +0.125 C 
ATOM     27  C   UNL     1      34.286 -24.627 -14.971  0.00  0.00    +0.164 C 
ATOM     28  C   UNL     1      36.225 -23.448 -15.605  0.00  0.00    +0.164 C 
ATOM     29  C   UNL     1      33.606 -22.773 -17.986  0.00  0.00    +0.182 C 
ATOM     30  H   UNL     1      31.770 -22.640 -17.067  0.00  0.00    +0.158 HD
ATOM     31  H   UNL     1      31.729 -22.442 -18.760  0.00  0.00    +0.158 HD
ENDBRANCH  21  29
ENDBRANCH   5  21
TORSDOF 5
ENDMDL
MODEL 2
REMARK VINA RESULT:     -11.3      1.302      1.594
REMARK  Name = 9800765
REMARK  5 active torsions:
REMARK  status: ('A' for Active; 'I' for Inactive)
REMARK    1  A    between atoms: C_3  and  C_17
REMARK    2  A    between atoms: C_5  and  N_8
REMARK    3  A    between atoms: N_8  and  C_14
REMARK    4  A    between atoms: C_17  and  C_20
REMARK    5  A    between atoms: C_23  and  C_26
REMARK                            x       y       z     vdW  Elec       q    Type
REMARK                         _______ _______ _______ _____ _____    ______ ____
ROOT
ATOM      1  O   UNL     1      32.623 -21.717 -19.707  0.00  0.00    -0.337 OA
ATOM      2  N   UNL     1      33.304 -20.724 -20.400  0.00  0.00    -0.079 NA
ATOM      3  C   UNL     1      34.563 -20.798 -19.960  0.00  0.00    +0.106 C 
ATOM      4  C   UNL     1      34.734 -21.809 -18.998  0.00  0.00    +0.076 C 
ATOM      5  C   UNL     1      33.488 -22.349 -18.882  0.00  0.00    +0.252 C 
ENDROOT
BRANCH   3   6
ATOM      6  C   UNL     1      35.581 -19.877 -20.490  0.00  0.00    +0.066 C 
ATOM      7  C   UNL     1      36.967 -20.534 -20.704  0.00  0.00    +0.011 C 
BRANCH   6   9
ATOM      8  F   UNL     1      34.262 -20.027 -25.166  0.00  0.00    -0.204 F 
ATOM      9  C   UNL     1      34.990 -19.206 -21.734  0.00  0.00    -0.015 C 
ATOM     10  C   UNL     1      34.898 -19.937 -22.893  0.00  0.00    +0.026 C 
ATOM     11  C   UNL     1      34.574 -17.898 -21.640  0.00  0.00    -0.004 C 
ATOM     12  C   UNL     1      33.928 -18.002 -23.965  0.00  0.00    +0.027 C 
ATOM     13  C   UNL     1      34.359 -19.327 -24.026  0.00  0.00    +0.140 C 
ATOM     14  C   UNL     1      34.036 -17.288 -22.772  0.00  0.00    +0.002 C 
BRANCH  12  15
ATOM     15  C   UNL     1      33.367 -17.364 -25.137  0.00  0.00    +0.002 C 
ATOM     16  C   UNL     1      33.889 -16.151 -25.586  0.00  0.00    +0.000 C 
ATOM     17  C   UNL     1      32.306 -17.962 -25.816  0.00  0.00    +0.000 C 
ATOM     18  C   UNL     1      33.350 -15.537 -26.716  0.00  0.00    +0.000 C 
ATOM     19  C   UNL     1      31.767 -17.347 -26.946  0.00  0.00    +0.000 C 
ATOM     20  C   UNL     1      32.288 -16.133 -27.396  0.00  0.00    +0.000 C 
ENDBRANCH  12  15
ENDBRANCH   6   9
ENDBRANCH   3   6
BRANCH   5  21
ATOM     21  N   UNL     1      33.061 -23.371 -18.087  0.00  0.00    -0.147 NA
BRANCH  21  29
ATOM     22  O   UNL     1      33.052 -24.503 -13.404  0.00  0.00    -0.350 OA
ATOM     23  N   UNL     1      32.413 -23.346 -15.873  0.00  0.00    -0.277 N 
ATOM     24  N   UNL     1      30.909 -22.545 -17.359  0.00  0.00    -0.373 N 
ATOM     25  C   UNL     1      31.353 -23.680 -14.925  0.00  0.00    +0.125 C 
ATOM     26  C   UNL     1      33.725 -23.114 -15.275  0.00  0.00    +0.125 C 
ATOM     27  C   UNL     1      31.814 -24.830 -14.038  0.00  0.00    +0.164 C 
ATOM     28  C   UNL     1      34.082 -24.289 -14.373  0.00  0.00    +0.164 C 
ATOM     29  C   UNL     1      32.161 -23.093 -17.177  0.00  0.00    +0.182 C 
ATOM     30  H   UNL     1      30.323 -22.386 -16.583  0.00  0.00    +0.158 HD
ATOM     31  H   UNL     1      30.599 -22.313 -18.265  0.00  0.00    +0.158 HD
ENDBRANCH  21  29
ENDBRANCH   5  21
TORSDOF 5
ENDMDL
MODEL 3
REMARK VINA RESULT:     -11.2      2.987      3.945
REMARK  Name = 9800765
REMARK  5 active torsions:
REMARK  status: ('A' for Active; 'I' for Inactive)
REMARK    1  A    between atoms: C_3  and  C_17
REMARK    2  A    between atoms: C_5  and  N_8
REMARK    3  A    between atoms: N_8  and  C_14
REMARK    4  A    between atoms: C_17  and  C_20
REMARK    5  A    between atoms: C_23  and  C_26
REMARK                            x       y       z     vdW  Elec       q    Type
REMARK                         _______ _______ _______ _____ _____    ______ ____
ROOT
ATOM      1  O   UNL     1      35.767 -19.301 -20.501  0.00  0.00    -0.337 OA
ATOM      2  N   UNL     1      36.052 -18.585 -21.657  0.00  0.00    -0.079 NA
ATOM      3  C   UNL     1      35.034 -18.842 -22.483  0.00  0.00    +0.106 C 
ATOM      4  C   UNL     1      34.086 -19.706 -21.908  0.00  0.00    +0.076 C 
ATOM      5  C   UNL     1      34.597 -19.958 -20.670  0.00  0.00    +0.252 C 
ENDROOT
BRANCH   3   6
ATOM      6  C   UNL     1      35.006 -18.236 -23.824  0.00  0.00    +0.066 C 
ATOM      7  C   UNL     1      34.237 -19.076 -24.873  0.00  0.00    +0.011 C 
BRANCH   6   9
ATOM      8  F   UNL     1      34.522 -14.184 -21.183  0.00  0.00    -0.204 F 
ATOM      9  C   UNL     1      34.508 -16.795 -23.665  0.00  0.00    -0.015 C 
ATOM     10  C   UNL     1      34.748 -16.145 -22.479  0.00  0.00    +0.026 C 
ATOM     11  C   UNL     1      33.841 -16.211 -24.717  0.00  0.00    -0.004 C 
ATOM     12  C   UNL     1      33.616 -14.211 -23.381  0.00  0.00    +0.027 C 
ATOM     13  C   UNL     1      34.296 -14.833 -22.334  0.00  0.00    +0.140 C 
ATOM     14  C   UNL     1      33.388 -14.900 -24.572  0.00  0.00    +0.002 C 
BRANCH  12  15
ATOM     15  C   UNL     1      33.145 -12.850 -23.237  0.00  0.00    +0.002 C 
ATOM     16  C   UNL     1      33.677 -11.841 -24.040  0.00  0.00    +0.000 C 
ATOM     17  C   UNL     1      32.161 -12.548 -22.296  0.00  0.00    +0.000 C 
ATOM     18  C   UNL     1      33.224 -10.530 -23.903  0.00  0.00    +0.000 C 
ATOM     19  C   UNL     1      31.708 -11.235 -22.159  0.00  0.00    +0.000 C 
ATOM     20  C   UNL     1      32.240 -10.226 -22.962  0.00  0.00    +0.000 C 
ENDBRANCH  12  15
ENDBRANCH   6   9
ENDBRANCH   3   6
BRANCH   5  21
ATOM     21  N   UNL     1      34.094 -20.738 -19.672  0.00  0.00    -0.147 NA
BRANCH  21  29
ATOM     22  O   UNL     1      33.259 -23.648 -15.923  0.00  0.00    -0.350 OA
ATOM     23  N   UNL     1      34.474 -22.400 -18.116  0.00  0.00    -0.277 N 
ATOM     24  N   UNL     1      36.300 -21.599 -19.184  0.00  0.00    -0.373 N 
ATOM     25  C   UNL     1      35.281 -22.815 -16.972  0.00  0.00    +0.125 C 
ATOM     26  C   UNL     1      33.228 -23.140 -18.295  0.00  0.00    +0.125 C 
ATOM     27  C   UNL     1      34.412 -22.827 -15.720  0.00  0.00    +0.164 C 
ATOM     28  C   UNL     1      32.449 -23.138 -16.985  0.00  0.00    +0.164 C 
ATOM     29  C   UNL     1      34.930 -21.524 -19.040  0.00  0.00    +0.182 C 
ATOM     30  H   UNL     1      36.818 -22.239 -18.642  0.00  0.00    +0.158 HD
ATOM     31  H   UNL     1      36.761 -21.013 -19.826  0.00  0.00    +0.158 HD
ENDBRANCH  21  29
ENDBRANCH   5  21
TORSDOF 5
ENDMDL
MODEL 4
REMARK VINA RESULT:     -11.1      4.062     10.043
REMARK  Name = 9800765
REMARK  5 active torsions:
REMARK  status: ('A' for Active; 'I' for Inactive)
REMARK    1  A    between atoms: C_3  and  C_17
REMARK    2  A    between atoms: C_5  and  N_8
REMARK    3  A    between atoms: N_8  and  C_14
REMARK    4  A    between atoms: C_17  and  C_20
REMARK    5  A    between atoms: C_23  and  C_26
REMARK                            x       y       z     vdW  Elec       q    Type
REMARK                         _______ _______ _______ _____ _____    ______ ____
ROOT
ATOM      1  O   UNL     1      34.829 -15.883 -21.452  0.00  0.00    -0.337 OA
ATOM      2  N   UNL     1      34.698 -17.266 -21.432  0.00  0.00    -0.079 NA
ATOM      3  C   UNL     1      34.309 -17.593 -22.668  0.00  0.00    +0.106 C 
ATOM      4  C   UNL     1      34.180 -16.469 -23.502  0.00  0.00    +0.076 C 
ATOM      5  C   UNL     1      34.518 -15.430 -22.687  0.00  0.00    +0.252 C 
ENDROOT
BRANCH   3   6
ATOM      6  C   UNL     1      34.071 -19.004 -23.013  0.00  0.00    +0.066 C 
ATOM      7  C   UNL     1      34.944 -19.517 -24.184  0.00  0.00    +0.011 C 
BRANCH   6   9
ATOM      8  F   UNL     1      36.761 -21.275 -19.661  0.00  0.00    -0.204 F 
ATOM      9  C   UNL     1      34.188 -19.818 -21.720  0.00  0.00    -0.015 C 
ATOM     10  C   UNL     1      35.439 -20.176 -21.281  0.00  0.00    +0.026 C 
ATOM     11  C   UNL     1      33.035 -20.159 -21.051  0.00  0.00    -0.004 C 
ATOM     12  C   UNL     1      34.397 -21.279 -19.402  0.00  0.00    +0.027 C 
ATOM     13  C   UNL     1      35.546 -20.917 -20.104  0.00  0.00    +0.140 C 
ATOM     14  C   UNL     1      33.142 -20.900 -19.875  0.00  0.00    +0.002 C 
BRANCH  12  15
ATOM     15  C   UNL     1      34.503 -22.047 -18.179  0.00  0.00    +0.002 C 
ATOM     16  C   UNL     1      35.693 -22.035 -17.450  0.00  0.00    +0.000 C 
ATOM     17  C   UNL     1      33.416 -22.797 -17.730  0.00  0.00    +0.000 C 
ATOM     18  C   UNL     1      35.795 -22.774 -16.272  0.00  0.00    +0.000 C 
ATOM     19  C   UNL     1      33.519 -23.536 -16.551  0.00  0.00    +0.000 C 
ATOM     20  C   UNL     1      34.709 -23.525 -15.822  0.00  0.00    +0.000 C 
ENDBRANCH  12  15
ENDBRANCH   6   9
ENDBRANCH   3   6
BRANCH   5  21
ATOM     21  N   UNL     1      34.570 -14.097 -22.966  0.00  0.00    -0.147 NA
BRANCH  21  29
ATOM     22  O   UNL     1      32.756 -10.386 -25.447  0.00  0.00    -0.350 OA
ATOM     23  N   UNL     1      33.050 -12.489 -23.621  0.00  0.00    -0.277 N 
ATOM     24  N   UNL     1      32.707 -13.412 -21.585  0.00  0.00    -0.373 N 
ATOM     25  C   UNL     1      32.339 -11.275 -23.229  0.00  0.00    +0.125 C 
ATOM     26  C   UNL     1      33.066 -12.760 -25.056  0.00  0.00    +0.125 C 
ATOM     27  C   UNL     1      32.858 -10.101 -24.050  0.00  0.00    +0.164 C 
ATOM     28  C   UNL     1      33.553 -11.521 -25.796  0.00  0.00    +0.164 C 
ATOM     29  C   UNL     1      33.500 -13.385 -22.714  0.00  0.00    +0.182 C 
ATOM     30  H   UNL     1      31.924 -12.819 -21.519  0.00  0.00    +0.158 HD
ATOM     31  H   UNL     1      32.925 -14.023 -20.844  0.00  0.00    +0.158 HD
ENDBRANCH  21  29
ENDBRANCH   5  21
TORSDOF 5
ENDMDL
MODEL 5
REMARK VINA RESULT:     -11.0      3.808      6.420
REMARK  Name = 9800765
REMARK  5 active torsions:
REMARK  status: ('A' for Active; 'I' for Inactive)
REMARK    1  A    between atoms: C_3  and  C_17
REMARK    2  A    between atoms: C_5  and  N_8
REMARK    3  A    between atoms: N_8  and  C_14
REMARK    4  A    between atoms: C_17  and  C_20
REMARK    5  A    between atoms: C_23  and  C_26
REMARK                            x       y       z     vdW  Elec       q    Type
REMARK                         _______ _______ _______ _____ _____    ______ ____
ROOT
ATOM      1  O   UNL     1      32.353 -18.645 -24.726  0.00  0.00    -0.337 OA
ATOM      2  N   UNL     1      31.802 -17.814 -25.694  0.00  0.00    -0.079 NA
ATOM      3  C   UNL     1      32.799 -17.007 -26.066  0.00  0.00    +0.106 C 
ATOM      4  C   UNL     1      33.992 -17.280 -25.374  0.00  0.00    +0.076 C 
ATOM      5  C   UNL     1      33.652 -18.313 -24.552  0.00  0.00    +0.252 C 
ENDROOT
BRANCH   3   6
ATOM      6  C   UNL     1      32.569 -15.981 -27.095  0.00  0.00    +0.066 C 
ATOM      7  C   UNL     1      31.169 -16.059 -27.752  0.00  0.00    +0.011 C 
BRANCH   6   9
ATOM      8  F   UNL     1      33.573 -13.223 -23.221  0.00  0.00    -0.204 F 
ATOM      9  C   UNL     1      32.913 -14.624 -26.474  0.00  0.00    -0.015 C 
ATOM     10  C   UNL     1      33.087 -14.549 -25.113  0.00  0.00    +0.026 C 
ATOM     11  C   UNL     1      33.033 -13.533 -27.304  0.00  0.00    -0.004 C 
ATOM     12  C   UNL     1      33.529 -12.187 -25.361  0.00  0.00    +0.027 C 
ATOM     13  C   UNL     1      33.400 -13.313 -24.548  0.00  0.00    +0.140 C 
ATOM     14  C   UNL     1      33.345 -12.297 -26.739  0.00  0.00    +0.002 C 
BRANCH  12  15
ATOM     15  C   UNL     1      33.855 -10.903 -24.779  0.00  0.00    +0.002 C 
ATOM     16  C   UNL     1      35.081 -10.300 -25.066  0.00  0.00    +0.000 C 
ATOM     17  C   UNL     1      32.946 -10.268 -23.934  0.00  0.00    +0.000 C 
ATOM     18  C   UNL     1      35.395  -9.062 -24.507  0.00  0.00    +0.000 C 
ATOM     19  C   UNL     1      33.262  -9.029 -23.375  0.00  0.00    +0.000 C 
ATOM     20  C   UNL     1      34.487  -8.426 -23.660  0.00  0.00    +0.000 C 
ENDBRANCH  12  15
ENDBRANCH   6   9
ENDBRANCH   3   6
BRANCH   5  21
ATOM     21  N   UNL     1      34.420 -18.986 -23.649  0.00  0.00    -0.147 NA
BRANCH  21  29
ATOM     22  O   UNL     1      36.516 -20.318 -19.520  0.00  0.00    -0.350 OA
ATOM     23  N   UNL     1      34.614 -19.511 -21.411  0.00  0.00    -0.277 N 
ATOM     24  N   UNL     1      32.522 -19.562 -22.267  0.00  0.00    -0.373 N 
ATOM     25  C   UNL     1      34.245 -20.456 -20.360  0.00  0.00    +0.125 C 
ATOM     26  C   UNL     1      35.741 -18.639 -21.089  0.00  0.00    +0.125 C 
ATOM     27  C   UNL     1      35.484 -21.224 -19.916  0.00  0.00    +0.164 C 
ATOM     28  C   UNL     1      36.914 -19.487 -20.613  0.00  0.00    +0.164 C 
ATOM     29  C   UNL     1      33.859 -19.333 -22.518  0.00  0.00    +0.182 C 
ATOM     30  H   UNL     1      32.227 -19.821 -21.364  0.00  0.00    +0.158 HD
ATOM     31  H   UNL     1      31.861 -19.467 -22.991  0.00  0.00    +0.158 HD
ENDBRANCH  21  29
ENDBRANCH   5  21
TORSDOF 5
ENDMDL
MODEL 6
REMARK VINA RESULT:     -11.0      3.132      4.305
REMARK  Name = 9800765
REMARK  5 active torsions:
REMARK  status: ('A' for Active; 'I' for Inactive)
REMARK    1  A    between atoms: C_3  and  C_17
REMARK    2  A    between atoms: C_5  and  N_8
REMARK    3  A    between atoms: N_8  and  C_14
REMARK    4  A    between atoms: C_17  and  C_20
REMARK    5  A    between atoms: C_23  and  C_26
REMARK                            x       y       z     vdW  Elec       q    Type
REMARK                         _______ _______ _______ _____ _____    ______ ____
ROOT
ATOM      1  O   UNL     1      35.924 -19.088 -21.563  0.00  0.00    -0.337 OA
ATOM      2  N   UNL     1      36.010 -18.423 -22.780  0.00  0.00    -0.079 NA
ATOM      3  C   UNL     1      34.772 -18.455 -23.280  0.00  0.00    +0.106 C 
ATOM      4  C   UNL     1      33.871 -19.121 -22.430  0.00  0.00    +0.076 C 
ATOM      5  C   UNL     1      34.649 -19.493 -21.374  0.00  0.00    +0.252 C 
ENDROOT
BRANCH   3   6
ATOM      6  C   UNL     1      34.490 -17.832 -24.582  0.00  0.00    +0.066 C 
ATOM      7  C   UNL     1      33.447 -18.601 -25.430  0.00  0.00    +0.011 C 
BRANCH   6   9
ATOM      8  F   UNL     1      32.475 -13.636 -25.984  0.00  0.00    -0.204 F 
ATOM      9  C   UNL     1      34.147 -16.361 -24.322  0.00  0.00    -0.015 C 
ATOM     10  C   UNL     1      33.459 -15.667 -25.288  0.00  0.00    +0.026 C 
ATOM     11  C   UNL     1      34.542 -15.794 -23.133  0.00  0.00    -0.004 C 
ATOM     12  C   UNL     1      33.533 -13.723 -23.856  0.00  0.00    +0.027 C 
ATOM     13  C   UNL     1      33.146 -14.328 -25.051  0.00  0.00    +0.140 C 
ATOM     14  C   UNL     1      34.231 -14.456 -22.897  0.00  0.00    +0.002 C 
BRANCH  12  15
ATOM     15  C   UNL     1      33.210 -12.335 -23.605  0.00  0.00    +0.002 C 
ATOM     16  C   UNL     1      33.882 -11.327 -24.299  0.00  0.00    +0.000 C 
ATOM     17  C   UNL     1      32.228 -12.004 -22.672  0.00  0.00    +0.000 C 
ATOM     18  C   UNL     1      33.571  -9.990 -24.058  0.00  0.00    +0.000 C 
ATOM     19  C   UNL     1      31.917 -10.665 -22.432  0.00  0.00    +0.000 C 
ATOM     20  C   UNL     1      32.589  -9.657 -23.125  0.00  0.00    +0.000 C 
ENDBRANCH  12  15
ENDBRANCH   6   9
ENDBRANCH   3   6
BRANCH   5  21
ATOM     21  N   UNL     1      34.302 -20.174 -20.246  0.00  0.00    -0.147 NA
BRANCH  21  29
ATOM     22  O   UNL     1      33.868 -23.594 -16.879  0.00  0.00    -0.350 OA
ATOM     23  N   UNL     1      34.924 -21.894 -18.838  0.00  0.00    -0.277 N 
ATOM     24  N   UNL     1      36.606 -20.637 -19.677  0.00  0.00    -0.373 N 
ATOM     25  C   UNL     1      35.734 -22.269 -17.682  0.00  0.00    +0.125 C 
ATOM     26  C   UNL     1      33.866 -22.839 -19.184  0.00  0.00    +0.125 C 
ATOM     27  C   UNL     1      34.817 -22.592 -16.508  0.00  0.00    +0.164 C 
ATOM     28  C   UNL     1      33.031 -23.137 -17.945  0.00  0.00    +0.164 C 
ATOM     29  C   UNL     1      35.243 -20.847 -19.633  0.00  0.00    +0.182 C 
ATOM     30  H   UNL     1      37.212 -21.219 -19.164  0.00  0.00    +0.158 HD
ATOM     31  H   UNL     1      36.974 -19.903 -20.221  0.00  0.00    +0.158 HD
ENDBRANCH  21  29
ENDBRANCH   5  21
TORSDOF 5
ENDMDL
MODEL 7
REMARK VINA RESULT:     -10.7      3.789      5.094
REMARK  Name = 9800765
REMARK  5 active torsions:
REMARK  status: ('A' for Active; 'I' for Inactive)
REMARK    1  A    between atoms: C_3  and  C_17
REMARK    2  A    between atoms: C_5  and  N_8
REMARK    3  A    between atoms: N_8  and  C_14
REMARK    4  A    between atoms: C_17  and  C_20
REMARK    5  A    between atoms: C_23  and  C_26
REMARK                            x       y       z     vdW  Elec       q    Type
REMARK                         _______ _______ _______ _____ _____    ______ ____
ROOT
ATOM      1  O   UNL     1      33.220 -19.463 -22.811  0.00  0.00    -0.337 OA
ATOM      2  N   UNL     1      33.415 -18.564 -23.852  0.00  0.00    -0.079 NA
ATOM      3  C   UNL     1      34.303 -17.682 -23.385  0.00  0.00    +0.106 C 
ATOM      4  C   UNL     1      34.700 -17.971 -22.068  0.00  0.00    +0.076 C 
ATOM      5  C   UNL     1      33.991 -19.095 -21.763  0.00  0.00    +0.252 C 
ENDROOT
BRANCH   3   6
ATOM      6  C   UNL     1      34.751 -16.569 -24.238  0.00  0.00    +0.066 C 
ATOM      7  C   UNL     1      34.597 -16.844 -25.754  0.00  0.00    +0.011 C 
BRANCH   6   9
ATOM      8  F   UNL     1      33.536 -13.527 -20.646  0.00  0.00    -0.204 F 
ATOM      9  C   UNL     1      34.050 -15.301 -23.741  0.00  0.00    -0.015 C 
ATOM     10  C   UNL     1      34.117 -14.995 -22.402  0.00  0.00    +0.026 C 
ATOM     11  C   UNL     1      33.382 -14.518 -24.653  0.00  0.00    -0.004 C 
ATOM     12  C   UNL     1      32.793 -13.025 -22.849  0.00  0.00    +0.027 C 
ATOM     13  C   UNL     1      33.480 -13.840 -21.950  0.00  0.00    +0.140 C 
ATOM     14  C   UNL     1      32.744 -13.364 -24.200  0.00  0.00    +0.002 C 
BRANCH  12  15
ATOM     15  C   UNL     1      32.132 -11.824 -22.384  0.00  0.00    +0.002 C 
ATOM     16  C   UNL     1      31.205 -11.899 -21.343  0.00  0.00    +0.000 C 
ATOM     17  C   UNL     1      32.420 -10.595 -22.976  0.00  0.00    +0.000 C 
ATOM     18  C   UNL     1      30.568 -10.742 -20.894  0.00  0.00    +0.000 C 
ATOM     19  C   UNL     1      31.782  -9.439 -22.526  0.00  0.00    +0.000 C 
ATOM     20  C   UNL     1      30.855  -9.512 -21.486  0.00  0.00    +0.000 C 
ENDBRANCH  12  15
ENDBRANCH   6   9
ENDBRANCH   3   6
BRANCH   5  21
ATOM     21  N   UNL     1      33.979 -19.821 -20.609  0.00  0.00    -0.147 NA
BRANCH  21  29
ATOM     22  O   UNL     1      34.686 -23.119 -17.169  0.00  0.00    -0.350 OA
ATOM     23  N   UNL     1      35.065 -21.446 -19.383  0.00  0.00    -0.277 N 
ATOM     24  N   UNL     1      36.375 -20.137 -20.680  0.00  0.00    -0.373 N 
ATOM     25  C   UNL     1      36.179 -21.731 -18.483  0.00  0.00    +0.125 C 
ATOM     26  C   UNL     1      34.013 -22.459 -19.404  0.00  0.00    +0.125 C 
ATOM     27  C   UNL     1      35.637 -22.054 -17.096  0.00  0.00    +0.164 C 
ATOM     28  C   UNL     1      33.566 -22.750 -17.976  0.00  0.00    +0.164 C 
ATOM     29  C   UNL     1      35.091 -20.418 -20.260  0.00  0.00    +0.182 C 
ATOM     30  H   UNL     1      37.132 -20.666 -20.337  0.00  0.00    +0.158 HD
ATOM     31  H   UNL     1      36.535 -19.408 -21.322  0.00  0.00    +0.158 HD
ENDBRANCH  21  29
ENDBRANCH   5  21
TORSDOF 5
ENDMDL
MODEL 8
REMARK VINA RESULT:     -10.5      5.491     10.060
REMARK  Name = 9800765
REMARK  5 active torsions:
REMARK  status: ('A' for Active; 'I' for Inactive)
REMARK    1  A    between atoms: C_3  and  C_17
REMARK    2  A    between atoms: C_5  and  N_8
REMARK    3  A    between atoms: N_8  and  C_14
REMARK    4  A    between atoms: C_17  and  C_20
REMARK    5  A    between atoms: C_23  and  C_26
REMARK                            x       y       z     vdW  Elec       q    Type
REMARK                         _______ _______ _______ _____ _____    ______ ____
ROOT
ATOM      1  O   UNL     1      34.231 -13.323 -22.751  0.00  0.00    -0.337 OA
ATOM      2  N   UNL     1      34.576 -14.614 -23.132  0.00  0.00    -0.079 NA
ATOM      3  C   UNL     1      33.736 -14.919 -24.124  0.00  0.00    +0.106 C 
ATOM      4  C   UNL     1      32.846 -13.869 -24.411  0.00  0.00    +0.076 C 
ATOM      5  C   UNL     1      33.203 -12.899 -23.521  0.00  0.00    +0.252 C 
ENDROOT
BRANCH   3   6
ATOM      6  C   UNL     1      33.818 -16.235 -24.778  0.00  0.00    +0.066 C 
ATOM      7  C   UNL     1      34.838 -16.291 -25.942  0.00  0.00    +0.011 C 
BRANCH   6   9
ATOM      8  F   UNL     1      35.307 -17.439 -20.310  0.00  0.00    -0.204 F 
ATOM      9  C   UNL     1      34.040 -17.279 -23.680  0.00  0.00    -0.015 C 
ATOM     10  C   UNL     1      34.579 -16.870 -22.484  0.00  0.00    +0.026 C 
ATOM     11  C   UNL     1      33.690 -18.585 -23.934  0.00  0.00    -0.004 C 
ATOM     12  C   UNL     1      34.437 -19.154 -21.709  0.00  0.00    +0.027 C 
ATOM     13  C   UNL     1      34.781 -17.821 -21.483  0.00  0.00    +0.140 C 
ATOM     14  C   UNL     1      33.892 -19.536 -22.934  0.00  0.00    +0.002 C 
BRANCH  12  15
ATOM     15  C   UNL     1      34.643 -20.144 -20.674  0.00  0.00    +0.002 C 
ATOM     16  C   UNL     1      35.935 -20.430 -20.231  0.00  0.00    +0.000 C 
ATOM     17  C   UNL     1      33.552 -20.811 -20.119  0.00  0.00    +0.000 C 
ATOM     18  C   UNL     1      36.134 -21.383 -19.233  0.00  0.00    +0.000 C 
ATOM     19  C   UNL     1      33.752 -21.765 -19.120  0.00  0.00    +0.000 C 
ATOM     20  C   UNL     1      35.043 -22.052 -18.677  0.00  0.00    +0.000 C 
ENDBRANCH  12  15
ENDBRANCH   6   9
ENDBRANCH   3   6
BRANCH   5  21
ATOM     21  N   UNL     1      32.677 -11.655 -23.344  0.00  0.00    -0.147 NA
BRANCH  21  29
ATOM     22  O   UNL     1      31.689  -7.551 -21.021  0.00  0.00    -0.350 OA
ATOM     23  N   UNL     1      31.616 -10.213 -21.888  0.00  0.00    -0.277 N 
ATOM     24  N   UNL     1      31.316 -12.420 -21.498  0.00  0.00    -0.373 N 
ATOM     25  C   UNL     1      31.356  -9.893 -20.487  0.00  0.00    +0.125 C 
ATOM     26  C   UNL     1      31.344  -9.130 -22.829  0.00  0.00    +0.125 C 
ATOM     27  C   UNL     1      32.071  -8.597 -20.125  0.00  0.00    +0.164 C 
ATOM     28  C   UNL     1      32.060  -7.868 -22.365  0.00  0.00    +0.164 C 
ATOM     29  C   UNL     1      31.910 -11.467 -22.299  0.00  0.00    +0.182 C 
ATOM     30  H   UNL     1      30.759 -12.143 -20.734  0.00  0.00    +0.158 HD
ATOM     31  H   UNL     1      31.450 -13.377 -21.687  0.00  0.00    +0.158 HD
ENDBRANCH  21  29
ENDBRANCH   5  21
TORSDOF 5
ENDMDL
MODEL 9
REMARK VINA RESULT:     -10.3      5.692     10.751
REMARK  Name = 9800765
REMARK  5 active torsions:
REMARK  status: ('A' for Active; 'I' for Inactive)
REMARK    1  A    between atoms: C_3  and  C_17
REMARK    2  A    between atoms: C_5  and  N_8
REMARK    3  A    between atoms: N_8  and  C_14
REMARK    4  A    between atoms: C_17  and  C_20
REMARK    5  A    between atoms: C_23  and  C_26
REMARK                            x       y       z     vdW  Elec       q    Type
REMARK                         _______ _______ _______ _____ _____    ______ ____
ROOT
ATOM      1  O   UNL     1      34.250 -13.348 -22.905  0.00  0.00    -0.337 OA
ATOM      2  N   UNL     1      34.562 -14.656 -23.256  0.00  0.00    -0.079 NA
ATOM      3  C   UNL     1      33.733 -14.951 -24.261  0.00  0.00    +0.106 C 
ATOM      4  C   UNL     1      32.884 -13.879 -24.585  0.00  0.00    +0.076 C 
ATOM      5  C   UNL     1      33.254 -12.905 -23.705  0.00  0.00    +0.252 C 
ENDROOT
BRANCH   3   6
ATOM      6  C   UNL     1      33.787 -16.280 -24.890  0.00  0.00    +0.066 C 
ATOM      7  C   UNL     1      34.784 -16.372 -26.072  0.00  0.00    +0.011 C 
BRANCH   6   9
ATOM      8  F   UNL     1      35.339 -17.416 -20.426  0.00  0.00    -0.204 F 
ATOM      9  C   UNL     1      34.015 -17.306 -23.776  0.00  0.00    -0.015 C 
ATOM     10  C   UNL     1      34.580 -16.881 -22.598  0.00  0.00    +0.026 C 
ATOM     11  C   UNL     1      33.646 -18.612 -23.999  0.00  0.00    -0.004 C 
ATOM     12  C   UNL     1      34.425 -19.147 -21.777  0.00  0.00    +0.027 C 
ATOM     13  C   UNL     1      34.788 -17.815 -21.583  0.00  0.00    +0.140 C 
ATOM     14  C   UNL     1      33.854 -19.546 -22.985  0.00  0.00    +0.002 C 
BRANCH  12  15
ATOM     15  C   UNL     1      34.637 -20.120 -20.726  0.00  0.00    +0.002 C 
ATOM     16  C   UNL     1      33.546 -20.768 -20.146  0.00  0.00    +0.000 C 
ATOM     17  C   UNL     1      35.931 -20.410 -20.294  0.00  0.00    +0.000 C 
ATOM     18  C   UNL     1      33.749 -21.706 -19.135  0.00  0.00    +0.000 C 
ATOM     19  C   UNL     1      36.134 -21.349 -19.282  0.00  0.00    +0.000 C 
ATOM     20  C   UNL     1      35.043 -21.997 -18.702  0.00  0.00    +0.000 C 
ENDBRANCH  12  15
ENDBRANCH   6   9
ENDBRANCH   3   6
BRANCH   5  21
ATOM     21  N   UNL     1      32.764 -11.642 -23.560  0.00  0.00    -0.147 NA
BRANCH  21  29
ATOM     22  O   UNL     1      31.870  -6.908 -23.441  0.00  0.00    -0.350 OA
ATOM     23  N   UNL     1      33.192  -9.375 -23.564  0.00  0.00    -0.277 N 
ATOM     24  N   UNL     1      34.848 -10.702 -24.346  0.00  0.00    -0.373 N 
ATOM     25  C   UNL     1      33.680  -8.243 -24.349  0.00  0.00    +0.125 C 
ATOM     26  C   UNL     1      32.424  -9.015 -22.375  0.00  0.00    +0.125 C 
ATOM     27  C   UNL     1      32.520  -7.303 -24.652  0.00  0.00    +0.164 C 
ATOM     28  C   UNL     1      31.320  -8.041 -22.764  0.00  0.00    +0.164 C 
ATOM     29  C   UNL     1      33.575 -10.646 -23.818  0.00  0.00    +0.182 C 
ATOM     30  H   UNL     1      35.357  -9.871 -24.493  0.00  0.00    +0.158 HD
ATOM     31  H   UNL     1      35.249 -11.571 -24.577  0.00  0.00    +0.158 HD
ENDBRANCH  21  29
ENDBRANCH   5  21
TORSDOF 5
ENDMDL
