MODEL 1
REMARK VINA RESULT:     -12.1      0.000      0.000
REMARK  Name = 5567
REMARK  8 active torsions:
REMARK  status: ('A' for Active; 'I' for Inactive)
REMARK    1  A    between atoms: N_1  and  C_20
REMARK    2  A    between atoms: C_2  and  C_8
REMARK    3  A    between atoms: C_2  and  O_18
REMARK    4  A    between atoms: C_11  and  C_17
REMARK    5  A    between atoms: C_20  and  C_21
REMARK    6  A    between atoms: C_21  and  C_22
REMARK    7  A    between atoms: C_22  and  C_24
REMARK    8  A    between atoms: C_24  and  C_26
REMARK                            x       y       z     vdW  Elec       q    Type
REMARK                         _______ _______ _______ _____ _____    ______ ____
ROOT
ATOM      1  N   UNL     1      34.605 -20.293 -20.252  0.00  0.00    +0.387 N 
ATOM      2  C   UNL     1      33.566 -22.495 -18.550  0.00  0.00    +0.103 C 
ATOM      3  C   UNL     1      32.678 -21.392 -19.166  0.00  0.00    +0.008 C 
ATOM      4  C   UNL     1      35.019 -21.972 -18.472  0.00  0.00    +0.008 C 
ATOM      5  C   UNL     1      33.251 -20.815 -20.466  0.00  0.00    -0.075 C 
ATOM      6  C   UNL     1      35.510 -21.349 -19.785  0.00  0.00    -0.075 C 
ATOM      7  H   UNL     1      34.555 -19.578 -19.527  0.00  0.00    -0.080 HD
ENDROOT
BRANCH   2   8
ATOM      8  C   UNL     1      33.106 -23.007 -17.184  0.00  0.00    +0.002 C 
ATOM      9  C   UNL     1      31.745 -23.091 -16.895  0.00  0.00    +0.002 C 
ATOM     10  C   UNL     1      34.049 -23.390 -16.232  0.00  0.00    -0.002 C 
ATOM     11  C   UNL     1      31.325 -23.558 -15.649  0.00  0.00    +0.071 C 
ATOM     12  C   UNL     1      33.629 -23.858 -14.986  0.00  0.00    -0.000 C 
ATOM     13  C   UNL     1      32.267 -23.941 -14.695  0.00  0.00    +0.004 C 
BRANCH  11  17
ATOM     14  F   UNL     1      29.305 -22.444 -15.019  0.00  0.00    -0.166 F 
ATOM     15  F   UNL     1      29.118 -24.131 -16.369  0.00  0.00    -0.166 F 
ATOM     16  F   UNL     1      29.608 -24.465 -14.277  0.00  0.00    -0.166 F 
ATOM     17  C   UNL     1      29.869 -23.647 -15.337  0.00  0.00    +0.419 C 
ENDBRANCH  11  17
ENDBRANCH   2   8
BRANCH   2  18
ATOM     18  O   UNL     1      33.516 -23.636 -19.421  0.00  0.00    -0.383 OA
ATOM     19  H   UNL     1      32.997 -23.417 -20.211  0.00  0.00    +0.211 HD
ENDBRANCH   2  18
BRANCH   1  20
ATOM     20  C   UNL     1      35.119 -19.682 -21.478  0.00  0.00    -0.077 C 
BRANCH  20  21
ATOM     21  C   UNL     1      33.966 -19.108 -22.305  0.00  0.00    -0.015 C 
BRANCH  21  22
ATOM     22  C   UNL     1      34.460 -18.221 -23.451  0.00  0.00    +0.067 C 
BRANCH  22  24
ATOM     23  O   UNL     1      34.217 -19.846 -25.220  0.00  0.00    -0.291 OA
ATOM     24  C   UNL     1      34.011 -18.702 -24.824  0.00  0.00    +0.173 C 
BRANCH  24  26
ATOM     25  F   UNL     1      31.256 -15.142 -28.128  0.00  0.00    -0.204 F 
ATOM     26  C   UNL     1      33.276 -17.752 -25.707  0.00  0.00    +0.035 C 
ATOM     27  C   UNL     1      32.109 -18.172 -26.305  0.00  0.00    +0.005 C 
ATOM     28  C   UNL     1      33.790 -16.488 -25.891  0.00  0.00    +0.005 C 
ATOM     29  C   UNL     1      31.421 -17.283 -27.130  0.00  0.00    +0.030 C 
ATOM     30  C   UNL     1      33.102 -15.599 -26.717  0.00  0.00    +0.030 C 
ATOM     31  C   UNL     1      31.917 -15.996 -27.336  0.00  0.00    +0.140 C 
ENDBRANCH  24  26
ENDBRANCH  22  24
ENDBRANCH  21  22
ENDBRANCH  20  21
ENDBRANCH   1  20
TORSDOF 8
ENDMDL
MODEL 2
REMARK VINA RESULT:     -11.8      1.843      2.551
REMARK  Name = 5567
REMARK  8 active torsions:
REMARK  status: ('A' for Active; 'I' for Inactive)
REMARK    1  A    between atoms: N_1  and  C_20
REMARK    2  A    between atoms: C_2  and  C_8
REMARK    3  A    between atoms: C_2  and  O_18
REMARK    4  A    between atoms: C_11  and  C_17
REMARK    5  A    between atoms: C_20  and  C_21
REMARK    6  A    between atoms: C_21  and  C_22
REMARK    7  A    between atoms: C_22  and  C_24
REMARK    8  A    between atoms: C_24  and  C_26
REMARK                            x       y       z     vdW  Elec       q    Type
REMARK                         _______ _______ _______ _____ _____    ______ ____
ROOT
ATOM      1  N   UNL     1      34.609 -20.233 -20.294  0.00  0.00    +0.387 N 
ATOM      2  C   UNL     1      33.599 -22.455 -18.600  0.00  0.00    +0.103 C 
ATOM      3  C   UNL     1      32.697 -21.355 -19.203  0.00  0.00    +0.008 C 
ATOM      4  C   UNL     1      35.048 -21.921 -18.529  0.00  0.00    +0.008 C 
ATOM      5  C   UNL     1      33.257 -20.765 -20.503  0.00  0.00    -0.075 C 
ATOM      6  C   UNL     1      35.525 -21.285 -19.841  0.00  0.00    -0.075 C 
ATOM      7  H   UNL     1      34.558 -19.523 -19.564  0.00  0.00    -0.080 HD
ENDROOT
BRANCH   2   8
ATOM      8  C   UNL     1      33.152 -22.979 -17.235  0.00  0.00    +0.002 C 
ATOM      9  C   UNL     1      34.102 -23.301 -16.268  0.00  0.00    +0.002 C 
ATOM     10  C   UNL     1      31.794 -23.131 -16.959  0.00  0.00    -0.002 C 
ATOM     11  C   UNL     1      33.695 -23.778 -15.021  0.00  0.00    +0.071 C 
ATOM     12  C   UNL     1      31.386 -23.608 -15.713  0.00  0.00    -0.000 C 
ATOM     13  C   UNL     1      32.337 -23.931 -14.744  0.00  0.00    +0.004 C 
BRANCH  11  17
ATOM     14  F   UNL     1      34.174 -24.381 -12.757  0.00  0.00    -0.166 F 
ATOM     15  F   UNL     1      35.446 -25.234 -14.292  0.00  0.00    -0.166 F 
ATOM     16  F   UNL     1      35.619 -23.126 -13.787  0.00  0.00    -0.166 F 
ATOM     17  C   UNL     1      34.711 -24.124 -13.986  0.00  0.00    +0.419 C 
ENDBRANCH  11  17
ENDBRANCH   2   8
BRANCH   2  18
ATOM     18  O   UNL     1      33.552 -23.590 -19.479  0.00  0.00    -0.383 OA
ATOM     19  H   UNL     1      34.449 -23.939 -19.605  0.00  0.00    +0.211 HD
ENDBRANCH   2  18
BRANCH   1  20
ATOM     20  C   UNL     1      35.109 -19.609 -21.519  0.00  0.00    -0.077 C 
BRANCH  20  21
ATOM     21  C   UNL     1      33.942 -19.197 -22.418  0.00  0.00    -0.015 C 
BRANCH  21  22
ATOM     22  C   UNL     1      34.372 -18.223 -23.518  0.00  0.00    +0.067 C 
BRANCH  22  24
ATOM     23  O   UNL     1      34.171 -19.796 -25.339  0.00  0.00    -0.291 OA
ATOM     24  C   UNL     1      33.951 -18.664 -24.913  0.00  0.00    +0.173 C 
BRANCH  24  26
ATOM     25  F   UNL     1      31.249 -15.021 -28.169  0.00  0.00    -0.204 F 
ATOM     26  C   UNL     1      33.229 -17.691 -25.782  0.00  0.00    +0.035 C 
ATOM     27  C   UNL     1      33.769 -16.437 -25.960  0.00  0.00    +0.005 C 
ATOM     28  C   UNL     1      32.050 -18.083 -26.375  0.00  0.00    +0.005 C 
ATOM     29  C   UNL     1      33.093 -15.527 -26.773  0.00  0.00    +0.030 C 
ATOM     30  C   UNL     1      31.375 -17.173 -27.188  0.00  0.00    +0.030 C 
ATOM     31  C   UNL     1      31.897 -15.895 -27.388  0.00  0.00    +0.140 C 
ENDBRANCH  24  26
ENDBRANCH  22  24
ENDBRANCH  21  22
ENDBRANCH  20  21
ENDBRANCH   1  20
TORSDOF 8
ENDMDL
MODEL 3
REMARK VINA RESULT:     -11.8      1.799      2.176
REMARK  Name = 5567
REMARK  8 active torsions:
REMARK  status: ('A' for Active; 'I' for Inactive)
REMARK    1  A    between atoms: N_1  and  C_20
REMARK    2  A    between atoms: C_2  and  C_8
REMARK    3  A    between atoms: C_2  and  O_18
REMARK    4  A    between atoms: C_11  and  C_17
REMARK    5  A    between atoms: C_20  and  C_21
REMARK    6  A    between atoms: C_21  and  C_22
REMARK    7  A    between atoms: C_22  and  C_24
REMARK    8  A    between atoms: C_24  and  C_26
REMARK                            x       y       z     vdW  Elec       q    Type
REMARK                         _______ _______ _______ _____ _____    ______ ____
ROOT
ATOM      1  N   UNL     1      34.987 -20.256 -20.142  0.00  0.00    +0.387 N 
ATOM      2  C   UNL     1      33.644 -22.423 -18.617  0.00  0.00    +0.103 C 
ATOM      3  C   UNL     1      32.890 -21.278 -19.329  0.00  0.00    +0.008 C 
ATOM      4  C   UNL     1      35.095 -21.964 -18.345  0.00  0.00    +0.008 C 
ATOM      5  C   UNL     1      33.651 -20.717 -20.537  0.00  0.00    -0.075 C 
ATOM      6  C   UNL     1      35.778 -21.352 -19.575  0.00  0.00    -0.075 C 
ATOM      7  H   UNL     1      34.872 -19.544 -19.421  0.00  0.00    -0.080 HD
ENDROOT
BRANCH   2   8
ATOM      8  C   UNL     1      32.989 -22.924 -17.329  0.00  0.00    +0.002 C 
ATOM      9  C   UNL     1      31.607 -22.828 -17.168  0.00  0.00    +0.002 C 
ATOM     10  C   UNL     1      33.774 -23.478 -16.320  0.00  0.00    -0.002 C 
ATOM     11  C   UNL     1      31.009 -23.286 -15.993  0.00  0.00    +0.071 C 
ATOM     12  C   UNL     1      33.176 -23.936 -15.145  0.00  0.00    -0.000 C 
ATOM     13  C   UNL     1      31.794 -23.840 -14.982  0.00  0.00    +0.004 C 
BRANCH  11  17
ATOM     14  F   UNL     1      29.161 -22.545 -14.668  0.00  0.00    -0.166 F 
ATOM     15  F   UNL     1      28.910 -22.495 -16.822  0.00  0.00    -0.166 F 
ATOM     16  F   UNL     1      28.921 -24.401 -15.775  0.00  0.00    -0.166 F 
ATOM     17  C   UNL     1      29.532 -23.182 -15.819  0.00  0.00    +0.419 C 
ENDBRANCH  11  17
ENDBRANCH   2   8
BRANCH   2  18
ATOM     18  O   UNL     1      33.660 -23.554 -19.502  0.00  0.00    -0.383 OA
ATOM     19  H   UNL     1      33.733 -24.370 -18.982  0.00  0.00    +0.211 HD
ENDBRANCH   2  18
BRANCH   1  20
ATOM     20  C   UNL     1      35.680 -19.658 -21.282  0.00  0.00    -0.077 C 
BRANCH  20  21
ATOM     21  C   UNL     1      34.673 -19.252 -22.360  0.00  0.00    -0.015 C 
BRANCH  21  22
ATOM     22  C   UNL     1      35.337 -18.518 -23.529  0.00  0.00    +0.067 C 
BRANCH  22  24
ATOM     23  O   UNL     1      33.735 -18.269 -25.317  0.00  0.00    -0.291 OA
ATOM     24  C   UNL     1      34.353 -17.744 -24.395  0.00  0.00    +0.173 C 
BRANCH  24  26
ATOM     25  F   UNL     1      33.470 -12.348 -23.264  0.00  0.00    -0.204 F 
ATOM     26  C   UNL     1      34.118 -16.303 -24.093  0.00  0.00    +0.035 C 
ATOM     27  C   UNL     1      33.427 -15.540 -25.009  0.00  0.00    +0.005 C 
ATOM     28  C   UNL     1      34.599 -15.788 -22.911  0.00  0.00    +0.005 C 
ATOM     29  C   UNL     1      33.207 -14.192 -24.726  0.00  0.00    +0.030 C 
ATOM     30  C   UNL     1      34.378 -14.440 -22.628  0.00  0.00    +0.030 C 
ATOM     31  C   UNL     1      33.682 -13.642 -23.536  0.00  0.00    +0.140 C 
ENDBRANCH  24  26
ENDBRANCH  22  24
ENDBRANCH  21  22
ENDBRANCH  20  21
ENDBRANCH   1  20
TORSDOF 8
ENDMDL
MODEL 4
REMARK VINA RESULT:     -11.7      4.870     11.201
REMARK  Name = 5567
REMARK  8 active torsions:
REMARK  status: ('A' for Active; 'I' for Inactive)
REMARK    1  A    between atoms: N_1  and  C_20
REMARK    2  A    between atoms: C_2  and  C_8
REMARK    3  A    between atoms: C_2  and  O_18
REMARK    4  A    between atoms: C_11  and  C_17
REMARK    5  A    between atoms: C_20  and  C_21
REMARK    6  A    between atoms: C_21  and  C_22
REMARK    7  A    between atoms: C_22  and  C_24
REMARK    8  A    between atoms: C_24  and  C_26
REMARK                            x       y       z     vdW  Elec       q    Type
REMARK                         _______ _______ _______ _____ _____    ______ ____
ROOT
ATOM      1  N   UNL     1      33.450 -23.158 -15.885  0.00  0.00    +0.387 N 
ATOM      2  C   UNL     1      33.651 -22.339 -18.733  0.00  0.00    +0.103 C 
ATOM      3  C   UNL     1      34.800 -22.190 -17.712  0.00  0.00    +0.008 C 
ATOM      4  C   UNL     1      32.313 -22.415 -17.962  0.00  0.00    +0.008 C 
ATOM      5  C   UNL     1      34.739 -23.225 -16.583  0.00  0.00    -0.075 C 
ATOM      6  C   UNL     1      32.338 -23.421 -16.803  0.00  0.00    -0.075 C 
ATOM      7  H   UNL     1      33.340 -22.213 -15.519  0.00  0.00    -0.080 HD
ENDROOT
BRANCH   2   8
ATOM      8  C   UNL     1      33.592 -21.247 -19.802  0.00  0.00    +0.002 C 
ATOM      9  C   UNL     1      34.760 -20.596 -20.198  0.00  0.00    +0.002 C 
ATOM     10  C   UNL     1      32.371 -20.906 -20.381  0.00  0.00    -0.002 C 
ATOM     11  C   UNL     1      34.706 -19.601 -21.174  0.00  0.00    +0.071 C 
ATOM     12  C   UNL     1      32.318 -19.911 -21.358  0.00  0.00    -0.000 C 
ATOM     13  C   UNL     1      33.485 -19.258 -21.754  0.00  0.00    +0.004 C 
BRANCH  11  17
ATOM     14  F   UNL     1      36.219 -19.015 -22.932  0.00  0.00    -0.166 F 
ATOM     15  F   UNL     1      35.940 -17.560 -21.348  0.00  0.00    -0.166 F 
ATOM     16  F   UNL     1      37.064 -19.381 -20.962  0.00  0.00    -0.166 F 
ATOM     17  C   UNL     1      35.955 -18.903 -21.596  0.00  0.00    +0.419 C 
ENDBRANCH  11  17
ENDBRANCH   2   8
BRANCH   2  18
ATOM     18  O   UNL     1      33.857 -23.565 -19.451  0.00  0.00    -0.383 OA
ATOM     19  H   UNL     1      33.017 -23.861 -19.835  0.00  0.00    +0.211 HD
ENDBRANCH   2  18
BRANCH   1  20
ATOM     20  C   UNL     1      33.424 -24.099 -14.765  0.00  0.00    -0.077 C 
BRANCH  20  21
ATOM     21  C   UNL     1      34.678 -23.931 -13.904  0.00  0.00    -0.015 C 
BRANCH  21  22
ATOM     22  C   UNL     1      34.427 -24.288 -12.436  0.00  0.00    +0.067 C 
BRANCH  22  24
ATOM     23  O   UNL     1      35.681 -25.067 -10.527  0.00  0.00    -0.291 OA
ATOM     24  C   UNL     1      35.649 -24.869 -11.738  0.00  0.00    +0.173 C 
BRANCH  24  26
ATOM     25  F   UNL     1      40.099 -26.214 -14.832  0.00  0.00    -0.204 F 
ATOM     26  C   UNL     1      36.837 -25.229 -12.563  0.00  0.00    +0.035 C 
ATOM     27  C   UNL     1      36.754 -26.316 -13.405  0.00  0.00    +0.005 C 
ATOM     28  C   UNL     1      37.974 -24.460 -12.455  0.00  0.00    +0.005 C 
ATOM     29  C   UNL     1      37.866 -26.652 -14.178  0.00  0.00    +0.030 C 
ATOM     30  C   UNL     1      39.086 -24.796 -13.228  0.00  0.00    +0.030 C 
ATOM     31  C   UNL     1      39.032 -25.892 -14.090  0.00  0.00    +0.140 C 
ENDBRANCH  24  26
ENDBRANCH  22  24
ENDBRANCH  21  22
ENDBRANCH  20  21
ENDBRANCH   1  20
TORSDOF 8
ENDMDL
MODEL 5
REMARK VINA RESULT:     -11.4      3.668      9.729
REMARK  Name = 5567
REMARK  8 active torsions:
REMARK  status: ('A' for Active; 'I' for Inactive)
REMARK    1  A    between atoms: N_1  and  C_20
REMARK    2  A    between atoms: C_2  and  C_8
REMARK    3  A    between atoms: C_2  and  O_18
REMARK    4  A    between atoms: C_11  and  C_17
REMARK    5  A    between atoms: C_20  and  C_21
REMARK    6  A    between atoms: C_21  and  C_22
REMARK    7  A    between atoms: C_22  and  C_24
REMARK    8  A    between atoms: C_24  and  C_26
REMARK                            x       y       z     vdW  Elec       q    Type
REMARK                         _______ _______ _______ _____ _____    ______ ____
ROOT
ATOM      1  N   UNL     1      34.034 -23.171 -15.926  0.00  0.00    +0.387 N 
ATOM      2  C   UNL     1      33.991 -22.299 -18.766  0.00  0.00    +0.103 C 
ATOM      3  C   UNL     1      35.189 -22.078 -17.816  0.00  0.00    +0.008 C 
ATOM      4  C   UNL     1      32.715 -22.487 -17.913  0.00  0.00    +0.008 C 
ATOM      5  C   UNL     1      35.277 -23.131 -16.705  0.00  0.00    -0.075 C 
ATOM      6  C   UNL     1      32.888 -23.504 -16.778  0.00  0.00    -0.075 C 
ATOM      7  H   UNL     1      33.878 -22.242 -15.536  0.00  0.00    -0.080 HD
ENDROOT
BRANCH   2   8
ATOM      8  C   UNL     1      33.782 -21.200 -19.808  0.00  0.00    +0.002 C 
ATOM      9  C   UNL     1      34.879 -20.508 -20.319  0.00  0.00    +0.002 C 
ATOM     10  C   UNL     1      32.495 -20.893 -20.248  0.00  0.00    -0.002 C 
ATOM     11  C   UNL     1      34.690 -19.506 -21.272  0.00  0.00    +0.071 C 
ATOM     12  C   UNL     1      32.306 -19.891 -21.200  0.00  0.00    -0.000 C 
ATOM     13  C   UNL     1      33.403 -19.198 -21.711  0.00  0.00    +0.004 C 
BRANCH  11  17
ATOM     14  F   UNL     1      37.046 -19.096 -21.220  0.00  0.00    -0.166 F 
ATOM     15  F   UNL     1      36.067 -18.970 -23.152  0.00  0.00    -0.166 F 
ATOM     16  F   UNL     1      35.744 -17.413 -21.669  0.00  0.00    -0.166 F 
ATOM     17  C   UNL     1      35.862 -18.764 -21.817  0.00  0.00    +0.419 C 
ENDBRANCH  11  17
ENDBRANCH   2   8
BRANCH   2  18
ATOM     18  O   UNL     1      34.242 -23.496 -19.518  0.00  0.00    -0.383 OA
ATOM     19  H   UNL     1      34.356 -24.243 -18.909  0.00  0.00    +0.211 HD
ENDBRANCH   2  18
BRANCH   1  20
ATOM     20  C   UNL     1      34.150 -24.127 -14.825  0.00  0.00    -0.077 C 
BRANCH  20  21
ATOM     21  C   UNL     1      33.059 -23.868 -13.783  0.00  0.00    -0.015 C 
BRANCH  21  22
ATOM     22  C   UNL     1      32.005 -24.979 -13.760  0.00  0.00    +0.067 C 
BRANCH  22  24
ATOM     23  O   UNL     1      30.152 -24.352 -12.345  0.00  0.00    -0.291 OA
ATOM     24  C   UNL     1      30.597 -24.470 -13.484  0.00  0.00    +0.173 C 
BRANCH  24  26
ATOM     25  F   UNL     1      27.384 -23.016 -17.813  0.00  0.00    -0.204 F 
ATOM     26  C   UNL     1      29.740 -24.082 -14.641  0.00  0.00    +0.035 C 
ATOM     27  C   UNL     1      29.043 -25.066 -15.307  0.00  0.00    +0.005 C 
ATOM     28  C   UNL     1      29.675 -22.755 -14.999  0.00  0.00    +0.005 C 
ATOM     29  C   UNL     1      28.240 -24.703 -16.388  0.00  0.00    +0.030 C 
ATOM     30  C   UNL     1      28.873 -22.392 -16.081  0.00  0.00    +0.030 C 
ATOM     31  C   UNL     1      28.154 -23.365 -16.775  0.00  0.00    +0.140 C 
ENDBRANCH  24  26
ENDBRANCH  22  24
ENDBRANCH  21  22
ENDBRANCH  20  21
ENDBRANCH   1  20
TORSDOF 8
ENDMDL
MODEL 6
REMARK VINA RESULT:     -11.0      3.235      3.884
REMARK  Name = 5567
REMARK  8 active torsions:
REMARK  status: ('A' for Active; 'I' for Inactive)
REMARK    1  A    between atoms: N_1  and  C_20
REMARK    2  A    between atoms: C_2  and  C_8
REMARK    3  A    between atoms: C_2  and  O_18
REMARK    4  A    between atoms: C_11  and  C_17
REMARK    5  A    between atoms: C_20  and  C_21
REMARK    6  A    between atoms: C_21  and  C_22
REMARK    7  A    between atoms: C_22  and  C_24
REMARK    8  A    between atoms: C_24  and  C_26
REMARK                            x       y       z     vdW  Elec       q    Type
REMARK                         _______ _______ _______ _____ _____    ______ ____
ROOT
ATOM      1  N   UNL     1      34.687 -20.311 -20.300  0.00  0.00    +0.387 N 
ATOM      2  C   UNL     1      33.645 -22.493 -18.573  0.00  0.00    +0.103 C 
ATOM      3  C   UNL     1      32.759 -21.391 -19.195  0.00  0.00    +0.008 C 
ATOM      4  C   UNL     1      35.101 -21.977 -18.507  0.00  0.00    +0.008 C 
ATOM      5  C   UNL     1      33.328 -20.828 -20.502  0.00  0.00    -0.075 C 
ATOM      6  C   UNL     1      35.588 -21.367 -19.828  0.00  0.00    -0.075 C 
ATOM      7  H   UNL     1      34.643 -19.589 -19.580  0.00  0.00    -0.080 HD
ENDROOT
BRANCH   2   8
ATOM      8  C   UNL     1      33.189 -22.990 -17.201  0.00  0.00    +0.002 C 
ATOM      9  C   UNL     1      34.134 -23.284 -16.219  0.00  0.00    +0.002 C 
ATOM     10  C   UNL     1      31.830 -23.146 -16.934  0.00  0.00    -0.002 C 
ATOM     11  C   UNL     1      33.718 -23.737 -14.966  0.00  0.00    +0.071 C 
ATOM     12  C   UNL     1      31.415 -23.598 -15.681  0.00  0.00    -0.000 C 
ATOM     13  C   UNL     1      32.358 -23.894 -14.697  0.00  0.00    +0.004 C 
BRANCH  11  17
ATOM     14  F   UNL     1      35.655 -23.068 -13.732  0.00  0.00    -0.166 F 
ATOM     15  F   UNL     1      34.183 -24.264 -12.680  0.00  0.00    -0.166 F 
ATOM     16  F   UNL     1      35.442 -25.181 -14.196  0.00  0.00    -0.166 F 
ATOM     17  C   UNL     1      34.727 -24.054 -13.914  0.00  0.00    +0.419 C 
ENDBRANCH  11  17
ENDBRANCH   2   8
BRANCH   2  18
ATOM     18  O   UNL     1      33.585 -23.641 -19.435  0.00  0.00    -0.383 OA
ATOM     19  H   UNL     1      34.485 -23.912 -19.675  0.00  0.00    +0.211 HD
ENDBRANCH   2  18
BRANCH   1  20
ATOM     20  C   UNL     1      35.197 -19.712 -21.532  0.00  0.00    -0.077 C 
BRANCH  20  21
ATOM     21  C   UNL     1      34.385 -18.466 -21.891  0.00  0.00    -0.015 C 
BRANCH  21  22
ATOM     22  C   UNL     1      35.250 -17.203 -21.937  0.00  0.00    +0.067 C 
BRANCH  22  24
ATOM     23  O   UNL     1      34.750 -16.049 -19.876  0.00  0.00    -0.291 OA
ATOM     24  C   UNL     1      34.692 -16.058 -21.103  0.00  0.00    +0.173 C 
BRANCH  24  26
ATOM     25  F   UNL     1      32.371 -11.718 -23.740  0.00  0.00    -0.204 F 
ATOM     26  C   UNL     1      34.073 -14.898 -21.807  0.00  0.00    +0.035 C 
ATOM     27  C   UNL     1      34.288 -14.755 -23.160  0.00  0.00    +0.005 C 
ATOM     28  C   UNL     1      33.309 -14.015 -21.079  0.00  0.00    +0.005 C 
ATOM     29  C   UNL     1      33.708 -13.671 -23.819  0.00  0.00    +0.030 C 
ATOM     30  C   UNL     1      32.729 -12.930 -21.738  0.00  0.00    +0.030 C 
ATOM     31  C   UNL     1      32.928 -12.758 -23.108  0.00  0.00    +0.140 C 
ENDBRANCH  24  26
ENDBRANCH  22  24
ENDBRANCH  21  22
ENDBRANCH  20  21
ENDBRANCH   1  20
TORSDOF 8
ENDMDL
MODEL 7
REMARK VINA RESULT:     -10.9      5.167     11.265
REMARK  Name = 5567
REMARK  8 active torsions:
REMARK  status: ('A' for Active; 'I' for Inactive)
REMARK    1  A    between atoms: N_1  and  C_20
REMARK    2  A    between atoms: C_2  and  C_8
REMARK    3  A    between atoms: C_2  and  O_18
REMARK    4  A    between atoms: C_11  and  C_17
REMARK    5  A    between atoms: C_20  and  C_21
REMARK    6  A    between atoms: C_21  and  C_22
REMARK    7  A    between atoms: C_22  and  C_24
REMARK    8  A    between atoms: C_24  and  C_26
REMARK                            x       y       z     vdW  Elec       q    Type
REMARK                         _______ _______ _______ _____ _____    ______ ____
ROOT
ATOM      1  N   UNL     1      33.815 -15.940 -23.834  0.00  0.00    +0.387 N 
ATOM      2  C   UNL     1      33.332 -13.077 -23.205  0.00  0.00    +0.103 C 
ATOM      3  C   UNL     1      33.818 -14.115 -22.169  0.00  0.00    +0.008 C 
ATOM      4  C   UNL     1      32.627 -13.825 -24.360  0.00  0.00    +0.008 C 
ATOM      5  C   UNL     1      34.609 -15.268 -22.799  0.00  0.00    -0.075 C 
ATOM      6  C   UNL     1      33.441 -15.008 -24.902  0.00  0.00    -0.075 C 
ATOM      7  H   UNL     1      32.957 -16.281 -23.399  0.00  0.00    -0.080 HD
ENDROOT
BRANCH   2   8
ATOM      8  C   UNL     1      32.425 -11.981 -22.643  0.00  0.00    +0.002 C 
ATOM      9  C   UNL     1      32.405 -10.721 -23.239  0.00  0.00    +0.002 C 
ATOM     10  C   UNL     1      31.618 -12.245 -21.538  0.00  0.00    -0.002 C 
ATOM     11  C   UNL     1      31.577  -9.721 -22.728  0.00  0.00    +0.071 C 
ATOM     12  C   UNL     1      30.789 -11.246 -21.027  0.00  0.00    -0.000 C 
ATOM     13  C   UNL     1      30.769  -9.984 -21.622  0.00  0.00    +0.004 C 
BRANCH  11  17
ATOM     14  F   UNL     1      31.815  -8.395 -24.704  0.00  0.00    -0.166 F 
ATOM     15  F   UNL     1      30.358  -7.729 -23.242  0.00  0.00    -0.166 F 
ATOM     16  F   UNL     1      32.482  -7.525 -22.827  0.00  0.00    -0.166 F 
ATOM     17  C   UNL     1      31.556  -8.372 -23.363  0.00  0.00    +0.419 C 
ENDBRANCH  11  17
ENDBRANCH   2   8
BRANCH   2  18
ATOM     18  O   UNL     1      34.487 -12.393 -23.715  0.00  0.00    -0.383 OA
ATOM     19  H   UNL     1      34.970 -11.982 -22.981  0.00  0.00    +0.211 HD
ENDBRANCH   2  18
BRANCH   1  20
ATOM     20  C   UNL     1      34.547 -17.082 -24.381  0.00  0.00    -0.077 C 
BRANCH  20  21
ATOM     21  C   UNL     1      34.155 -18.364 -23.644  0.00  0.00    -0.015 C 
BRANCH  21  22
ATOM     22  C   UNL     1      35.343 -19.002 -22.918  0.00  0.00    +0.067 C 
BRANCH  22  24
ATOM     23  O   UNL     1      35.623 -17.886 -20.796  0.00  0.00    -0.291 OA
ATOM     24  C   UNL     1      35.256 -18.889 -21.402  0.00  0.00    +0.173 C 
BRANCH  24  26
ATOM     25  F   UNL     1      33.110 -23.163 -18.520  0.00  0.00    -0.204 F 
ATOM     26  C   UNL     1      34.683 -20.030 -20.633  0.00  0.00    +0.035 C 
ATOM     27  C   UNL     1      35.544 -20.909 -20.014  0.00  0.00    +0.005 C 
ATOM     28  C   UNL     1      33.315 -20.164 -20.570  0.00  0.00    +0.005 C 
ATOM     29  C   UNL     1      35.008 -21.977 -19.294  0.00  0.00    +0.030 C 
ATOM     30  C   UNL     1      32.779 -21.232 -19.850  0.00  0.00    +0.030 C 
ATOM     31  C   UNL     1      33.625 -22.138 -19.211  0.00  0.00    +0.140 C 
ENDBRANCH  24  26
ENDBRANCH  22  24
ENDBRANCH  21  22
ENDBRANCH  20  21
ENDBRANCH   1  20
TORSDOF 8
ENDMDL
MODEL 8
REMARK VINA RESULT:     -10.8      5.278     11.851
REMARK  Name = 5567
REMARK  8 active torsions:
REMARK  status: ('A' for Active; 'I' for Inactive)
REMARK    1  A    between atoms: N_1  and  C_20
REMARK    2  A    between atoms: C_2  and  C_8
REMARK    3  A    between atoms: C_2  and  O_18
REMARK    4  A    between atoms: C_11  and  C_17
REMARK    5  A    between atoms: C_20  and  C_21
REMARK    6  A    between atoms: C_21  and  C_22
REMARK    7  A    between atoms: C_22  and  C_24
REMARK    8  A    between atoms: C_24  and  C_26
REMARK                            x       y       z     vdW  Elec       q    Type
REMARK                         _______ _______ _______ _____ _____    ______ ____
ROOT
ATOM      1  N   UNL     1      33.951 -15.580 -24.692  0.00  0.00    +0.387 N 
ATOM      2  C   UNL     1      33.343 -12.705 -24.256  0.00  0.00    +0.103 C 
ATOM      3  C   UNL     1      33.328 -13.387 -25.642  0.00  0.00    +0.008 C 
ATOM      4  C   UNL     1      34.230 -13.542 -23.305  0.00  0.00    +0.008 C 
ATOM      5  C   UNL     1      33.005 -14.884 -25.572  0.00  0.00    -0.075 C 
ATOM      6  C   UNL     1      33.901 -15.040 -23.330  0.00  0.00    -0.075 C 
ATOM      7  H   UNL     1      34.890 -15.427 -25.058  0.00  0.00    -0.080 HD
ENDROOT
BRANCH   2   8
ATOM      8  C   UNL     1      33.792 -11.243 -24.261  0.00  0.00    +0.002 C 
ATOM      9  C   UNL     1      33.150 -10.315 -23.443  0.00  0.00    +0.002 C 
ATOM     10  C   UNL     1      34.846 -10.842 -25.081  0.00  0.00    -0.002 C 
ATOM     11  C   UNL     1      33.560  -8.981 -23.446  0.00  0.00    +0.071 C 
ATOM     12  C   UNL     1      35.256  -9.508 -25.084  0.00  0.00    -0.000 C 
ATOM     13  C   UNL     1      34.613  -8.578 -24.267  0.00  0.00    +0.004 C 
BRANCH  11  17
ATOM     14  F   UNL     1      33.618  -7.593 -21.499  0.00  0.00    -0.166 F 
ATOM     15  F   UNL     1      32.540  -6.830 -23.220  0.00  0.00    -0.166 F 
ATOM     16  F   UNL     1      31.704  -8.464 -22.053  0.00  0.00    -0.166 F 
ATOM     17  C   UNL     1      32.871  -7.987 -22.574  0.00  0.00    +0.419 C 
ENDBRANCH  11  17
ENDBRANCH   2   8
BRANCH   2  18
ATOM     18  O   UNL     1      31.996 -12.689 -23.760  0.00  0.00    -0.383 OA
ATOM     19  H   UNL     1      31.575 -13.544 -23.941  0.00  0.00    +0.211 HD
ENDBRANCH   2  18
BRANCH   1  20
ATOM     20  C   UNL     1      33.681 -17.018 -24.685  0.00  0.00    -0.077 C 
BRANCH  20  21
ATOM     21  C   UNL     1      34.814 -17.765 -23.978  0.00  0.00    -0.015 C 
BRANCH  21  22
ATOM     22  C   UNL     1      34.302 -18.947 -23.150  0.00  0.00    +0.067 C 
BRANCH  22  24
ATOM     23  O   UNL     1      34.939 -17.736 -21.162  0.00  0.00    -0.291 OA
ATOM     24  C   UNL     1      34.546 -18.790 -21.656  0.00  0.00    +0.173 C 
BRANCH  24  26
ATOM     25  F   UNL     1      33.536 -23.148 -18.314  0.00  0.00    -0.204 F 
ATOM     26  C   UNL     1      34.277 -19.952 -20.763  0.00  0.00    +0.035 C 
ATOM     27  C   UNL     1      32.970 -20.256 -20.449  0.00  0.00    +0.005 C 
ATOM     28  C   UNL     1      35.343 -20.681 -20.286  0.00  0.00    +0.005 C 
ATOM     29  C   UNL     1      32.718 -21.345 -19.614  0.00  0.00    +0.030 C 
ATOM     30  C   UNL     1      35.091 -21.769 -19.451  0.00  0.00    +0.030 C 
ATOM     31  C   UNL     1      33.778 -22.102 -19.115  0.00  0.00    +0.140 C 
ENDBRANCH  24  26
ENDBRANCH  22  24
ENDBRANCH  21  22
ENDBRANCH  20  21
ENDBRANCH   1  20
TORSDOF 8
ENDMDL
MODEL 9
REMARK VINA RESULT:     -10.8      1.893     11.097
REMARK  Name = 5567
REMARK  8 active torsions:
REMARK  status: ('A' for Active; 'I' for Inactive)
REMARK    1  A    between atoms: N_1  and  C_20
REMARK    2  A    between atoms: C_2  and  C_8
REMARK    3  A    between atoms: C_2  and  O_18
REMARK    4  A    between atoms: C_11  and  C_17
REMARK    5  A    between atoms: C_20  and  C_21
REMARK    6  A    between atoms: C_21  and  C_22
REMARK    7  A    between atoms: C_22  and  C_24
REMARK    8  A    between atoms: C_24  and  C_26
REMARK                            x       y       z     vdW  Elec       q    Type
REMARK                         _______ _______ _______ _____ _____    ______ ____
ROOT
ATOM      1  N   UNL     1      34.485 -18.998 -21.537  0.00  0.00    +0.387 N 
ATOM      2  C   UNL     1      34.669 -16.547 -23.206  0.00  0.00    +0.103 C 
ATOM      3  C   UNL     1      34.704 -16.541 -21.662  0.00  0.00    +0.008 C 
ATOM      4  C   UNL     1      33.981 -17.849 -23.678  0.00  0.00    +0.008 C 
ATOM      5  C   UNL     1      35.257 -17.842 -21.068  0.00  0.00    -0.075 C 
ATOM      6  C   UNL     1      34.535 -19.108 -22.998  0.00  0.00    -0.075 C 
ATOM      7  H   UNL     1      33.512 -18.858 -21.265  0.00  0.00    -0.080 HD
ENDROOT
BRANCH   2   8
ATOM      8  C   UNL     1      34.001 -15.326 -23.841  0.00  0.00    +0.002 C 
ATOM      9  C   UNL     1      33.620 -15.360 -25.182  0.00  0.00    +0.002 C 
ATOM     10  C   UNL     1      33.771 -14.184 -23.077  0.00  0.00    -0.002 C 
ATOM     11  C   UNL     1      33.010 -14.247 -25.761  0.00  0.00    +0.071 C 
ATOM     12  C   UNL     1      33.160 -13.071 -23.656  0.00  0.00    -0.000 C 
ATOM     13  C   UNL     1      32.780 -13.103 -24.998  0.00  0.00    +0.004 C 
BRANCH  11  17
ATOM     14  F   UNL     1      31.435 -13.621 -27.450  0.00  0.00    -0.166 F 
ATOM     15  F   UNL     1      33.521 -13.717 -28.036  0.00  0.00    -0.166 F 
ATOM     16  F   UNL     1      32.416 -15.551 -27.658  0.00  0.00    -0.166 F 
ATOM     17  C   UNL     1      32.605 -14.281 -27.196  0.00  0.00    +0.419 C 
ENDBRANCH  11  17
ENDBRANCH   2   8
BRANCH   2  18
ATOM     18  O   UNL     1      36.026 -16.527 -23.675  0.00  0.00    -0.383 OA
ATOM     19  H   UNL     1      36.032 -16.493 -24.645  0.00  0.00    +0.211 HD
ENDBRANCH   2  18
BRANCH   1  20
ATOM     20  C   UNL     1      34.972 -20.227 -20.913  0.00  0.00    -0.077 C 
BRANCH  20  21
ATOM     21  C   UNL     1      33.858 -20.882 -20.094  0.00  0.00    -0.015 C 
BRANCH  21  22
ATOM     22  C   UNL     1      34.405 -21.698 -18.918  0.00  0.00    +0.067 C 
BRANCH  22  24
ATOM     23  O   UNL     1      33.452 -23.854 -19.442  0.00  0.00    -0.291 OA
ATOM     24  C   UNL     1      33.590 -22.950 -18.621  0.00  0.00    +0.173 C 
BRANCH  24  26
ATOM     25  F   UNL     1      31.222 -23.469 -13.592  0.00  0.00    -0.204 F 
ATOM     26  C   UNL     1      32.958 -23.087 -17.279  0.00  0.00    +0.035 C 
ATOM     27  C   UNL     1      31.593 -22.935 -17.171  0.00  0.00    +0.005 C 
ATOM     28  C   UNL     1      33.761 -23.363 -16.195  0.00  0.00    +0.005 C 
ATOM     29  C   UNL     1      31.002 -23.065 -15.915  0.00  0.00    +0.030 C 
ATOM     30  C   UNL     1      33.169 -23.493 -14.939  0.00  0.00    +0.030 C 
ATOM     31  C   UNL     1      31.789 -23.344 -14.798  0.00  0.00    +0.140 C 
ENDBRANCH  24  26
ENDBRANCH  22  24
ENDBRANCH  21  22
ENDBRANCH  20  21
ENDBRANCH   1  20
TORSDOF 8
ENDMDL
