MODEL 1
REMARK VINA RESULT:     -11.8      0.000      0.000
REMARK  Name = 10401956
REMARK  3 active torsions:
REMARK  status: ('A' for Active; 'I' for Inactive)
REMARK    1  A    between atoms: N_1  and  C_13
REMARK    2  A    between atoms: C_8  and  N_20
REMARK    3  A    between atoms: C_21  and  C_23
REMARK                            x       y       z     vdW  Elec       q    Type
REMARK                         _______ _______ _______ _____ _____    ______ ____
ROOT
ATOM      1  N   UNL     1      32.555 -22.386 -18.340  0.00  0.00    -0.301 N 
ATOM      2  N   UNL     1      33.310 -24.429 -14.820  0.00  0.00    -0.248 NA
ATOM      3  N   UNL     1      34.048 -23.542 -16.936  0.00  0.00    -0.233 NA
ATOM      4  C   UNL     1      31.756 -23.257 -16.222  0.00  0.00    +0.117 C 
ATOM      5  C   UNL     1      32.071 -23.958 -15.046  0.00  0.00    +0.067 C 
ATOM      6  C   UNL     1      32.797 -23.083 -17.130  0.00  0.00    +0.115 C 
ATOM      7  C   UNL     1      30.457 -22.769 -16.447  0.00  0.00    +0.001 C 
ATOM      8  C   UNL     1      29.462 -22.977 -15.498  0.00  0.00    +0.047 C 
ATOM      9  C   UNL     1      31.055 -24.151 -14.113  0.00  0.00    +0.016 C 
ATOM     10  C   UNL     1      29.761 -23.669 -14.330  0.00  0.00    +0.016 C 
ATOM     11  C   UNL     1      34.231 -24.195 -15.778  0.00  0.00    +0.251 C 
ATOM     12  H   UNL     1      31.619 -22.363 -18.644  0.00  0.00    +0.153 HD
ENDROOT
BRANCH   1  13
ATOM     13  C   UNL     1      33.469 -21.733 -19.148  0.00  0.00    +0.049 C 
ATOM     14  C   UNL     1      34.847 -22.003 -19.050  0.00  0.00    +0.015 C 
ATOM     15  C   UNL     1      33.045 -20.777 -20.092  0.00  0.00    +0.015 C 
ATOM     16  C   UNL     1      35.768 -21.344 -19.864  0.00  0.00    +0.001 C 
ATOM     17  C   UNL     1      33.967 -20.117 -20.906  0.00  0.00    +0.001 C 
ATOM     18  C   UNL     1      35.328 -20.401 -20.792  0.00  0.00    +0.000 C 
ENDBRANCH   1  13
BRANCH   8  20
ATOM     19  O   UNL     1      27.456 -23.679 -17.620  0.00  0.00    -0.270 OA
ATOM     20  N   UNL     1      28.171 -22.494 -15.716  0.00  0.00    -0.281 N 
ATOM     21  C   UNL     1      27.272 -22.859 -16.729  0.00  0.00    +0.250 C 
ATOM     22  H   UNL     1      27.852 -21.812 -15.081  0.00  0.00    +0.155 HD
BRANCH  21  23
ATOM     23  C   UNL     1      25.986 -22.110 -16.619  0.00  0.00    +0.058 C 
ATOM     24  C   UNL     1      25.569 -21.326 -17.618  0.00  0.00    +0.005 C 
ENDBRANCH  21  23
ENDBRANCH   8  20
TORSDOF 3
ENDMDL
MODEL 2
REMARK VINA RESULT:     -11.3      3.313      7.560
REMARK  Name = 10401956
REMARK  3 active torsions:
REMARK  status: ('A' for Active; 'I' for Inactive)
REMARK    1  A    between atoms: N_1  and  C_13
REMARK    2  A    between atoms: C_8  and  N_20
REMARK    3  A    between atoms: C_21  and  C_23
REMARK                            x       y       z     vdW  Elec       q    Type
REMARK                         _______ _______ _______ _____ _____    ______ ____
ROOT
ATOM      1  N   UNL     1      32.165 -23.799 -16.244  0.00  0.00    -0.301 N 
ATOM      2  N   UNL     1      34.439 -21.696 -18.988  0.00  0.00    -0.248 NA
ATOM      3  N   UNL     1      32.338 -22.643 -18.286  0.00  0.00    -0.233 NA
ATOM      4  C   UNL     1      34.306 -22.867 -16.899  0.00  0.00    +0.117 C 
ATOM      5  C   UNL     1      35.027 -22.148 -17.867  0.00  0.00    +0.067 C 
ATOM      6  C   UNL     1      32.958 -23.081 -17.173  0.00  0.00    +0.115 C 
ATOM      7  C   UNL     1      34.931 -23.334 -15.730  0.00  0.00    +0.001 C 
ATOM      8  C   UNL     1      36.283 -23.087 -15.517  0.00  0.00    +0.047 C 
ATOM      9  C   UNL     1      36.379 -21.914 -17.628  0.00  0.00    +0.016 C 
ATOM     10  C   UNL     1      37.008 -22.375 -16.467  0.00  0.00    +0.016 C 
ATOM     11  C   UNL     1      33.127 -21.968 -19.136  0.00  0.00    +0.251 C 
ATOM     12  H   UNL     1      32.653 -24.402 -15.637  0.00  0.00    +0.153 HD
ENDROOT
BRANCH   1  13
ATOM     13  C   UNL     1      30.792 -23.759 -16.080  0.00  0.00    +0.049 C 
ATOM     14  C   UNL     1      30.040 -22.653 -16.522  0.00  0.00    +0.015 C 
ATOM     15  C   UNL     1      30.105 -24.825 -15.465  0.00  0.00    +0.015 C 
ATOM     16  C   UNL     1      28.656 -22.613 -16.356  0.00  0.00    +0.001 C 
ATOM     17  C   UNL     1      28.720 -24.783 -15.298  0.00  0.00    +0.001 C 
ATOM     18  C   UNL     1      27.996 -23.678 -15.744  0.00  0.00    +0.000 C 
ENDBRANCH   1  13
BRANCH   8  20
ATOM     19  O   UNL     1      37.600 -25.722 -14.936  0.00  0.00    -0.270 OA
ATOM     20  N   UNL     1      36.908 -23.547 -14.359  0.00  0.00    -0.281 N 
ATOM     21  C   UNL     1      37.511 -24.795 -14.140  0.00  0.00    +0.250 C 
ATOM     22  H   UNL     1      36.929 -22.919 -13.601  0.00  0.00    +0.155 HD
BRANCH  21  23
ATOM     23  C   UNL     1      38.069 -24.902 -12.761  0.00  0.00    +0.058 C 
ATOM     24  C   UNL     1      37.978 -23.874 -11.910  0.00  0.00    +0.005 C 
ENDBRANCH  21  23
ENDBRANCH   8  20
TORSDOF 3
ENDMDL
MODEL 3
REMARK VINA RESULT:     -10.7      2.522      3.712
REMARK  Name = 10401956
REMARK  3 active torsions:
REMARK  status: ('A' for Active; 'I' for Inactive)
REMARK    1  A    between atoms: N_1  and  C_13
REMARK    2  A    between atoms: C_8  and  N_20
REMARK    3  A    between atoms: C_21  and  C_23
REMARK                            x       y       z     vdW  Elec       q    Type
REMARK                         _______ _______ _______ _____ _____    ______ ____
ROOT
ATOM      1  N   UNL     1      34.198 -22.309 -18.367  0.00  0.00    -0.301 N 
ATOM      2  N   UNL     1      37.110 -22.476 -15.431  0.00  0.00    -0.248 NA
ATOM      3  N   UNL     1      36.376 -21.814 -17.628  0.00  0.00    -0.233 NA
ATOM      4  C   UNL     1      34.881 -23.000 -16.145  0.00  0.00    +0.117 C 
ATOM      5  C   UNL     1      35.907 -23.027 -15.187  0.00  0.00    +0.067 C 
ATOM      6  C   UNL     1      35.183 -22.375 -17.351  0.00  0.00    +0.115 C 
ATOM      7  C   UNL     1      33.628 -23.579 -15.879  0.00  0.00    +0.001 C 
ATOM      8  C   UNL     1      33.390 -24.190 -14.652  0.00  0.00    +0.047 C 
ATOM      9  C   UNL     1      35.642 -23.645 -13.967  0.00  0.00    +0.016 C 
ATOM     10  C   UNL     1      34.398 -24.222 -13.695  0.00  0.00    +0.016 C 
ATOM     11  C   UNL     1      37.278 -21.900 -16.638  0.00  0.00    +0.251 C 
ATOM     12  H   UNL     1      33.488 -22.989 -18.322  0.00  0.00    +0.153 HD
ENDROOT
BRANCH   1  13
ATOM     13  C   UNL     1      34.107 -21.408 -19.413  0.00  0.00    +0.049 C 
ATOM     14  C   UNL     1      32.858 -20.910 -19.835  0.00  0.00    +0.015 C 
ATOM     15  C   UNL     1      35.261 -20.964 -20.089  0.00  0.00    +0.015 C 
ATOM     16  C   UNL     1      32.767 -20.004 -20.891  0.00  0.00    +0.001 C 
ATOM     17  C   UNL     1      35.168 -20.057 -21.145  0.00  0.00    +0.001 C 
ATOM     18  C   UNL     1      33.921 -19.577 -21.546  0.00  0.00    +0.000 C 
ENDBRANCH   1  13
BRANCH   8  20
ATOM     19  O   UNL     1      30.646 -22.970 -14.629  0.00  0.00    -0.270 OA
ATOM     20  N   UNL     1      32.148 -24.765 -14.382  0.00  0.00    -0.281 N 
ATOM     21  C   UNL     1      30.890 -24.146 -14.386  0.00  0.00    +0.250 C 
ATOM     22  H   UNL     1      32.156 -25.725 -14.162  0.00  0.00    +0.155 HD
BRANCH  21  23
ATOM     23  C   UNL     1      29.802 -25.108 -14.043  0.00  0.00    +0.058 C 
ATOM     24  C   UNL     1      28.737 -25.241 -14.840  0.00  0.00    +0.005 C 
ENDBRANCH  21  23
ENDBRANCH   8  20
TORSDOF 3
ENDMDL
MODEL 4
REMARK VINA RESULT:     -10.5      1.905      2.856
REMARK  Name = 10401956
REMARK  3 active torsions:
REMARK  status: ('A' for Active; 'I' for Inactive)
REMARK    1  A    between atoms: N_1  and  C_13
REMARK    2  A    between atoms: C_8  and  N_20
REMARK    3  A    between atoms: C_21  and  C_23
REMARK                            x       y       z     vdW  Elec       q    Type
REMARK                         _______ _______ _______ _____ _____    ______ ____
ROOT
ATOM      1  N   UNL     1      34.270 -21.913 -18.945  0.00  0.00    -0.301 N 
ATOM      2  N   UNL     1      36.196 -22.992 -15.444  0.00  0.00    -0.248 NA
ATOM      3  N   UNL     1      36.228 -22.010 -17.645  0.00  0.00    -0.233 NA
ATOM      4  C   UNL     1      34.177 -22.913 -16.738  0.00  0.00    +0.117 C 
ATOM      5  C   UNL     1      34.884 -23.256 -15.573  0.00  0.00    +0.067 C 
ATOM      6  C   UNL     1      34.914 -22.289 -17.741  0.00  0.00    +0.115 C 
ATOM      7  C   UNL     1      32.806 -23.194 -16.861  0.00  0.00    +0.001 C 
ATOM      8  C   UNL     1      32.127 -23.821 -15.821  0.00  0.00    +0.047 C 
ATOM      9  C   UNL     1      34.179 -23.882 -14.547  0.00  0.00    +0.016 C 
ATOM     10  C   UNL     1      32.815 -24.165 -14.662  0.00  0.00    +0.016 C 
ATOM     11  C   UNL     1      36.796 -22.383 -16.487  0.00  0.00    +0.251 C 
ATOM     12  H   UNL     1      33.446 -22.406 -19.165  0.00  0.00    +0.153 HD
ENDROOT
BRANCH   1  13
ATOM     13  C   UNL     1      34.652 -20.941 -19.852  0.00  0.00    +0.049 C 
ATOM     14  C   UNL     1      33.695 -20.245 -20.616  0.00  0.00    +0.015 C 
ATOM     15  C   UNL     1      36.011 -20.620 -20.040  0.00  0.00    +0.015 C 
ATOM     16  C   UNL     1      34.080 -19.267 -21.531  0.00  0.00    +0.001 C 
ATOM     17  C   UNL     1      36.396 -19.640 -20.956  0.00  0.00    +0.001 C 
ATOM     18  C   UNL     1      35.430 -18.964 -21.702  0.00  0.00    +0.000 C 
ENDBRANCH   1  13
BRANCH   8  20
ATOM     19  O   UNL     1      29.755 -22.519 -14.519  0.00  0.00    -0.270 OA
ATOM     20  N   UNL     1      30.766 -24.101 -15.937  0.00  0.00    -0.281 N 
ATOM     21  C   UNL     1      29.694 -23.457 -15.303  0.00  0.00    +0.250 C 
ATOM     22  H   UNL     1      30.529 -24.843 -16.540  0.00  0.00    +0.155 HD
BRANCH  21  23
ATOM     23  C   UNL     1      28.384 -24.058 -15.691  0.00  0.00    +0.058 C 
ATOM     24  C   UNL     1      27.837 -23.783 -16.880  0.00  0.00    +0.005 C 
ENDBRANCH  21  23
ENDBRANCH   8  20
TORSDOF 3
ENDMDL
MODEL 5
REMARK VINA RESULT:     -10.3      7.242     11.096
REMARK  Name = 10401956
REMARK  3 active torsions:
REMARK  status: ('A' for Active; 'I' for Inactive)
REMARK    1  A    between atoms: N_1  and  C_13
REMARK    2  A    between atoms: C_8  and  N_20
REMARK    3  A    between atoms: C_21  and  C_23
REMARK                            x       y       z     vdW  Elec       q    Type
REMARK                         _______ _______ _______ _____ _____    ______ ____
ROOT
ATOM      1  N   UNL     1      34.634 -17.830 -22.665  0.00  0.00    -0.301 N 
ATOM      2  N   UNL     1      33.343 -18.057 -26.591  0.00  0.00    -0.248 NA
ATOM      3  N   UNL     1      34.192 -19.104 -24.593  0.00  0.00    -0.233 NA
ATOM      4  C   UNL     1      33.781 -16.722 -24.647  0.00  0.00    +0.117 C 
ATOM      5  C   UNL     1      33.354 -16.860 -25.978  0.00  0.00    +0.067 C 
ATOM      6  C   UNL     1      34.189 -17.890 -24.009  0.00  0.00    +0.115 C 
ATOM      7  C   UNL     1      33.788 -15.466 -24.016  0.00  0.00    +0.001 C 
ATOM      8  C   UNL     1      33.367 -14.336 -24.711  0.00  0.00    +0.047 C 
ATOM      9  C   UNL     1      32.938 -15.713 -26.649  0.00  0.00    +0.016 C 
ATOM     10  C   UNL     1      32.942 -14.460 -26.029  0.00  0.00    +0.016 C 
ATOM     11  C   UNL     1      33.763 -19.114 -25.865  0.00  0.00    +0.251 C 
ATOM     12  H   UNL     1      34.963 -16.954 -22.360  0.00  0.00    +0.153 HD
ENDROOT
BRANCH   1  13
ATOM     13  C   UNL     1      34.663 -18.847 -21.728  0.00  0.00    +0.049 C 
ATOM     14  C   UNL     1      35.880 -19.277 -21.162  0.00  0.00    +0.015 C 
ATOM     15  C   UNL     1      33.477 -19.482 -21.311  0.00  0.00    +0.015 C 
ATOM     16  C   UNL     1      35.909 -20.302 -20.218  0.00  0.00    +0.001 C 
ATOM     17  C   UNL     1      33.508 -20.509 -20.366  0.00  0.00    +0.001 C 
ATOM     18  C   UNL     1      34.724 -20.918 -19.820  0.00  0.00    +0.000 C 
ENDBRANCH   1  13
BRANCH   8  20
ATOM     19  O   UNL     1      34.059 -11.625 -25.801  0.00  0.00    -0.270 OA
ATOM     20  N   UNL     1      33.371 -13.088 -24.089  0.00  0.00    -0.281 N 
ATOM     21  C   UNL     1      33.705 -11.845 -24.649  0.00  0.00    +0.250 C 
ATOM     22  H   UNL     1      33.108 -13.077 -23.141  0.00  0.00    +0.155 HD
BRANCH  21  23
ATOM     23  C   UNL     1      33.584 -10.743 -23.651  0.00  0.00    +0.058 C 
ATOM     24  C   UNL     1      32.520  -9.933 -23.660  0.00  0.00    +0.005 C 
ENDBRANCH  21  23
ENDBRANCH   8  20
TORSDOF 3
ENDMDL
MODEL 6
REMARK VINA RESULT:     -10.3      7.265     11.151
REMARK  Name = 10401956
REMARK  3 active torsions:
REMARK  status: ('A' for Active; 'I' for Inactive)
REMARK    1  A    between atoms: N_1  and  C_13
REMARK    2  A    between atoms: C_8  and  N_20
REMARK    3  A    between atoms: C_21  and  C_23
REMARK                            x       y       z     vdW  Elec       q    Type
REMARK                         _______ _______ _______ _____ _____    ______ ____
ROOT
ATOM      1  N   UNL     1      34.646 -17.796 -22.677  0.00  0.00    -0.301 N 
ATOM      2  N   UNL     1      33.338 -18.020 -26.597  0.00  0.00    -0.248 NA
ATOM      3  N   UNL     1      34.199 -19.067 -24.606  0.00  0.00    -0.233 NA
ATOM      4  C   UNL     1      33.780 -16.687 -24.653  0.00  0.00    +0.117 C 
ATOM      5  C   UNL     1      33.347 -16.824 -25.982  0.00  0.00    +0.067 C 
ATOM      6  C   UNL     1      34.195 -17.855 -24.019  0.00  0.00    +0.115 C 
ATOM      7  C   UNL     1      33.785 -15.432 -24.019  0.00  0.00    +0.001 C 
ATOM      8  C   UNL     1      33.357 -14.303 -24.709  0.00  0.00    +0.047 C 
ATOM      9  C   UNL     1      32.924 -15.677 -26.649  0.00  0.00    +0.016 C 
ATOM     10  C   UNL     1      32.926 -14.425 -26.025  0.00  0.00    +0.016 C 
ATOM     11  C   UNL     1      33.764 -19.076 -25.875  0.00  0.00    +0.251 C 
ATOM     12  H   UNL     1      34.973 -16.919 -22.371  0.00  0.00    +0.153 HD
ENDROOT
BRANCH   1  13
ATOM     13  C   UNL     1      34.684 -18.815 -21.742  0.00  0.00    +0.049 C 
ATOM     14  C   UNL     1      33.503 -19.456 -21.320  0.00  0.00    +0.015 C 
ATOM     15  C   UNL     1      35.905 -19.239 -21.183  0.00  0.00    +0.015 C 
ATOM     16  C   UNL     1      33.541 -20.481 -20.376  0.00  0.00    +0.001 C 
ATOM     17  C   UNL     1      35.942 -20.265 -20.238  0.00  0.00    +0.001 C 
ATOM     18  C   UNL     1      34.760 -20.886 -19.835  0.00  0.00    +0.000 C 
ENDBRANCH   1  13
BRANCH   8  20
ATOM     19  O   UNL     1      34.058 -11.590 -25.790  0.00  0.00    -0.270 OA
ATOM     20  N   UNL     1      33.360 -13.055 -24.085  0.00  0.00    -0.281 N 
ATOM     21  C   UNL     1      33.698 -11.812 -24.641  0.00  0.00    +0.250 C 
ATOM     22  H   UNL     1      33.091 -13.046 -23.138  0.00  0.00    +0.155 HD
BRANCH  21  23
ATOM     23  C   UNL     1      33.573 -10.712 -23.642  0.00  0.00    +0.058 C 
ATOM     24  C   UNL     1      32.528  -9.878 -23.676  0.00  0.00    +0.005 C 
ENDBRANCH  21  23
ENDBRANCH   8  20
TORSDOF 3
ENDMDL
MODEL 7
REMARK VINA RESULT:     -10.2      7.690     11.714
REMARK  Name = 10401956
REMARK  3 active torsions:
REMARK  status: ('A' for Active; 'I' for Inactive)
REMARK    1  A    between atoms: N_1  and  C_13
REMARK    2  A    between atoms: C_8  and  N_20
REMARK    3  A    between atoms: C_21  and  C_23
REMARK                            x       y       z     vdW  Elec       q    Type
REMARK                         _______ _______ _______ _____ _____    ______ ____
ROOT
ATOM      1  N   UNL     1      34.444 -17.388 -23.957  0.00  0.00    -0.301 N 
ATOM      2  N   UNL     1      31.812 -17.957 -27.100  0.00  0.00    -0.248 NA
ATOM      3  N   UNL     1      33.169 -18.830 -25.310  0.00  0.00    -0.233 NA
ATOM      4  C   UNL     1      33.097 -16.453 -25.744  0.00  0.00    +0.117 C 
ATOM      5  C   UNL     1      32.206 -16.707 -26.800  0.00  0.00    +0.067 C 
ATOM      6  C   UNL     1      33.542 -17.565 -25.036  0.00  0.00    +0.115 C 
ATOM      7  C   UNL     1      33.501 -15.142 -25.439  0.00  0.00    +0.001 C 
ATOM      8  C   UNL     1      33.018 -14.073 -26.187  0.00  0.00    +0.047 C 
ATOM      9  C   UNL     1      31.738 -15.618 -27.532  0.00  0.00    +0.016 C 
ATOM     10  C   UNL     1      32.135 -14.311 -27.234  0.00  0.00    +0.016 C 
ATOM     11  C   UNL     1      32.315 -18.950 -26.339  0.00  0.00    +0.251 C 
ATOM     12  H   UNL     1      34.977 -16.560 -23.974  0.00  0.00    +0.153 HD
ENDROOT
BRANCH   1  13
ATOM     13  C   UNL     1      34.668 -18.230 -22.883  0.00  0.00    +0.049 C 
ATOM     14  C   UNL     1      33.630 -19.017 -22.348  0.00  0.00    +0.015 C 
ATOM     15  C   UNL     1      35.944 -18.323 -22.291  0.00  0.00    +0.015 C 
ATOM     16  C   UNL     1      33.857 -19.864 -21.264  0.00  0.00    +0.001 C 
ATOM     17  C   UNL     1      36.169 -19.171 -21.206  0.00  0.00    +0.001 C 
ATOM     18  C   UNL     1      35.126 -19.942 -20.693  0.00  0.00    +0.000 C 
ENDBRANCH   1  13
BRANCH   8  20
ATOM     19  O   UNL     1      32.642 -12.449 -23.689  0.00  0.00    -0.270 OA
ATOM     20  N   UNL     1      33.416 -12.770 -25.889  0.00  0.00    -0.281 N 
ATOM     21  C   UNL     1      33.213 -12.056 -24.698  0.00  0.00    +0.250 C 
ATOM     22  H   UNL     1      33.899 -12.292 -26.602  0.00  0.00    +0.155 HD
BRANCH  21  23
ATOM     23  C   UNL     1      33.792 -10.683 -24.776  0.00  0.00    +0.058 C 
ATOM     24  C   UNL     1      34.960 -10.471 -25.392  0.00  0.00    +0.005 C 
ENDBRANCH  21  23
ENDBRANCH   8  20
TORSDOF 3
ENDMDL
MODEL 8
REMARK VINA RESULT:     -10.1      8.753     12.576
REMARK  Name = 10401956
REMARK  3 active torsions:
REMARK  status: ('A' for Active; 'I' for Inactive)
REMARK    1  A    between atoms: N_1  and  C_13
REMARK    2  A    between atoms: C_8  and  N_20
REMARK    3  A    between atoms: C_21  and  C_23
REMARK                            x       y       z     vdW  Elec       q    Type
REMARK                         _______ _______ _______ _____ _____    ______ ____
ROOT
ATOM      1  N   UNL     1      33.573 -12.585 -24.342  0.00  0.00    -0.301 N 
ATOM      2  N   UNL     1      32.159 -14.868 -27.491  0.00  0.00    -0.248 NA
ATOM      3  N   UNL     1      32.412 -12.744 -26.382  0.00  0.00    -0.233 NA
ATOM      4  C   UNL     1      33.349 -14.750 -25.411  0.00  0.00    +0.117 C 
ATOM      5  C   UNL     1      32.845 -15.473 -26.505  0.00  0.00    +0.067 C 
ATOM      6  C   UNL     1      33.096 -13.381 -25.412  0.00  0.00    +0.115 C 
ATOM      7  C   UNL     1      34.065 -15.393 -24.387  0.00  0.00    +0.001 C 
ATOM      8  C   UNL     1      34.284 -16.765 -24.447  0.00  0.00    +0.047 C 
ATOM      9  C   UNL     1      33.079 -16.846 -26.539  0.00  0.00    +0.016 C 
ATOM     10  C   UNL     1      33.790 -17.493 -25.524  0.00  0.00    +0.016 C 
ATOM     11  C   UNL     1      31.980 -13.536 -27.375  0.00  0.00    +0.251 C 
ATOM     12  H   UNL     1      33.747 -13.060 -23.496  0.00  0.00    +0.153 HD
ENDROOT
BRANCH   1  13
ATOM     13  C   UNL     1      33.825 -11.225 -24.333  0.00  0.00    +0.049 C 
ATOM     14  C   UNL     1      34.940 -10.690 -25.008  0.00  0.00    +0.015 C 
ATOM     15  C   UNL     1      32.975 -10.335 -23.647  0.00  0.00    +0.015 C 
ATOM     16  C   UNL     1      35.195  -9.319 -24.998  0.00  0.00    +0.001 C 
ATOM     17  C   UNL     1      33.232  -8.963 -23.637  0.00  0.00    +0.001 C 
ATOM     18  C   UNL     1      34.341  -8.456 -24.313  0.00  0.00    +0.000 C 
ENDBRANCH   1  13
BRANCH   8  20
ATOM     19  O   UNL     1      33.431 -18.929 -22.547  0.00  0.00    -0.270 OA
ATOM     20  N   UNL     1      34.994 -17.409 -23.433  0.00  0.00    -0.281 N 
ATOM     21  C   UNL     1      34.544 -18.419 -22.571  0.00  0.00    +0.250 C 
ATOM     22  H   UNL     1      35.926 -17.117 -23.308  0.00  0.00    +0.155 HD
BRANCH  21  23
ATOM     23  C   UNL     1      35.612 -18.845 -21.620  0.00  0.00    +0.058 C 
ATOM     24  C   UNL     1      35.430 -19.903 -20.823  0.00  0.00    +0.005 C 
ENDBRANCH  21  23
ENDBRANCH   8  20
TORSDOF 3
ENDMDL
MODEL 9
REMARK VINA RESULT:     -10.0      7.157     10.909
REMARK  Name = 10401956
REMARK  3 active torsions:
REMARK  status: ('A' for Active; 'I' for Inactive)
REMARK    1  A    between atoms: N_1  and  C_13
REMARK    2  A    between atoms: C_8  and  N_20
REMARK    3  A    between atoms: C_21  and  C_23
REMARK                            x       y       z     vdW  Elec       q    Type
REMARK                         _______ _______ _______ _____ _____    ______ ____
ROOT
ATOM      1  N   UNL     1      34.731 -17.111 -22.670  0.00  0.00    -0.301 N 
ATOM      2  N   UNL     1      33.557 -16.918 -26.634  0.00  0.00    -0.248 NA
ATOM      3  N   UNL     1      34.439 -18.150 -24.760  0.00  0.00    -0.233 NA
ATOM      4  C   UNL     1      33.839 -15.821 -24.519  0.00  0.00    +0.117 C 
ATOM      5  C   UNL     1      33.457 -15.815 -25.871  0.00  0.00    +0.067 C 
ATOM      6  C   UNL     1      34.325 -17.028 -24.024  0.00  0.00    +0.115 C 
ATOM      7  C   UNL     1      33.729 -14.662 -23.731  0.00  0.00    +0.001 C 
ATOM      8  C   UNL     1      33.236 -13.486 -24.288  0.00  0.00    +0.047 C 
ATOM      9  C   UNL     1      32.965 -14.625 -26.402  0.00  0.00    +0.016 C 
ATOM     10  C   UNL     1      32.853 -13.468 -25.625  0.00  0.00    +0.016 C 
ATOM     11  C   UNL     1      34.043 -18.025 -26.036  0.00  0.00    +0.251 C 
ATOM     12  H   UNL     1      34.981 -16.260 -22.242  0.00  0.00    +0.153 HD
ENDROOT
BRANCH   1  13
ATOM     13  C   UNL     1      34.821 -18.237 -21.871  0.00  0.00    +0.049 C 
ATOM     14  C   UNL     1      36.065 -18.688 -21.390  0.00  0.00    +0.015 C 
ATOM     15  C   UNL     1      33.668 -18.966 -21.516  0.00  0.00    +0.015 C 
ATOM     16  C   UNL     1      36.155 -19.823 -20.585  0.00  0.00    +0.001 C 
ATOM     17  C   UNL     1      33.760 -20.103 -20.712  0.00  0.00    +0.001 C 
ATOM     18  C   UNL     1      35.003 -20.531 -20.246  0.00  0.00    +0.000 C 
ENDBRANCH   1  13
BRANCH   8  20
ATOM     19  O   UNL     1      31.214 -12.740 -22.197  0.00  0.00    -0.270 OA
ATOM     20  N   UNL     1      33.124 -12.334 -23.511  0.00  0.00    -0.281 N 
ATOM     21  C   UNL     1      32.154 -12.035 -22.543  0.00  0.00    +0.250 C 
ATOM     22  H   UNL     1      33.811 -11.644 -23.660  0.00  0.00    +0.155 HD
BRANCH  21  23
ATOM     23  C   UNL     1      32.382 -10.693 -21.931  0.00  0.00    +0.058 C 
ATOM     24  C   UNL     1      31.440 -10.123 -21.174  0.00  0.00    +0.005 C 
ENDBRANCH  21  23
ENDBRANCH   8  20
TORSDOF 3
ENDMDL
