MODEL 1
REMARK VINA RESULT:     -12.3      0.000      0.000
REMARK  Name = 448890
REMARK  6 active torsions:
REMARK  status: ('A' for Active; 'I' for Inactive)
REMARK    1  A    between atoms: C_1  and  C_2
REMARK    2  A    between atoms: C_1  and  C_17
REMARK    3  A    between atoms: C_2  and  C_3
REMARK    4  A    between atoms: C_3  and  N_4
REMARK    5  A    between atoms: C_8  and  C_11
REMARK    6  A    between atoms: C_17  and  N_21
REMARK                            x       y       z     vdW  Elec       q    Type
REMARK                         _______ _______ _______ _____ _____    ______ ____
ROOT
ATOM      1  C   UNL     1      33.411 -23.554 -16.420  0.00  0.00    +0.022 C 
ENDROOT
BRANCH   1   2
ATOM      2  C   UNL     1      33.353 -22.810 -17.759  0.00  0.00    -0.021 C 
BRANCH   2   3
ATOM      3  C   UNL     1      34.755 -22.441 -18.243  0.00  0.00    -0.077 C 
BRANCH   3   4
ATOM      4  N   UNL     1      34.704 -21.234 -19.067  0.00  0.00    +0.390 N 
ATOM      5  C   UNL     1      35.837 -21.181 -19.996  0.00  0.00    -0.072 C 
ATOM      6  C   UNL     1      33.430 -21.154 -19.796  0.00  0.00    -0.051 C 
ATOM      7  C   UNL     1      35.849 -19.830 -20.727  0.00  0.00    +0.003 C 
ATOM      8  C   UNL     1      34.497 -19.449 -21.288  0.00  0.00    -0.031 C 
ATOM      9  C   UNL     1      33.390 -20.075 -20.845  0.00  0.00    -0.053 C 
ATOM     10  H   UNL     1      34.770 -20.428 -18.445  0.00  0.00    -0.079 HD
BRANCH   8  11
ATOM     11  C   UNL     1      34.437 -18.382 -22.314  0.00  0.00    -0.004 C 
ATOM     12  C   UNL     1      33.937 -18.661 -23.588  0.00  0.00    -0.000 C 
ATOM     13  C   UNL     1      34.878 -17.092 -22.011  0.00  0.00    -0.000 C 
ATOM     14  C   UNL     1      33.880 -17.656 -24.554  0.00  0.00    -0.000 C 
ATOM     15  C   UNL     1      34.821 -16.087 -22.977  0.00  0.00    -0.000 C 
ATOM     16  C   UNL     1      34.322 -16.369 -24.248  0.00  0.00    -0.000 C 
ENDBRANCH   8  11
ENDBRANCH   3   4
ENDBRANCH   2   3
ENDBRANCH   1   2
BRANCH   1  17
ATOM     17  C   UNL     1      34.187 -22.785 -15.355  0.00  0.00    +0.110 C 
BRANCH  17  21
ATOM     18  F   UNL     1      38.795 -26.021 -12.906  0.00  0.00    -0.204 F 
ATOM     19  O   UNL     1      32.881 -23.896 -13.122  0.00  0.00    -0.246 OA
ATOM     20  O   UNL     1      36.591 -26.142 -11.667  0.00  0.00    -0.267 OA
ATOM     21  N   UNL     1      34.827 -23.670 -14.385  0.00  0.00    -0.281 N 
ATOM     22  N   UNL     1      34.751 -25.000 -12.430  0.00  0.00    -0.274 N 
ATOM     23  C   UNL     1      36.204 -24.013 -14.556  0.00  0.00    +0.071 A 
ATOM     24  C   UNL     1      34.071 -24.162 -13.312  0.00  0.00    +0.330 A 
ATOM     25  C   UNL     1      36.835 -24.860 -13.637  0.00  0.00    +0.099 A 
ATOM     26  C   UNL     1      36.966 -23.523 -15.630  0.00  0.00    +0.018 C 
ATOM     27  C   UNL     1      36.075 -25.398 -12.494  0.00  0.00    +0.265 A 
ATOM     28  C   UNL     1      38.184 -25.210 -13.781  0.00  0.00    +0.146 C 
ATOM     29  C   UNL     1      38.311 -23.871 -15.777  0.00  0.00    +0.004 C 
ATOM     30  C   UNL     1      38.920 -24.714 -14.853  0.00  0.00    +0.030 C 
ATOM     31  H   UNL     1      34.228 -25.350 -11.672  0.00  0.00    +0.173 HD
ENDBRANCH  17  21
ENDBRANCH   1  17
TORSDOF 6
ENDMDL
MODEL 2
REMARK VINA RESULT:     -12.1      1.763      2.631
REMARK  Name = 448890
REMARK  6 active torsions:
REMARK  status: ('A' for Active; 'I' for Inactive)
REMARK    1  A    between atoms: C_1  and  C_2
REMARK    2  A    between atoms: C_1  and  C_17
REMARK    3  A    between atoms: C_2  and  C_3
REMARK    4  A    between atoms: C_3  and  N_4
REMARK    5  A    between atoms: C_8  and  C_11
REMARK    6  A    between atoms: C_17  and  N_21
REMARK                            x       y       z     vdW  Elec       q    Type
REMARK                         _______ _______ _______ _____ _____    ______ ____
ROOT
ATOM      1  C   UNL     1      33.449 -23.699 -15.751  0.00  0.00    +0.022 C 
ENDROOT
BRANCH   1   2
ATOM      2  C   UNL     1      32.700 -23.016 -16.901  0.00  0.00    -0.021 C 
BRANCH   2   3
ATOM      3  C   UNL     1      33.401 -23.261 -18.236  0.00  0.00    -0.077 C 
BRANCH   3   4
ATOM      4  N   UNL     1      33.714 -21.989 -18.885  0.00  0.00    +0.390 N 
ATOM      5  C   UNL     1      34.846 -22.130 -19.806  0.00  0.00    -0.072 C 
ATOM      6  C   UNL     1      32.536 -21.460 -19.588  0.00  0.00    -0.051 C 
ATOM      7  C   UNL     1      35.256 -20.750 -20.343  0.00  0.00    +0.003 C 
ATOM      8  C   UNL     1      34.082 -19.937 -20.838  0.00  0.00    -0.031 C 
ATOM      9  C   UNL     1      32.830 -20.282 -20.478  0.00  0.00    -0.053 C 
ATOM     10  H   UNL     1      33.981 -21.324 -18.159  0.00  0.00    -0.079 HD
BRANCH   8  11
ATOM     11  C   UNL     1      34.352 -18.767 -21.707  0.00  0.00    -0.004 C 
ATOM     12  C   UNL     1      34.759 -17.555 -21.145  0.00  0.00    -0.000 C 
ATOM     13  C   UNL     1      34.203 -18.873 -23.092  0.00  0.00    -0.000 C 
ATOM     14  C   UNL     1      35.014 -16.454 -21.964  0.00  0.00    -0.000 C 
ATOM     15  C   UNL     1      34.457 -17.773 -23.910  0.00  0.00    -0.000 C 
ATOM     16  C   UNL     1      34.863 -16.563 -23.347  0.00  0.00    -0.000 C 
ENDBRANCH   8  11
ENDBRANCH   3   4
ENDBRANCH   2   3
ENDBRANCH   1   2
BRANCH   1  17
ATOM     17  C   UNL     1      34.423 -22.760 -15.046  0.00  0.00    +0.110 C 
BRANCH  17  21
ATOM     18  F   UNL     1      39.409 -25.945 -13.400  0.00  0.00    -0.204 F 
ATOM     19  O   UNL     1      36.226 -21.929 -17.043  0.00  0.00    -0.246 OA
ATOM     20  O   UNL     1      39.671 -24.481 -15.447  0.00  0.00    -0.267 OA
ATOM     21  N   UNL     1      35.807 -23.218 -15.147  0.00  0.00    -0.281 N 
ATOM     22  N   UNL     1      37.917 -23.214 -16.217  0.00  0.00    -0.274 N 
ATOM     23  C   UNL     1      36.306 -24.147 -14.182  0.00  0.00    +0.071 A 
ATOM     24  C   UNL     1      36.610 -22.732 -16.188  0.00  0.00    +0.330 A 
ATOM     25  C   UNL     1      37.630 -24.598 -14.263  0.00  0.00    +0.099 A 
ATOM     26  C   UNL     1      35.506 -24.638 -13.137  0.00  0.00    +0.018 C 
ATOM     27  C   UNL     1      38.506 -24.110 -15.342  0.00  0.00    +0.265 A 
ATOM     28  C   UNL     1      38.143 -25.510 -13.330  0.00  0.00    +0.146 C 
ATOM     29  C   UNL     1      36.015 -25.547 -12.206  0.00  0.00    +0.004 C 
ATOM     30  C   UNL     1      37.333 -25.983 -12.302  0.00  0.00    +0.030 C 
ATOM     31  H   UNL     1      38.488 -22.878 -16.945  0.00  0.00    +0.173 HD
ENDBRANCH  17  21
ENDBRANCH   1  17
TORSDOF 6
ENDMDL
MODEL 3
REMARK VINA RESULT:     -11.9      7.961     12.951
REMARK  Name = 448890
REMARK  6 active torsions:
REMARK  status: ('A' for Active; 'I' for Inactive)
REMARK    1  A    between atoms: C_1  and  C_2
REMARK    2  A    between atoms: C_1  and  C_17
REMARK    3  A    between atoms: C_2  and  C_3
REMARK    4  A    between atoms: C_3  and  N_4
REMARK    5  A    between atoms: C_8  and  C_11
REMARK    6  A    between atoms: C_17  and  N_21
REMARK                            x       y       z     vdW  Elec       q    Type
REMARK                         _______ _______ _______ _____ _____    ______ ____
ROOT
ATOM      1  C   UNL     1      33.059 -14.274 -25.025  0.00  0.00    +0.022 C 
ENDROOT
BRANCH   1   2
ATOM      2  C   UNL     1      33.354 -15.772 -24.899  0.00  0.00    -0.021 C 
BRANCH   2   3
ATOM      3  C   UNL     1      34.826 -16.017 -24.568  0.00  0.00    -0.077 C 
BRANCH   3   4
ATOM      4  N   UNL     1      34.957 -17.141 -23.643  0.00  0.00    +0.390 N 
ATOM      5  C   UNL     1      34.852 -16.693 -22.251  0.00  0.00    -0.072 C 
ATOM      6  C   UNL     1      33.951 -18.174 -23.932  0.00  0.00    -0.051 C 
ATOM      7  C   UNL     1      35.159 -17.863 -21.303  0.00  0.00    +0.003 C 
ATOM      8  C   UNL     1      34.411 -19.126 -21.662  0.00  0.00    -0.031 C 
ATOM      9  C   UNL     1      33.857 -19.250 -22.884  0.00  0.00    -0.053 C 
ATOM     10  H   UNL     1      35.883 -17.548 -23.773  0.00  0.00    -0.079 HD
BRANCH   8  11
ATOM     11  C   UNL     1      34.317 -20.202 -20.647  0.00  0.00    -0.004 C 
ATOM     12  C   UNL     1      35.477 -20.765 -20.112  0.00  0.00    -0.000 C 
ATOM     13  C   UNL     1      33.066 -20.656 -20.220  0.00  0.00    -0.000 C 
ATOM     14  C   UNL     1      35.389 -21.777 -19.157  0.00  0.00    -0.000 C 
ATOM     15  C   UNL     1      32.978 -21.668 -19.265  0.00  0.00    -0.000 C 
ATOM     16  C   UNL     1      34.139 -22.229 -18.732  0.00  0.00    -0.000 C 
ENDBRANCH   8  11
ENDBRANCH   3   4
ENDBRANCH   2   3
ENDBRANCH   1   2
BRANCH   1  17
ATOM     17  C   UNL     1      33.836 -13.436 -24.013  0.00  0.00    +0.110 C 
BRANCH  17  21
ATOM     18  F   UNL     1      30.637  -8.981 -21.252  0.00  0.00    -0.204 F 
ATOM     19  O   UNL     1      34.217 -11.339 -25.851  0.00  0.00    -0.246 OA
ATOM     20  O   UNL     1      31.736  -8.345 -23.442  0.00  0.00    -0.267 OA
ATOM     21  N   UNL     1      33.279 -12.095 -23.857  0.00  0.00    -0.281 N 
ATOM     22  N   UNL     1      32.974  -9.878 -24.622  0.00  0.00    -0.274 N 
ATOM     23  C   UNL     1      32.484 -11.799 -22.706  0.00  0.00    +0.071 A 
ATOM     24  C   UNL     1      33.539 -11.132 -24.841  0.00  0.00    +0.330 A 
ATOM     25  C   UNL     1      31.942 -10.519 -22.539  0.00  0.00    +0.099 A 
ATOM     26  C   UNL     1      32.221 -12.761 -21.715  0.00  0.00    +0.018 C 
ATOM     27  C   UNL     1      32.192  -9.479 -23.552  0.00  0.00    +0.265 A 
ATOM     28  C   UNL     1      31.160 -10.203 -21.419  0.00  0.00    +0.146 C 
ATOM     29  C   UNL     1      31.441 -12.449 -20.598  0.00  0.00    +0.004 C 
ATOM     30  C   UNL     1      30.911 -11.171 -20.450  0.00  0.00    +0.030 C 
ATOM     31  H   UNL     1      33.151  -9.194 -25.309  0.00  0.00    +0.173 HD
ENDBRANCH  17  21
ENDBRANCH   1  17
TORSDOF 6
ENDMDL
MODEL 4
REMARK VINA RESULT:     -11.6      7.915     13.537
REMARK  Name = 448890
REMARK  6 active torsions:
REMARK  status: ('A' for Active; 'I' for Inactive)
REMARK    1  A    between atoms: C_1  and  C_2
REMARK    2  A    between atoms: C_1  and  C_17
REMARK    3  A    between atoms: C_2  and  C_3
REMARK    4  A    between atoms: C_3  and  N_4
REMARK    5  A    between atoms: C_8  and  C_11
REMARK    6  A    between atoms: C_17  and  N_21
REMARK                            x       y       z     vdW  Elec       q    Type
REMARK                         _______ _______ _______ _____ _____    ______ ____
ROOT
ATOM      1  C   UNL     1      33.223 -13.715 -24.761  0.00  0.00    +0.022 C 
ENDROOT
BRANCH   1   2
ATOM      2  C   UNL     1      33.348 -15.225 -24.532  0.00  0.00    -0.021 C 
BRANCH   2   3
ATOM      3  C   UNL     1      34.814 -15.648 -24.441  0.00  0.00    -0.077 C 
BRANCH   3   4
ATOM      4  N   UNL     1      34.954 -16.803 -23.557  0.00  0.00    +0.390 N 
ATOM      5  C   UNL     1      34.734 -16.427 -22.157  0.00  0.00    -0.072 C 
ATOM      6  C   UNL     1      34.034 -17.879 -23.956  0.00  0.00    -0.051 C 
ATOM      7  C   UNL     1      35.051 -17.619 -21.241  0.00  0.00    +0.003 C 
ATOM      8  C   UNL     1      34.406 -18.906 -21.702  0.00  0.00    -0.031 C 
ATOM      9  C   UNL     1      33.940 -19.006 -22.963  0.00  0.00    -0.053 C 
ATOM     10  H   UNL     1      35.910 -17.149 -23.642  0.00  0.00    -0.079 HD
BRANCH   8  11
ATOM     11  C   UNL     1      34.313 -20.031 -20.741  0.00  0.00    -0.004 C 
ATOM     12  C   UNL     1      35.474 -20.634 -20.254  0.00  0.00    -0.000 C 
ATOM     13  C   UNL     1      33.064 -20.491 -20.319  0.00  0.00    -0.000 C 
ATOM     14  C   UNL     1      35.387 -21.692 -19.350  0.00  0.00    -0.000 C 
ATOM     15  C   UNL     1      32.977 -21.549 -19.415  0.00  0.00    -0.000 C 
ATOM     16  C   UNL     1      34.138 -22.150 -18.930  0.00  0.00    -0.000 C 
ENDBRANCH   8  11
ENDBRANCH   3   4
ENDBRANCH   2   3
ENDBRANCH   1   2
BRANCH   1  17
ATOM     17  C   UNL     1      33.901 -12.898 -23.667  0.00  0.00    +0.110 C 
BRANCH  17  21
ATOM     18  F   UNL     1      33.159  -6.854 -24.460  0.00  0.00    -0.204 F 
ATOM     19  O   UNL     1      31.655 -12.454 -22.029  0.00  0.00    -0.246 OA
ATOM     20  O   UNL     1      31.490  -7.970 -22.918  0.00  0.00    -0.267 OA
ATOM     21  N   UNL     1      33.270 -11.595 -23.473  0.00  0.00    -0.281 N 
ATOM     22  N   UNL     1      31.607 -10.224 -22.497  0.00  0.00    -0.274 N 
ATOM     23  C   UNL     1      33.806 -10.453 -24.145  0.00  0.00    +0.071 A 
ATOM     24  C   UNL     1      32.153 -11.499 -22.631  0.00  0.00    +0.330 A 
ATOM     25  C   UNL     1      33.213  -9.196 -23.972  0.00  0.00    +0.099 A 
ATOM     26  C   UNL     1      34.925 -10.543 -24.991  0.00  0.00    +0.018 C 
ATOM     27  C   UNL     1      32.038  -9.053 -23.095  0.00  0.00    +0.265 A 
ATOM     28  C   UNL     1      33.719  -8.061 -24.621  0.00  0.00    +0.146 C 
ATOM     29  C   UNL     1      35.431  -9.413 -25.638  0.00  0.00    +0.004 C 
ATOM     30  C   UNL     1      34.829  -8.172 -25.453  0.00  0.00    +0.030 C 
ATOM     31  H   UNL     1      30.821 -10.148 -21.908  0.00  0.00    +0.173 HD
ENDBRANCH  17  21
ENDBRANCH   1  17
TORSDOF 6
ENDMDL
MODEL 5
REMARK VINA RESULT:     -11.6      8.119     13.307
REMARK  Name = 448890
REMARK  6 active torsions:
REMARK  status: ('A' for Active; 'I' for Inactive)
REMARK    1  A    between atoms: C_1  and  C_2
REMARK    2  A    between atoms: C_1  and  C_17
REMARK    3  A    between atoms: C_2  and  C_3
REMARK    4  A    between atoms: C_3  and  N_4
REMARK    5  A    between atoms: C_8  and  C_11
REMARK    6  A    between atoms: C_17  and  N_21
REMARK                            x       y       z     vdW  Elec       q    Type
REMARK                         _______ _______ _______ _____ _____    ______ ____
ROOT
ATOM      1  C   UNL     1      33.949 -13.239 -23.704  0.00  0.00    +0.022 C 
ENDROOT
BRANCH   1   2
ATOM      2  C   UNL     1      33.608 -14.732 -23.777  0.00  0.00    -0.021 C 
BRANCH   2   3
ATOM      3  C   UNL     1      34.821 -15.553 -24.211  0.00  0.00    -0.077 C 
BRANCH   3   4
ATOM      4  N   UNL     1      34.958 -16.739 -23.368  0.00  0.00    +0.390 N 
ATOM      5  C   UNL     1      34.733 -16.412 -21.957  0.00  0.00    -0.072 C 
ATOM      6  C   UNL     1      34.040 -17.800 -23.808  0.00  0.00    -0.051 C 
ATOM      7  C   UNL     1      35.046 -17.636 -21.082  0.00  0.00    +0.003 C 
ATOM      8  C   UNL     1      34.403 -18.906 -21.591  0.00  0.00    -0.031 C 
ATOM      9  C   UNL     1      33.942 -18.961 -22.856  0.00  0.00    -0.053 C 
ATOM     10  H   UNL     1      35.915 -17.082 -23.462  0.00  0.00    -0.079 HD
BRANCH   8  11
ATOM     11  C   UNL     1      34.308 -20.064 -20.671  0.00  0.00    -0.004 C 
ATOM     12  C   UNL     1      33.058 -20.528 -20.256  0.00  0.00    -0.000 C 
ATOM     13  C   UNL     1      35.468 -20.697 -20.217  0.00  0.00    -0.000 C 
ATOM     14  C   UNL     1      32.968 -21.618 -19.390  0.00  0.00    -0.000 C 
ATOM     15  C   UNL     1      35.378 -21.787 -19.351  0.00  0.00    -0.000 C 
ATOM     16  C   UNL     1      34.128 -22.248 -18.938  0.00  0.00    -0.000 C 
ENDBRANCH   8  11
ENDBRANCH   3   4
ENDBRANCH   2   3
ENDBRANCH   1   2
BRANCH   1  17
ATOM     17  C   UNL     1      32.824 -12.354 -24.231  0.00  0.00    +0.110 C 
BRANCH  17  21
ATOM     18  F   UNL     1      31.530  -7.908 -20.198  0.00  0.00    -0.204 F 
ATOM     19  O   UNL     1      34.239 -10.211 -25.384  0.00  0.00    -0.246 OA
ATOM     20  O   UNL     1      33.013  -7.233 -22.135  0.00  0.00    -0.267 OA
ATOM     21  N   UNL     1      32.870 -11.005 -23.674  0.00  0.00    -0.281 N 
ATOM     22  N   UNL     1      33.606  -8.758 -23.747  0.00  0.00    -0.274 N 
ATOM     23  C   UNL     1      32.159 -10.725 -22.465  0.00  0.00    +0.071 A 
ATOM     24  C   UNL     1      33.611 -10.019 -24.339  0.00  0.00    +0.330 A 
ATOM     25  C   UNL     1      32.192  -9.438 -21.915  0.00  0.00    +0.099 A 
ATOM     26  C   UNL     1      31.415 -11.710 -21.793  0.00  0.00    +0.018 C 
ATOM     27  C   UNL     1      32.959  -8.373 -22.585  0.00  0.00    +0.265 A 
ATOM     28  C   UNL     1      31.504  -9.138 -20.731  0.00  0.00    +0.146 C 
ATOM     29  C   UNL     1      30.728 -11.413 -20.613  0.00  0.00    +0.004 C 
ATOM     30  C   UNL     1      30.772 -10.128 -20.082  0.00  0.00    +0.030 C 
ATOM     31  H   UNL     1      34.124  -8.059 -24.207  0.00  0.00    +0.173 HD
ENDBRANCH  17  21
ENDBRANCH   1  17
TORSDOF 6
ENDMDL
MODEL 6
REMARK VINA RESULT:     -11.5      4.893     10.890
REMARK  Name = 448890
REMARK  6 active torsions:
REMARK  status: ('A' for Active; 'I' for Inactive)
REMARK    1  A    between atoms: C_1  and  C_2
REMARK    2  A    between atoms: C_1  and  C_17
REMARK    3  A    between atoms: C_2  and  C_3
REMARK    4  A    between atoms: C_3  and  N_4
REMARK    5  A    between atoms: C_8  and  C_11
REMARK    6  A    between atoms: C_17  and  N_21
REMARK                            x       y       z     vdW  Elec       q    Type
REMARK                         _______ _______ _______ _____ _____    ______ ____
ROOT
ATOM      1  C   UNL     1      33.383 -20.061 -21.023  0.00  0.00    +0.022 C 
ENDROOT
BRANCH   1   2
ATOM      2  C   UNL     1      33.712 -20.963 -19.829  0.00  0.00    -0.021 C 
BRANCH   2   3
ATOM      3  C   UNL     1      35.219 -21.188 -19.707  0.00  0.00    -0.077 C 
BRANCH   3   4
ATOM      4  N   UNL     1      35.513 -22.035 -18.553  0.00  0.00    +0.390 N 
ATOM      5  C   UNL     1      36.444 -21.372 -17.635  0.00  0.00    -0.072 C 
ATOM      6  C   UNL     1      34.275 -22.412 -17.854  0.00  0.00    -0.051 C 
ATOM      7  C   UNL     1      36.863 -22.347 -16.524  0.00  0.00    +0.003 C 
ATOM      8  C   UNL     1      35.690 -23.063 -15.894  0.00  0.00    -0.031 C 
ATOM      9  C   UNL     1      34.500 -23.081 -16.525  0.00  0.00    -0.053 C 
ATOM     10  H   UNL     1      35.961 -22.886 -18.895  0.00  0.00    -0.079 HD
BRANCH   8  11
ATOM     11  C   UNL     1      35.895 -23.737 -14.589  0.00  0.00    -0.004 C 
ATOM     12  C   UNL     1      34.822 -23.910 -13.713  0.00  0.00    -0.000 C 
ATOM     13  C   UNL     1      37.163 -24.201 -14.232  0.00  0.00    -0.000 C 
ATOM     14  C   UNL     1      35.015 -24.544 -12.486  0.00  0.00    -0.000 C 
ATOM     15  C   UNL     1      37.356 -24.835 -13.004  0.00  0.00    -0.000 C 
ATOM     16  C   UNL     1      36.282 -25.007 -12.131  0.00  0.00    -0.000 C 
ENDBRANCH   8  11
ENDBRANCH   3   4
ENDBRANCH   2   3
ENDBRANCH   1   2
BRANCH   1  17
ATOM     17  C   UNL     1      34.620 -19.688 -21.834  0.00  0.00    +0.110 C 
BRANCH  17  21
ATOM     18  F   UNL     1      33.691 -15.146 -25.861  0.00  0.00    -0.204 F 
ATOM     19  O   UNL     1      35.319 -17.469 -20.250  0.00  0.00    -0.246 OA
ATOM     20  O   UNL     1      34.494 -14.432 -23.570  0.00  0.00    -0.267 OA
ATOM     21  N   UNL     1      34.585 -18.304 -22.298  0.00  0.00    -0.281 N 
ATOM     22  N   UNL     1      34.897 -15.988 -21.929  0.00  0.00    -0.274 N 
ATOM     23  C   UNL     1      34.174 -18.027 -23.639  0.00  0.00    +0.071 A 
ATOM     24  C   UNL     1      34.956 -17.281 -21.414  0.00  0.00    +0.330 A 
ATOM     25  C   UNL     1      34.133 -16.706 -24.101  0.00  0.00    +0.099 A 
ATOM     26  C   UNL     1      33.800 -19.048 -24.529  0.00  0.00    +0.018 C 
ATOM     27  C   UNL     1      34.516 -15.603 -23.203  0.00  0.00    +0.265 A 
ATOM     28  C   UNL     1      33.733 -16.408 -25.411  0.00  0.00    +0.146 C 
ATOM     29  C   UNL     1      33.401 -18.754 -25.835  0.00  0.00    +0.004 C 
ATOM     30  C   UNL     1      33.367 -17.435 -26.276  0.00  0.00    +0.030 C 
ATOM     31  H   UNL     1      35.156 -15.263 -21.315  0.00  0.00    +0.173 HD
ENDBRANCH  17  21
ENDBRANCH   1  17
TORSDOF 6
ENDMDL
MODEL 7
REMARK VINA RESULT:     -11.5      7.033     12.660
REMARK  Name = 448890
REMARK  6 active torsions:
REMARK  status: ('A' for Active; 'I' for Inactive)
REMARK    1  A    between atoms: C_1  and  C_2
REMARK    2  A    between atoms: C_1  and  C_17
REMARK    3  A    between atoms: C_2  and  C_3
REMARK    4  A    between atoms: C_3  and  N_4
REMARK    5  A    between atoms: C_8  and  C_11
REMARK    6  A    between atoms: C_17  and  N_21
REMARK                            x       y       z     vdW  Elec       q    Type
REMARK                         _______ _______ _______ _____ _____    ______ ____
ROOT
ATOM      1  C   UNL     1      34.242 -17.638 -25.475  0.00  0.00    +0.022 C 
ENDROOT
BRANCH   1   2
ATOM      2  C   UNL     1      34.467 -18.857 -24.575  0.00  0.00    -0.021 C 
BRANCH   2   3
ATOM      3  C   UNL     1      35.130 -18.454 -23.259  0.00  0.00    -0.077 C 
BRANCH   3   4
ATOM      4  N   UNL     1      34.968 -19.513 -22.265  0.00  0.00    +0.390 N 
ATOM      5  C   UNL     1      35.939 -19.369 -21.176  0.00  0.00    -0.072 C 
ATOM      6  C   UNL     1      33.596 -19.528 -21.737  0.00  0.00    -0.051 C 
ATOM      7  C   UNL     1      35.857 -20.584 -20.239  0.00  0.00    +0.003 C 
ATOM      8  C   UNL     1      34.440 -20.925 -19.838  0.00  0.00    -0.031 C 
ATOM      9  C   UNL     1      33.407 -20.425 -20.543  0.00  0.00    -0.053 C 
ATOM     10  H   UNL     1      35.145 -20.406 -22.727  0.00  0.00    -0.079 HD
BRANCH   8  11
ATOM     11  C   UNL     1      34.234 -21.815 -18.671  0.00  0.00    -0.004 C 
ATOM     12  C   UNL     1      32.991 -22.415 -18.457  0.00  0.00    -0.000 C 
ATOM     13  C   UNL     1      35.283 -22.058 -17.781  0.00  0.00    -0.000 C 
ATOM     14  C   UNL     1      32.797 -23.252 -17.359  0.00  0.00    -0.000 C 
ATOM     15  C   UNL     1      35.089 -22.896 -16.683  0.00  0.00    -0.000 C 
ATOM     16  C   UNL     1      33.846 -23.494 -16.471  0.00  0.00    -0.000 C 
ENDBRANCH   8  11
ENDBRANCH   3   4
ENDBRANCH   2   3
ENDBRANCH   1   2
BRANCH   1  17
ATOM     17  C   UNL     1      32.938 -16.909 -25.161  0.00  0.00    +0.110 C 
BRANCH  17  21
ATOM     18  F   UNL     1      33.177 -10.838 -26.049  0.00  0.00    -0.204 F 
ATOM     19  O   UNL     1      32.077 -16.764 -27.837  0.00  0.00    -0.246 OA
ATOM     20  O   UNL     1      32.410 -12.206 -28.035  0.00  0.00    -0.267 OA
ATOM     21  N   UNL     1      32.801 -15.665 -25.914  0.00  0.00    -0.281 N 
ATOM     22  N   UNL     1      32.256 -14.493 -27.895  0.00  0.00    -0.274 N 
ATOM     23  C   UNL     1      33.116 -14.425 -25.276  0.00  0.00    +0.071 A 
ATOM     24  C   UNL     1      32.362 -15.721 -27.244  0.00  0.00    +0.330 A 
ATOM     25  C   UNL     1      32.991 -13.222 -25.982  0.00  0.00    +0.099 A 
ATOM     26  C   UNL     1      33.557 -14.364 -23.943  0.00  0.00    +0.018 C 
ATOM     27  C   UNL     1      32.532 -13.238 -27.382  0.00  0.00    +0.265 A 
ATOM     28  C   UNL     1      33.295 -11.994 -25.380  0.00  0.00    +0.146 C 
ATOM     29  C   UNL     1      33.861 -13.140 -23.341  0.00  0.00    +0.004 C 
ATOM     30  C   UNL     1      33.729 -11.956 -24.058  0.00  0.00    +0.030 C 
ATOM     31  H   UNL     1      31.948 -14.523 -28.830  0.00  0.00    +0.173 HD
ENDBRANCH  17  21
ENDBRANCH   1  17
TORSDOF 6
ENDMDL
MODEL 8
REMARK VINA RESULT:     -11.4      5.109     10.918
REMARK  Name = 448890
REMARK  6 active torsions:
REMARK  status: ('A' for Active; 'I' for Inactive)
REMARK    1  A    between atoms: C_1  and  C_2
REMARK    2  A    between atoms: C_1  and  C_17
REMARK    3  A    between atoms: C_2  and  C_3
REMARK    4  A    between atoms: C_3  and  N_4
REMARK    5  A    between atoms: C_8  and  C_11
REMARK    6  A    between atoms: C_17  and  N_21
REMARK                            x       y       z     vdW  Elec       q    Type
REMARK                         _______ _______ _______ _____ _____    ______ ____
ROOT
ATOM      1  C   UNL     1      33.842 -19.879 -20.819  0.00  0.00    +0.022 C 
ENDROOT
BRANCH   1   2
ATOM      2  C   UNL     1      34.137 -21.045 -19.870  0.00  0.00    -0.021 C 
BRANCH   2   3
ATOM      3  C   UNL     1      35.627 -21.122 -19.541  0.00  0.00    -0.077 C 
BRANCH   3   4
ATOM      4  N   UNL     1      35.847 -21.998 -18.392  0.00  0.00    +0.390 N 
ATOM      5  C   UNL     1      36.699 -21.351 -17.389  0.00  0.00    -0.072 C 
ATOM      6  C   UNL     1      34.567 -22.408 -17.796  0.00  0.00    -0.051 C 
ATOM      7  C   UNL     1      37.049 -22.351 -16.277  0.00  0.00    +0.003 C 
ATOM      8  C   UNL     1      35.842 -23.098 -15.755  0.00  0.00    -0.031 C 
ATOM      9  C   UNL     1      34.702 -23.111 -16.473  0.00  0.00    -0.053 C 
ATOM     10  H   UNL     1      36.331 -22.833 -18.722  0.00  0.00    -0.079 HD
BRANCH   8  11
ATOM     11  C   UNL     1      35.960 -23.805 -14.458  0.00  0.00    -0.004 C 
ATOM     12  C   UNL     1      34.938 -23.708 -13.511  0.00  0.00    -0.000 C 
ATOM     13  C   UNL     1      37.093 -24.574 -14.178  0.00  0.00    -0.000 C 
ATOM     14  C   UNL     1      35.049 -24.374 -12.290  0.00  0.00    -0.000 C 
ATOM     15  C   UNL     1      37.203 -25.239 -12.957  0.00  0.00    -0.000 C 
ATOM     16  C   UNL     1      36.181 -25.140 -12.013  0.00  0.00    -0.000 C 
ENDBRANCH   8  11
ENDBRANCH   3   4
ENDBRANCH   2   3
ENDBRANCH   1   2
BRANCH   1  17
ATOM     17  C   UNL     1      35.109 -19.270 -21.412  0.00  0.00    +0.110 C 
BRANCH  17  21
ATOM     18  F   UNL     1      33.936 -13.797 -23.938  0.00  0.00    -0.204 F 
ATOM     19  O   UNL     1      34.862 -20.013 -24.116  0.00  0.00    -0.246 OA
ATOM     20  O   UNL     1      34.021 -15.750 -25.545  0.00  0.00    -0.267 OA
ATOM     21  N   UNL     1      34.821 -18.336 -22.498  0.00  0.00    -0.281 N 
ATOM     22  N   UNL     1      34.446 -17.876 -24.788  0.00  0.00    -0.274 N 
ATOM     23  C   UNL     1      34.648 -16.949 -22.199  0.00  0.00    +0.071 A 
ATOM     24  C   UNL     1      34.722 -18.827 -23.808  0.00  0.00    +0.330 A 
ATOM     25  C   UNL     1      34.373 -16.039 -23.227  0.00  0.00    +0.099 A 
ATOM     26  C   UNL     1      34.747 -16.452 -20.888  0.00  0.00    +0.018 C 
ATOM     27  C   UNL     1      34.260 -16.515 -24.617  0.00  0.00    +0.265 A 
ATOM     28  C   UNL     1      34.200 -14.674 -22.960  0.00  0.00    +0.146 C 
ATOM     29  C   UNL     1      34.575 -15.092 -20.619  0.00  0.00    +0.004 C 
ATOM     30  C   UNL     1      34.301 -14.203 -21.654  0.00  0.00    +0.030 C 
ATOM     31  H   UNL     1      34.375 -18.211 -25.711  0.00  0.00    +0.173 HD
ENDBRANCH  17  21
ENDBRANCH   1  17
TORSDOF 6
ENDMDL
MODEL 9
REMARK VINA RESULT:     -11.0      8.588     13.191
REMARK  Name = 448890
REMARK  6 active torsions:
REMARK  status: ('A' for Active; 'I' for Inactive)
REMARK    1  A    between atoms: C_1  and  C_2
REMARK    2  A    between atoms: C_1  and  C_17
REMARK    3  A    between atoms: C_2  and  C_3
REMARK    4  A    between atoms: C_3  and  N_4
REMARK    5  A    between atoms: C_8  and  C_11
REMARK    6  A    between atoms: C_17  and  N_21
REMARK                            x       y       z     vdW  Elec       q    Type
REMARK                         _______ _______ _______ _____ _____    ______ ____
ROOT
ATOM      1  C   UNL     1      33.086 -12.607 -26.111  0.00  0.00    +0.022 C 
ENDROOT
BRANCH   1   2
ATOM      2  C   UNL     1      32.479 -13.980 -25.802  0.00  0.00    -0.021 C 
BRANCH   2   3
ATOM      3  C   UNL     1      33.461 -15.103 -26.133  0.00  0.00    -0.077 C 
BRANCH   3   4
ATOM      4  N   UNL     1      33.513 -16.069 -25.037  0.00  0.00    +0.390 N 
ATOM      5  C   UNL     1      34.076 -17.347 -25.486  0.00  0.00    -0.072 C 
ATOM      6  C   UNL     1      34.283 -15.532 -23.905  0.00  0.00    -0.051 C 
ATOM      7  C   UNL     1      33.963 -18.389 -24.363  0.00  0.00    +0.003 C 
ATOM      8  C   UNL     1      34.446 -17.872 -23.027  0.00  0.00    -0.031 C 
ATOM      9  C   UNL     1      34.589 -16.546 -22.835  0.00  0.00    -0.053 C 
ATOM     10  H   UNL     1      32.557 -16.240 -24.724  0.00  0.00    -0.079 HD
BRANCH   8  11
ATOM     11  C   UNL     1      34.743 -18.854 -21.957  0.00  0.00    -0.004 C 
ATOM     12  C   UNL     1      36.048 -19.003 -21.484  0.00  0.00    -0.000 C 
ATOM     13  C   UNL     1      33.717 -19.634 -21.417  0.00  0.00    -0.000 C 
ATOM     14  C   UNL     1      36.327 -19.928 -20.477  0.00  0.00    -0.000 C 
ATOM     15  C   UNL     1      33.996 -20.559 -20.411  0.00  0.00    -0.000 C 
ATOM     16  C   UNL     1      35.301 -20.706 -19.940  0.00  0.00    -0.000 C 
ENDBRANCH   8  11
ENDBRANCH   3   4
ENDBRANCH   2   3
ENDBRANCH   1   2
BRANCH   1  17
ATOM     17  C   UNL     1      33.835 -12.017 -24.920  0.00  0.00    +0.110 C 
BRANCH  17  21
ATOM     18  F   UNL     1      30.371 -10.068 -20.239  0.00  0.00    -0.204 F 
ATOM     19  O   UNL     1      33.273  -9.394 -25.776  0.00  0.00    -0.246 OA
ATOM     20  O   UNL     1      30.758  -8.386 -22.091  0.00  0.00    -0.267 OA
ATOM     21  N   UNL     1      33.022 -11.063 -24.169  0.00  0.00    -0.281 N 
ATOM     22  N   UNL     1      32.027  -8.931 -23.925  0.00  0.00    -0.274 N 
ATOM     23  C   UNL     1      32.462 -11.460 -22.915  0.00  0.00    +0.071 A 
ATOM     24  C   UNL     1      32.813  -9.783 -24.699  0.00  0.00    +0.330 A 
ATOM     25  C   UNL     1      31.681 -10.559 -22.181  0.00  0.00    +0.099 A 
ATOM     26  C   UNL     1      32.670 -12.742 -22.379  0.00  0.00    +0.018 C 
ATOM     27  C   UNL     1      31.436  -9.204 -22.704  0.00  0.00    +0.265 A 
ATOM     28  C   UNL     1      31.121 -10.923 -20.948  0.00  0.00    +0.146 C 
ATOM     29  C   UNL     1      32.112 -13.107 -21.150  0.00  0.00    +0.004 C 
ATOM     30  C   UNL     1      31.338 -12.199 -20.435  0.00  0.00    +0.030 C 
ATOM     31  H   UNL     1      31.875  -8.029 -24.290  0.00  0.00    +0.173 HD
ENDBRANCH  17  21
ENDBRANCH   1  17
TORSDOF 6
ENDMDL
