MODEL 1
REMARK VINA RESULT:     -12.3      0.000      0.000
REMARK  Name = 16755766
REMARK  5 active torsions:
REMARK  status: ('A' for Active; 'I' for Inactive)
REMARK    1  A    between atoms: N_1  and  C_25
REMARK    2  A    between atoms: N_3  and  C_12
REMARK    3  A    between atoms: C_5  and  C_20
REMARK    4  A    between atoms: C_25  and  C_26
REMARK    5  A    between atoms: C_26  and  C_29
REMARK                            x       y       z     vdW  Elec       q    Type
REMARK                         _______ _______ _______ _____ _____    ______ ____
ROOT
ATOM      1  N   UNL     1      34.512 -23.449 -16.088  0.00  0.00    -0.174 N 
ATOM      2  N   UNL     1      34.301 -22.667 -17.148  0.00  0.00    -0.096 NA
ATOM      3  N   UNL     1      35.930 -21.474 -18.439  0.00  0.00    -0.246 N 
ATOM      4  N   UNL     1      36.518 -22.797 -16.601  0.00  0.00    -0.319 NA
ATOM      5  C   UNL     1      35.820 -23.528 -15.762  0.00  0.00    +0.216 C 
ATOM      6  C   UNL     1      35.553 -22.294 -17.424  0.00  0.00    +0.165 C 
ATOM      7  H   UNL     1      36.887 -21.245 -18.430  0.00  0.00    +0.165 HD
ENDROOT
BRANCH   3  12
ATOM      8  F   UNL     1      34.234 -17.190 -23.277  0.00  0.00    -0.125 F 
ATOM      9  F   UNL     1      34.558 -18.984 -24.485  0.00  0.00    -0.125 F 
ATOM     10  O   UNL     1      35.627 -18.799 -22.494  0.00  0.00    -0.395 OA
ATOM     11  O   UNL     1      33.240 -19.128 -22.648  0.00  0.00    -0.395 OA
ATOM     12  C   UNL     1      35.207 -20.882 -19.513  0.00  0.00    +0.061 C 
ATOM     13  C   UNL     1      35.143 -19.569 -21.480  0.00  0.00    +0.183 C 
ATOM     14  C   UNL     1      35.888 -20.123 -20.458  0.00  0.00    +0.056 C 
ATOM     15  C   UNL     1      33.781 -19.757 -21.568  0.00  0.00    +0.182 C 
ATOM     16  C   UNL     1      33.821 -21.079 -19.594  0.00  0.00    +0.019 C 
ATOM     17  C   UNL     1      33.091 -20.508 -20.639  0.00  0.00    +0.042 C 
ATOM     18  C   UNL     1      34.415 -18.533 -23.214  0.00  0.00    +0.589 C 
ENDBRANCH   3  12
BRANCH   5  20
ATOM     19  N   UNL     1      37.347 -25.789 -12.520  0.00  0.00    -0.242 NA
ATOM     20  C   UNL     1      36.342 -24.297 -14.658  0.00  0.00    +0.050 C 
ATOM     21  C   UNL     1      36.616 -23.678 -13.444  0.00  0.00    +0.025 C 
ATOM     22  C   UNL     1      36.569 -25.661 -14.805  0.00  0.00    +0.025 C 
ATOM     23  C   UNL     1      37.113 -24.462 -12.415  0.00  0.00    +0.099 C 
ATOM     24  C   UNL     1      37.069 -26.355 -13.715  0.00  0.00    +0.099 C 
ENDBRANCH   5  20
BRANCH   1  25
ATOM     25  C   UNL     1      33.379 -24.087 -15.428  0.00  0.00    +0.129 C 
BRANCH  25  26
ATOM     26  C   UNL     1      32.291 -23.082 -15.054  0.00  0.00    +0.109 C 
BRANCH  26  29
ATOM     27  O   UNL     1      30.875 -22.749 -16.959  0.00  0.00    -0.275 OA
ATOM     28  N   UNL     1      30.037 -24.096 -15.267  0.00  0.00    -0.276 N 
ATOM     29  C   UNL     1      31.012 -23.284 -15.855  0.00  0.00    +0.228 C 
ATOM     30  C   UNL     1      30.221 -24.720 -13.959  0.00  0.00    +0.115 C 
ATOM     31  C   UNL     1      28.762 -24.379 -15.914  0.00  0.00    +0.115 C 
ENDBRANCH  26  29
ENDBRANCH  25  26
ENDBRANCH   1  25
TORSDOF 5
ENDMDL
MODEL 2
REMARK VINA RESULT:     -11.8      1.876      4.522
REMARK  Name = 16755766
REMARK  5 active torsions:
REMARK  status: ('A' for Active; 'I' for Inactive)
REMARK    1  A    between atoms: N_1  and  C_25
REMARK    2  A    between atoms: N_3  and  C_12
REMARK    3  A    between atoms: C_5  and  C_20
REMARK    4  A    between atoms: C_25  and  C_26
REMARK    5  A    between atoms: C_26  and  C_29
REMARK                            x       y       z     vdW  Elec       q    Type
REMARK                         _______ _______ _______ _____ _____    ______ ____
ROOT
ATOM      1  N   UNL     1      33.345 -23.159 -16.816  0.00  0.00    -0.174 N 
ATOM      2  N   UNL     1      33.753 -22.464 -17.879  0.00  0.00    -0.096 NA
ATOM      3  N   UNL     1      32.401 -21.263 -19.453  0.00  0.00    -0.246 N 
ATOM      4  N   UNL     1      31.478 -22.431 -17.647  0.00  0.00    -0.319 NA
ATOM      5  C   UNL     1      32.003 -23.142 -16.676  0.00  0.00    +0.216 C 
ATOM      6  C   UNL     1      32.579 -22.039 -18.352  0.00  0.00    +0.165 C 
ATOM      7  H   UNL     1      31.457 -21.125 -19.694  0.00  0.00    +0.165 HD
ENDROOT
BRANCH   3  12
ATOM      8  F   UNL     1      34.952 -18.495 -24.972  0.00  0.00    -0.125 F 
ATOM      9  F   UNL     1      34.963 -16.747 -23.657  0.00  0.00    -0.125 F 
ATOM     10  O   UNL     1      33.481 -18.414 -23.248  0.00  0.00    -0.395 OA
ATOM     11  O   UNL     1      35.855 -18.688 -22.901  0.00  0.00    -0.395 OA
ATOM     12  C   UNL     1      33.319 -20.612 -20.325  0.00  0.00    +0.061 C 
ATOM     13  C   UNL     1      33.761 -19.217 -22.184  0.00  0.00    +0.183 C 
ATOM     14  C   UNL     1      32.832 -19.827 -21.364  0.00  0.00    +0.056 C 
ATOM     15  C   UNL     1      35.115 -19.373 -21.986  0.00  0.00    +0.182 C 
ATOM     16  C   UNL     1      34.695 -20.777 -20.116  0.00  0.00    +0.019 C 
ATOM     17  C   UNL     1      35.614 -20.148 -20.959  0.00  0.00    +0.042 C 
ATOM     18  C   UNL     1      34.810 -18.094 -23.683  0.00  0.00    +0.589 C 
ENDBRANCH   3  12
BRANCH   5  20
ATOM     19  N   UNL     1      29.884 -25.111 -13.579  0.00  0.00    -0.242 NA
ATOM     20  C   UNL     1      31.283 -23.813 -15.621  0.00  0.00    +0.050 C 
ATOM     21  C   UNL     1      31.512 -23.471 -14.293  0.00  0.00    +0.025 C 
ATOM     22  C   UNL     1      30.356 -24.802 -15.930  0.00  0.00    +0.025 C 
ATOM     23  C   UNL     1      30.792 -24.144 -13.318  0.00  0.00    +0.099 C 
ATOM     24  C   UNL     1      29.689 -25.415 -14.881  0.00  0.00    +0.099 C 
ENDBRANCH   5  20
BRANCH   1  25
ATOM     25  C   UNL     1      34.330 -23.832 -15.977  0.00  0.00    +0.129 C 
BRANCH  25  26
ATOM     26  C   UNL     1      35.095 -22.852 -15.089  0.00  0.00    +0.109 C 
BRANCH  26  29
ATOM     27  O   UNL     1      37.413 -23.432 -15.278  0.00  0.00    -0.275 OA
ATOM     28  N   UNL     1      36.373 -23.960 -13.274  0.00  0.00    -0.276 N 
ATOM     29  C   UNL     1      36.402 -23.436 -14.570  0.00  0.00    +0.228 C 
ATOM     30  C   UNL     1      35.164 -23.954 -12.453  0.00  0.00    +0.115 C 
ATOM     31  C   UNL     1      37.546 -24.553 -12.644  0.00  0.00    +0.115 C 
ENDBRANCH  26  29
ENDBRANCH  25  26
ENDBRANCH   1  25
TORSDOF 5
ENDMDL
MODEL 3
REMARK VINA RESULT:     -11.0      4.598      8.219
REMARK  Name = 16755766
REMARK  5 active torsions:
REMARK  status: ('A' for Active; 'I' for Inactive)
REMARK    1  A    between atoms: N_1  and  C_25
REMARK    2  A    between atoms: N_3  and  C_12
REMARK    3  A    between atoms: C_5  and  C_20
REMARK    4  A    between atoms: C_25  and  C_26
REMARK    5  A    between atoms: C_26  and  C_29
REMARK                            x       y       z     vdW  Elec       q    Type
REMARK                         _______ _______ _______ _____ _____    ______ ____
ROOT
ATOM      1  N   UNL     1      34.367 -22.017 -18.282  0.00  0.00    -0.174 N 
ATOM      2  N   UNL     1      34.881 -22.619 -17.208  0.00  0.00    -0.096 NA
ATOM      3  N   UNL     1      37.134 -22.504 -16.399  0.00  0.00    -0.246 N 
ATOM      4  N   UNL     1      36.436 -21.364 -18.320  0.00  0.00    -0.319 NA
ATOM      5  C   UNL     1      35.282 -21.275 -18.941  0.00  0.00    +0.216 C 
ATOM      6  C   UNL     1      36.143 -22.190 -17.274  0.00  0.00    +0.165 C 
ATOM      7  H   UNL     1      38.019 -22.162 -16.661  0.00  0.00    +0.165 HD
ENDROOT
BRANCH   3  12
ATOM      8  F   UNL     1      36.311 -23.930  -9.925  0.00  0.00    -0.125 F 
ATOM      9  F   UNL     1      34.936 -25.395 -10.791  0.00  0.00    -0.125 F 
ATOM     10  O   UNL     1      35.407 -23.511 -11.962  0.00  0.00    -0.395 OA
ATOM     11  O   UNL     1      37.043 -25.252 -11.615  0.00  0.00    -0.395 OA
ATOM     12  C   UNL     1      37.137 -23.231 -15.176  0.00  0.00    +0.061 C 
ATOM     13  C   UNL     1      36.240 -23.660 -13.029  0.00  0.00    +0.183 C 
ATOM     14  C   UNL     1      36.196 -22.927 -14.198  0.00  0.00    +0.056 C 
ATOM     15  C   UNL     1      37.173 -24.654 -12.831  0.00  0.00    +0.182 C 
ATOM     16  C   UNL     1      38.091 -24.240 -14.984  0.00  0.00    +0.019 C 
ATOM     17  C   UNL     1      38.113 -24.968 -13.792  0.00  0.00    +0.042 C 
ATOM     18  C   UNL     1      35.929 -24.520 -11.086  0.00  0.00    +0.589 C 
ENDBRANCH   3  12
BRANCH   5  20
ATOM     19  N   UNL     1      34.487 -19.048 -22.457  0.00  0.00    -0.242 NA
ATOM     20  C   UNL     1      35.011 -20.518 -20.139  0.00  0.00    +0.050 C 
ATOM     21  C   UNL     1      33.710 -20.412 -20.619  0.00  0.00    +0.025 C 
ATOM     22  C   UNL     1      36.050 -19.890 -20.816  0.00  0.00    +0.025 C 
ATOM     23  C   UNL     1      33.503 -19.672 -21.772  0.00  0.00    +0.099 C 
ATOM     24  C   UNL     1      35.738 -19.174 -21.961  0.00  0.00    +0.099 C 
ENDBRANCH   5  20
BRANCH   1  25
ATOM     25  C   UNL     1      32.962 -22.219 -18.616  0.00  0.00    +0.129 C 
BRANCH  25  26
ATOM     26  C   UNL     1      32.338 -23.360 -17.813  0.00  0.00    +0.109 C 
BRANCH  26  29
ATOM     27  O   UNL     1      30.273 -22.262 -17.286  0.00  0.00    -0.275 OA
ATOM     28  N   UNL     1      31.452 -23.164 -15.504  0.00  0.00    -0.276 N 
ATOM     29  C   UNL     1      31.255 -22.874 -16.858  0.00  0.00    +0.228 C 
ATOM     30  C   UNL     1      32.623 -23.891 -15.020  0.00  0.00    +0.115 C 
ATOM     31  C   UNL     1      30.502 -22.763 -14.473  0.00  0.00    +0.115 C 
ENDBRANCH  26  29
ENDBRANCH  25  26
ENDBRANCH   1  25
TORSDOF 5
ENDMDL
MODEL 4
REMARK VINA RESULT:     -10.1      8.176     13.799
REMARK  Name = 16755766
REMARK  5 active torsions:
REMARK  status: ('A' for Active; 'I' for Inactive)
REMARK    1  A    between atoms: N_1  and  C_25
REMARK    2  A    between atoms: N_3  and  C_12
REMARK    3  A    between atoms: C_5  and  C_20
REMARK    4  A    between atoms: C_25  and  C_26
REMARK    5  A    between atoms: C_26  and  C_29
REMARK                            x       y       z     vdW  Elec       q    Type
REMARK                         _______ _______ _______ _____ _____    ______ ____
ROOT
ATOM      1  N   UNL     1      33.897 -11.512 -25.221  0.00  0.00    -0.174 N 
ATOM      2  N   UNL     1      34.186 -12.727 -24.754  0.00  0.00    -0.096 NA
ATOM      3  N   UNL     1      33.779 -13.589 -22.554  0.00  0.00    -0.246 N 
ATOM      4  N   UNL     1      33.193 -11.408 -23.170  0.00  0.00    -0.319 NA
ATOM      5  C   UNL     1      33.311 -10.730 -24.289  0.00  0.00    +0.216 C 
ATOM      6  C   UNL     1      33.738 -12.615 -23.501  0.00  0.00    +0.165 C 
ATOM      7  H   UNL     1      33.480 -13.291 -21.665  0.00  0.00    +0.165 HD
ENDROOT
BRANCH   3  12
ATOM      8  F   UNL     1      36.920 -19.288 -21.045  0.00  0.00    -0.125 F 
ATOM      9  F   UNL     1      34.859 -19.895 -20.633  0.00  0.00    -0.125 F 
ATOM     10  O   UNL     1      35.397 -17.696 -20.506  0.00  0.00    -0.395 OA
ATOM     11  O   UNL     1      35.327 -18.885 -22.607  0.00  0.00    -0.395 OA
ATOM     12  C   UNL     1      34.171 -14.956 -22.602  0.00  0.00    +0.061 C 
ATOM     13  C   UNL     1      34.962 -16.912 -21.532  0.00  0.00    +0.183 C 
ATOM     14  C   UNL     1      34.590 -15.586 -21.435  0.00  0.00    +0.056 C 
ATOM     15  C   UNL     1      34.921 -17.591 -22.730  0.00  0.00    +0.182 C 
ATOM     16  C   UNL     1      34.128 -15.638 -23.825  0.00  0.00    +0.019 C 
ATOM     17  C   UNL     1      34.508 -16.980 -23.896  0.00  0.00    +0.042 C 
ATOM     18  C   UNL     1      35.621 -18.929 -21.204  0.00  0.00    +0.589 C 
ENDBRANCH   3  12
BRANCH   5  20
ATOM     19  N   UNL     1      32.085  -6.726 -24.936  0.00  0.00    -0.242 NA
ATOM     20  C   UNL     1      32.895  -9.367 -24.511  0.00  0.00    +0.050 C 
ATOM     21  C   UNL     1      32.331  -8.997 -25.727  0.00  0.00    +0.025 C 
ATOM     22  C   UNL     1      33.054  -8.418 -23.507  0.00  0.00    +0.025 C 
ATOM     23  C   UNL     1      31.946  -7.676 -25.888  0.00  0.00    +0.099 C 
ATOM     24  C   UNL     1      32.637  -7.122 -23.768  0.00  0.00    +0.099 C 
ENDBRANCH   5  20
BRANCH   1  25
ATOM     25  C   UNL     1      34.234 -11.172 -26.598  0.00  0.00    +0.129 C 
BRANCH  25  26
ATOM     26  C   UNL     1      33.908 -12.308 -27.567  0.00  0.00    +0.109 C 
BRANCH  26  29
ATOM     27  O   UNL     1      31.600 -11.671 -27.681  0.00  0.00    -0.275 OA
ATOM     28  N   UNL     1      32.047 -13.946 -27.665  0.00  0.00    -0.276 N 
ATOM     29  C   UNL     1      32.414 -12.597 -27.643  0.00  0.00    +0.228 C 
ATOM     30  C   UNL     1      33.030 -15.027 -27.619  0.00  0.00    +0.115 C 
ATOM     31  C   UNL     1      30.656 -14.377 -27.735  0.00  0.00    +0.115 C 
ENDBRANCH  26  29
ENDBRANCH  25  26
ENDBRANCH   1  25
TORSDOF 5
ENDMDL
MODEL 5
REMARK VINA RESULT:     -10.1      9.879     14.156
REMARK  Name = 16755766
REMARK  5 active torsions:
REMARK  status: ('A' for Active; 'I' for Inactive)
REMARK    1  A    between atoms: N_1  and  C_25
REMARK    2  A    between atoms: N_3  and  C_12
REMARK    3  A    between atoms: C_5  and  C_20
REMARK    4  A    between atoms: C_25  and  C_26
REMARK    5  A    between atoms: C_26  and  C_29
REMARK                            x       y       z     vdW  Elec       q    Type
REMARK                         _______ _______ _______ _____ _____    ______ ____
ROOT
ATOM      1  N   UNL     1      33.252 -11.106 -24.800  0.00  0.00    -0.174 N 
ATOM      2  N   UNL     1      33.097 -12.430 -24.871  0.00  0.00    -0.096 NA
ATOM      3  N   UNL     1      32.924 -13.783 -26.842  0.00  0.00    -0.246 N 
ATOM      4  N   UNL     1      33.189 -11.460 -26.940  0.00  0.00    -0.319 NA
ATOM      5  C   UNL     1      33.306 -10.530 -26.020  0.00  0.00    +0.216 C 
ATOM      6  C   UNL     1      33.064 -12.596 -26.195  0.00  0.00    +0.165 C 
ATOM      7  H   UNL     1      32.835 -13.695 -27.818  0.00  0.00    +0.165 HD
ENDROOT
BRANCH   3  12
ATOM      8  F   UNL     1      34.866 -19.565 -24.120  0.00  0.00    -0.125 F 
ATOM      9  F   UNL     1      33.268 -19.033 -22.724  0.00  0.00    -0.125 F 
ATOM     10  O   UNL     1      34.313 -17.381 -23.873  0.00  0.00    -0.395 OA
ATOM     11  O   UNL     1      32.843 -18.966 -24.950  0.00  0.00    -0.395 OA
ATOM     12  C   UNL     1      32.879 -15.127 -26.378  0.00  0.00    +0.061 C 
ATOM     13  C   UNL     1      33.607 -16.822 -24.896  0.00  0.00    +0.183 C 
ATOM     14  C   UNL     1      33.685 -15.507 -25.309  0.00  0.00    +0.056 C 
ATOM     15  C   UNL     1      32.768 -17.727 -25.510  0.00  0.00    +0.182 C 
ATOM     16  C   UNL     1      32.024 -16.040 -27.009  0.00  0.00    +0.019 C 
ATOM     17  C   UNL     1      31.963 -17.365 -26.570  0.00  0.00    +0.042 C 
ATOM     18  C   UNL     1      33.818 -18.726 -23.925  0.00  0.00    +0.589 C 
ENDBRANCH   3  12
BRANCH   5  20
ATOM     19  N   UNL     1      33.764  -6.372 -26.695  0.00  0.00    -0.242 NA
ATOM     20  C   UNL     1      33.463  -9.114 -26.248  0.00  0.00    +0.050 C 
ATOM     21  C   UNL     1      34.733  -8.566 -26.390  0.00  0.00    +0.025 C 
ATOM     22  C   UNL     1      32.344  -8.294 -26.330  0.00  0.00    +0.025 C 
ATOM     23  C   UNL     1      34.828  -7.201 -26.610  0.00  0.00    +0.099 C 
ATOM     24  C   UNL     1      32.546  -6.941 -26.552  0.00  0.00    +0.099 C 
ENDBRANCH   5  20
BRANCH   1  25
ATOM     25  C   UNL     1      33.330 -10.461 -23.495  0.00  0.00    +0.129 C 
BRANCH  25  26
ATOM     26  C   UNL     1      31.955 -10.037 -22.980  0.00  0.00    +0.109 C 
BRANCH  26  29
ATOM     27  O   UNL     1      31.218 -11.932 -21.711  0.00  0.00    -0.275 OA
ATOM     28  N   UNL     1      31.651  -9.991 -20.518  0.00  0.00    -0.276 N 
ATOM     29  C   UNL     1      31.573 -10.750 -21.690  0.00  0.00    +0.228 C 
ATOM     30  C   UNL     1      32.074  -8.592 -20.517  0.00  0.00    +0.115 C 
ATOM     31  C   UNL     1      31.315 -10.537 -19.209  0.00  0.00    +0.115 C 
ENDBRANCH  26  29
ENDBRANCH  25  26
ENDBRANCH   1  25
TORSDOF 5
ENDMDL
MODEL 6
REMARK VINA RESULT:     -10.1      8.025     12.232
REMARK  Name = 16755766
REMARK  5 active torsions:
REMARK  status: ('A' for Active; 'I' for Inactive)
REMARK    1  A    between atoms: N_1  and  C_25
REMARK    2  A    between atoms: N_3  and  C_12
REMARK    3  A    between atoms: C_5  and  C_20
REMARK    4  A    between atoms: C_25  and  C_26
REMARK    5  A    between atoms: C_26  and  C_29
REMARK                            x       y       z     vdW  Elec       q    Type
REMARK                         _______ _______ _______ _____ _____    ______ ____
ROOT
ATOM      1  N   UNL     1      33.673 -15.410 -24.586  0.00  0.00    -0.174 N 
ATOM      2  N   UNL     1      33.497 -14.112 -24.839  0.00  0.00    -0.096 NA
ATOM      3  N   UNL     1      34.121 -12.252 -23.462  0.00  0.00    -0.246 N 
ATOM      4  N   UNL     1      34.521 -14.468 -22.825  0.00  0.00    -0.319 NA
ATOM      5  C   UNL     1      34.278 -15.624 -23.398  0.00  0.00    +0.216 C 
ATOM      6  C   UNL     1      34.030 -13.579 -23.737  0.00  0.00    +0.165 C 
ATOM      7  H   UNL     1      34.467 -12.055 -22.562  0.00  0.00    +0.165 HD
ENDROOT
BRANCH   3  12
ATOM      8  F   UNL     1      30.639  -7.192 -26.089  0.00  0.00    -0.125 F 
ATOM      9  F   UNL     1      32.133  -6.054 -24.967  0.00  0.00    -0.125 F 
ATOM     10  O   UNL     1      31.624  -8.157 -24.289  0.00  0.00    -0.395 OA
ATOM     11  O   UNL     1      32.831  -7.721 -26.335  0.00  0.00    -0.395 OA
ATOM     12  C   UNL     1      33.812 -11.092 -24.226  0.00  0.00    +0.061 C 
ATOM     13  C   UNL     1      32.555  -9.115 -24.557  0.00  0.00    +0.183 C 
ATOM     14  C   UNL     1      32.819 -10.226 -23.781  0.00  0.00    +0.056 C 
ATOM     15  C   UNL     1      33.243  -8.865 -25.724  0.00  0.00    +0.182 C 
ATOM     16  C   UNL     1      34.518 -10.847 -25.412  0.00  0.00    +0.019 C 
ATOM     17  C   UNL     1      34.232  -9.714 -26.178  0.00  0.00    +0.042 C 
ATOM     18  C   UNL     1      31.814  -7.292 -25.418  0.00  0.00    +0.589 C 
ENDBRANCH   3  12
BRANCH   5  20
ATOM     19  N   UNL     1      35.188 -19.453 -21.829  0.00  0.00    -0.242 NA
ATOM     20  C   UNL     1      34.589 -16.927 -22.863  0.00  0.00    +0.050 C 
ATOM     21  C   UNL     1      34.923 -17.070 -21.521  0.00  0.00    +0.025 C 
ATOM     22  C   UNL     1      34.555 -18.045 -23.689  0.00  0.00    +0.025 C 
ATOM     23  C   UNL     1      35.212 -18.343 -21.057  0.00  0.00    +0.099 C 
ATOM     24  C   UNL     1      34.860 -19.275 -23.127  0.00  0.00    +0.099 C 
ENDBRANCH   5  20
BRANCH   1  25
ATOM     25  C   UNL     1      33.213 -16.399 -25.554  0.00  0.00    +0.129 C 
BRANCH  25  26
ATOM     26  C   UNL     1      32.991 -15.791 -26.938  0.00  0.00    +0.109 C 
BRANCH  26  29
ATOM     27  O   UNL     1      31.084 -17.104 -27.555  0.00  0.00    -0.275 OA
ATOM     28  N   UNL     1      30.855 -14.802 -27.721  0.00  0.00    -0.276 N 
ATOM     29  C   UNL     1      31.562 -15.973 -27.430  0.00  0.00    +0.228 C 
ATOM     30  C   UNL     1      31.442 -13.473 -27.566  0.00  0.00    +0.115 C 
ATOM     31  C   UNL     1      29.479 -14.819 -28.203  0.00  0.00    +0.115 C 
ENDBRANCH  26  29
ENDBRANCH  25  26
ENDBRANCH   1  25
TORSDOF 5
ENDMDL
MODEL 7
REMARK VINA RESULT:     -10.0      1.395      2.081
REMARK  Name = 16755766
REMARK  5 active torsions:
REMARK  status: ('A' for Active; 'I' for Inactive)
REMARK    1  A    between atoms: N_1  and  C_25
REMARK    2  A    between atoms: N_3  and  C_12
REMARK    3  A    between atoms: C_5  and  C_20
REMARK    4  A    between atoms: C_25  and  C_26
REMARK    5  A    between atoms: C_26  and  C_29
REMARK                            x       y       z     vdW  Elec       q    Type
REMARK                         _______ _______ _______ _____ _____    ______ ____
ROOT
ATOM      1  N   UNL     1      34.299 -22.777 -17.556  0.00  0.00    -0.174 N 
ATOM      2  N   UNL     1      34.476 -21.952 -18.589  0.00  0.00    -0.096 NA
ATOM      3  N   UNL     1      36.377 -20.567 -19.051  0.00  0.00    -0.246 N 
ATOM      4  N   UNL     1      36.266 -21.948 -17.165  0.00  0.00    -0.319 NA
ATOM      5  C   UNL     1      35.354 -22.777 -16.713  0.00  0.00    +0.216 C 
ATOM      6  C   UNL     1      35.689 -21.471 -18.306  0.00  0.00    +0.165 C 
ATOM      7  H   UNL     1      37.218 -20.268 -18.636  0.00  0.00    +0.165 HD
ENDROOT
BRANCH   3  12
ATOM      8  F   UNL     1      33.437 -19.270 -24.907  0.00  0.00    -0.125 F 
ATOM      9  F   UNL     1      33.171 -17.328 -23.936  0.00  0.00    -0.125 F 
ATOM     10  O   UNL     1      33.402 -19.176 -22.643  0.00  0.00    -0.395 OA
ATOM     11  O   UNL     1      35.230 -18.275 -23.938  0.00  0.00    -0.395 OA
ATOM     12  C   UNL     1      36.115 -19.969 -20.316  0.00  0.00    +0.061 C 
ATOM     13  C   UNL     1      34.603 -19.325 -22.018  0.00  0.00    +0.183 C 
ATOM     14  C   UNL     1      34.807 -19.913 -20.786  0.00  0.00    +0.056 C 
ATOM     15  C   UNL     1      35.646 -18.810 -22.757  0.00  0.00    +0.182 C 
ATOM     16  C   UNL     1      37.182 -19.449 -21.061  0.00  0.00    +0.019 C 
ATOM     17  C   UNL     1      36.948 -18.857 -22.304  0.00  0.00    +0.042 C 
ATOM     18  C   UNL     1      33.819 -18.516 -23.846  0.00  0.00    +0.589 C 
ENDBRANCH   3  12
BRANCH   5  20
ATOM     19  N   UNL     1      35.595 -25.105 -13.181  0.00  0.00    -0.242 NA
ATOM     20  C   UNL     1      35.437 -23.568 -15.510  0.00  0.00    +0.050 C 
ATOM     21  C   UNL     1      34.939 -23.070 -14.311  0.00  0.00    +0.025 C 
ATOM     22  C   UNL     1      36.013 -24.833 -15.546  0.00  0.00    +0.025 C 
ATOM     23  C   UNL     1      35.041 -23.871 -13.185  0.00  0.00    +0.099 C 
ATOM     24  C   UNL     1      36.068 -25.554 -14.364  0.00  0.00    +0.099 C 
ENDBRANCH   5  20
BRANCH   1  25
ATOM     25  C   UNL     1      33.058 -23.535 -17.447  0.00  0.00    +0.129 C 
BRANCH  25  26
ATOM     26  C   UNL     1      32.050 -22.858 -16.520  0.00  0.00    +0.109 C 
BRANCH  26  29
ATOM     27  O   UNL     1      31.979 -24.580 -14.854  0.00  0.00    -0.275 OA
ATOM     28  N   UNL     1      29.939 -23.875 -15.703  0.00  0.00    -0.276 N 
ATOM     29  C   UNL     1      31.335 -23.851 -15.613  0.00  0.00    +0.228 C 
ATOM     30  C   UNL     1      29.197 -23.002 -16.609  0.00  0.00    +0.115 C 
ATOM     31  C   UNL     1      29.120 -24.773 -14.899  0.00  0.00    +0.115 C 
ENDBRANCH  26  29
ENDBRANCH  25  26
ENDBRANCH   1  25
TORSDOF 5
ENDMDL
MODEL 8
REMARK VINA RESULT:     -10.0      6.661     10.667
REMARK  Name = 16755766
REMARK  5 active torsions:
REMARK  status: ('A' for Active; 'I' for Inactive)
REMARK    1  A    between atoms: N_1  and  C_25
REMARK    2  A    between atoms: N_3  and  C_12
REMARK    3  A    between atoms: C_5  and  C_20
REMARK    4  A    between atoms: C_25  and  C_26
REMARK    5  A    between atoms: C_26  and  C_29
REMARK                            x       y       z     vdW  Elec       q    Type
REMARK                         _______ _______ _______ _____ _____    ______ ____
ROOT
ATOM      1  N   UNL     1      34.204 -16.973 -23.784  0.00  0.00    -0.174 N 
ATOM      2  N   UNL     1      33.947 -15.740 -24.224  0.00  0.00    -0.096 NA
ATOM      3  N   UNL     1      34.069 -13.687 -22.994  0.00  0.00    -0.246 N 
ATOM      4  N   UNL     1      34.560 -15.758 -22.021  0.00  0.00    -0.319 NA
ATOM      5  C   UNL     1      34.566 -16.987 -22.483  0.00  0.00    +0.216 C 
ATOM      6  C   UNL     1      34.178 -15.036 -23.114  0.00  0.00    +0.165 C 
ATOM      7  H   UNL     1      34.196 -13.358 -22.075  0.00  0.00    +0.165 HD
ENDROOT
BRANCH   3  12
ATOM      8  F   UNL     1      32.864  -7.624 -25.526  0.00  0.00    -0.125 F 
ATOM      9  F   UNL     1      34.759  -8.060 -26.528  0.00  0.00    -0.125 F 
ATOM     10  O   UNL     1      34.303  -9.084 -24.557  0.00  0.00    -0.395 OA
ATOM     11  O   UNL     1      33.108  -9.612 -26.588  0.00  0.00    -0.395 OA
ATOM     12  C   UNL     1      33.805 -12.659 -23.942  0.00  0.00    +0.061 C 
ATOM     13  C   UNL     1      33.960 -10.401 -24.631  0.00  0.00    +0.183 C 
ATOM     14  C   UNL     1      34.241 -11.364 -23.682  0.00  0.00    +0.056 C 
ATOM     15  C   UNL     1      33.279 -10.702 -25.790  0.00  0.00    +0.182 C 
ATOM     16  C   UNL     1      33.111 -12.974 -25.117  0.00  0.00    +0.019 C 
ATOM     17  C   UNL     1      32.841 -11.981 -26.062  0.00  0.00    +0.042 C 
ATOM     18  C   UNL     1      33.758  -8.608 -25.796  0.00  0.00    +0.589 C 
ENDBRANCH   3  12
BRANCH   5  20
ATOM     19  N   UNL     1      35.539 -20.490 -20.306  0.00  0.00    -0.242 NA
ATOM     20  C   UNL     1      34.897 -18.179 -21.740  0.00  0.00    +0.050 C 
ATOM     21  C   UNL     1      33.887 -19.012 -21.271  0.00  0.00    +0.025 C 
ATOM     22  C   UNL     1      36.227 -18.500 -21.493  0.00  0.00    +0.025 C 
ATOM     23  C   UNL     1      34.258 -20.146 -20.566  0.00  0.00    +0.099 C 
ATOM     24  C   UNL     1      36.492 -19.656 -20.777  0.00  0.00    +0.099 C 
ENDBRANCH   5  20
BRANCH   1  25
ATOM     25  C   UNL     1      34.065 -18.105 -24.692  0.00  0.00    +0.129 C 
BRANCH  25  26
ATOM     26  C   UNL     1      33.724 -17.663 -26.114  0.00  0.00    +0.109 C 
BRANCH  26  29
ATOM     27  O   UNL     1      31.429 -18.292 -25.826  0.00  0.00    -0.275 OA
ATOM     28  N   UNL     1      31.832 -16.403 -27.108  0.00  0.00    -0.276 N 
ATOM     29  C   UNL     1      32.226 -17.494 -26.327  0.00  0.00    +0.228 C 
ATOM     30  C   UNL     1      32.793 -15.470 -27.693  0.00  0.00    +0.115 C 
ATOM     31  C   UNL     1      30.434 -16.114 -27.400  0.00  0.00    +0.115 C 
ENDBRANCH  26  29
ENDBRANCH  25  26
ENDBRANCH   1  25
TORSDOF 5
ENDMDL
MODEL 9
REMARK VINA RESULT:      -9.9      5.146     10.520
REMARK  Name = 16755766
REMARK  5 active torsions:
REMARK  status: ('A' for Active; 'I' for Inactive)
REMARK    1  A    between atoms: N_1  and  C_25
REMARK    2  A    between atoms: N_3  and  C_12
REMARK    3  A    between atoms: C_5  and  C_20
REMARK    4  A    between atoms: C_25  and  C_26
REMARK    5  A    between atoms: C_26  and  C_29
REMARK                            x       y       z     vdW  Elec       q    Type
REMARK                         _______ _______ _______ _____ _____    ______ ____
ROOT
ATOM      1  N   UNL     1      34.531 -17.389 -22.861  0.00  0.00    -0.174 N 
ATOM      2  N   UNL     1      34.791 -18.187 -21.824  0.00  0.00    -0.096 NA
ATOM      3  N   UNL     1      34.106 -20.464 -21.517  0.00  0.00    -0.246 N 
ATOM      4  N   UNL     1      33.534 -19.233 -23.424  0.00  0.00    -0.319 NA
ATOM      5  C   UNL     1      33.790 -18.004 -23.808  0.00  0.00    +0.216 C 
ATOM      6  C   UNL     1      34.163 -19.299 -22.214  0.00  0.00    +0.165 C 
ATOM      7  H   UNL     1      33.524 -21.144 -21.926  0.00  0.00    +0.165 HD
ENDROOT
BRANCH   3  12
ATOM      8  F   UNL     1      34.843 -22.373 -15.158  0.00  0.00    -0.125 F 
ATOM      9  F   UNL     1      35.561 -24.181 -16.160  0.00  0.00    -0.125 F 
ATOM     10  O   UNL     1      34.118 -22.821 -17.259  0.00  0.00    -0.395 OA
ATOM     11  O   UNL     1      36.397 -22.173 -16.797  0.00  0.00    -0.395 OA
ATOM     12  C   UNL     1      34.726 -20.888 -20.308  0.00  0.00    +0.061 C 
ATOM     13  C   UNL     1      34.652 -22.057 -18.253  0.00  0.00    +0.183 C 
ATOM     14  C   UNL     1      34.008 -21.671 -19.411  0.00  0.00    +0.056 C 
ATOM     15  C   UNL     1      35.952 -21.689 -17.989  0.00  0.00    +0.182 C 
ATOM     16  C   UNL     1      36.050 -20.508 -20.049  0.00  0.00    +0.019 C 
ATOM     17  C   UNL     1      36.679 -20.913 -18.869  0.00  0.00    +0.042 C 
ATOM     18  C   UNL     1      35.230 -22.880 -16.356  0.00  0.00    +0.589 C 
ENDBRANCH   3  12
BRANCH   5  20
ATOM     19  N   UNL     1      32.511 -16.183 -27.414  0.00  0.00    -0.242 NA
ATOM     20  C   UNL     1      33.354 -17.382 -25.035  0.00  0.00    +0.050 C 
ATOM     21  C   UNL     1      34.088 -16.338 -25.588  0.00  0.00    +0.025 C 
ATOM     22  C   UNL     1      32.200 -17.827 -25.670  0.00  0.00    +0.025 C 
ATOM     23  C   UNL     1      33.628 -15.778 -26.768  0.00  0.00    +0.099 C 
ATOM     24  C   UNL     1      31.825 -17.200 -26.846  0.00  0.00    +0.099 C 
ENDBRANCH   5  20
BRANCH   1  25
ATOM     25  C   UNL     1      35.034 -16.021 -22.858  0.00  0.00    +0.129 C 
BRANCH  25  26
ATOM     26  C   UNL     1      34.243 -15.119 -21.912  0.00  0.00    +0.109 C 
BRANCH  26  29
ATOM     27  O   UNL     1      34.021 -13.615 -23.766  0.00  0.00    -0.275 OA
ATOM     28  N   UNL     1      32.734 -13.149 -21.894  0.00  0.00    -0.276 N 
ATOM     29  C   UNL     1      33.666 -13.899 -22.619  0.00  0.00    +0.228 C 
ATOM     30  C   UNL     1      32.328 -13.504 -20.536  0.00  0.00    +0.115 C 
ATOM     31  C   UNL     1      32.098 -11.956 -22.438  0.00  0.00    +0.115 C 
ENDBRANCH  26  29
ENDBRANCH  25  26
ENDBRANCH   1  25
TORSDOF 5
ENDMDL
