MODEL 1
REMARK VINA RESULT:     -11.6      0.000      0.000
REMARK  Name = 448903
REMARK  11 active torsions:
REMARK  status: ('A' for Active; 'I' for Inactive)
REMARK    1  A    between atoms: N_1  and  C_22
REMARK    2  A    between atoms: C_8  and  N_11
REMARK    3  A    between atoms: C_12  and  C_14
REMARK    4  A    between atoms: C_14  and  C_15
REMARK    5  A    between atoms: C_15  and  C_16
REMARK    6  A    between atoms: C_22  and  C_23
REMARK    7  A    between atoms: C_23  and  C_24
REMARK    8  A    between atoms: C_24  and  N_25
REMARK    9  A    between atoms: C_24  and  C_35
REMARK   10  A    between atoms: C_29  and  C_32
REMARK   11  A    between atoms: C_35  and  O_36
REMARK                            x       y       z     vdW  Elec       q    Type
REMARK                         _______ _______ _______ _____ _____    ______ ____
ROOT
ATOM      1  N   UNL     1      33.283 -23.672 -15.262  0.00  0.00    -0.286 N 
ATOM      2  C   UNL     1      34.448 -23.169 -15.797  0.00  0.00    +0.053 C 
ATOM      3  C   UNL     1      35.481 -23.506 -14.919  0.00  0.00    +0.015 C 
ATOM      4  C   UNL     1      33.544 -24.314 -14.082  0.00  0.00    +0.065 C 
ATOM      5  C   UNL     1      34.895 -24.230 -13.843  0.00  0.00    +0.017 C 
ATOM      6  C   UNL     1      34.663 -22.448 -16.977  0.00  0.00    +0.029 C 
ATOM      7  C   UNL     1      36.795 -23.105 -15.234  0.00  0.00    +0.003 C 
ATOM      8  C   UNL     1      35.975 -22.062 -17.268  0.00  0.00    +0.052 C 
ATOM      9  C   UNL     1      37.026 -22.386 -16.411  0.00  0.00    +0.015 C 
ENDROOT
BRANCH   8  11
ATOM     10  O   UNL     1      34.475 -21.966 -19.872  0.00  0.00    -0.275 OA
ATOM     11  N   UNL     1      36.234 -21.344 -18.436  0.00  0.00    -0.284 N 
ATOM     12  C   UNL     1      35.492 -21.324 -19.623  0.00  0.00    +0.226 C 
ATOM     13  H   UNL     1      37.041 -20.779 -18.424  0.00  0.00    +0.155 HD
BRANCH  12  14
ATOM     14  C   UNL     1      36.101 -20.411 -20.676  0.00  0.00    +0.090 C 
BRANCH  14  15
ATOM     15  C   UNL     1      35.479 -19.014 -20.640  0.00  0.00    +0.036 C 
BRANCH  15  16
ATOM     16  C   UNL     1      35.058 -18.512 -22.000  0.00  0.00    -0.022 C 
ATOM     17  C   UNL     1      34.714 -19.417 -23.003  0.00  0.00    -0.004 C 
ATOM     18  C   UNL     1      35.014 -17.140 -22.253  0.00  0.00    -0.004 C 
ATOM     19  C   UNL     1      34.326 -18.952 -24.260  0.00  0.00    -0.000 C 
ATOM     20  C   UNL     1      34.625 -16.675 -23.510  0.00  0.00    -0.000 C 
ATOM     21  C   UNL     1      34.282 -17.581 -24.513  0.00  0.00    -0.000 C 
ENDBRANCH  15  16
ENDBRANCH  14  15
ENDBRANCH  12  14
ENDBRANCH   8  11
BRANCH   1  22
ATOM     22  C   UNL     1      31.966 -23.548 -15.849  0.00  0.00    +0.097 C 
BRANCH  22  23
ATOM     23  C   UNL     1      30.967 -22.751 -15.000  0.00  0.00    +0.040 C 
BRANCH  23  24
ATOM     24  C   UNL     1      29.630 -23.470 -14.712  0.00  0.00    +0.091 C 
BRANCH  24  25
ATOM     25  N   UNL     1      28.661 -23.375 -15.816  0.00  0.00    -0.246 NA
ATOM     26  N   UNL     1      27.375 -23.842 -17.566  0.00  0.00    -0.251 NA
ATOM     27  C   UNL     1      27.918 -22.275 -16.163  0.00  0.00    +0.125 C 
ATOM     28  C   UNL     1      28.310 -24.302 -16.680  0.00  0.00    +0.201 C 
ATOM     29  C   UNL     1      27.113 -22.540 -17.246  0.00  0.00    +0.124 C 
BRANCH  29  32
ATOM     30  O   UNL     1      25.894 -20.534 -17.534  0.00  0.00    -0.269 OA
ATOM     31  N   UNL     1      25.606 -22.162 -19.103  0.00  0.00    -0.324 N 
ATOM     32  C   UNL     1      26.192 -21.689 -17.923  0.00  0.00    +0.257 C 
ATOM     33  H   UNL     1      24.965 -21.598 -19.595  0.00  0.00    +0.145 HD
ATOM     34  H   UNL     1      25.833 -23.058 -19.442  0.00  0.00    +0.145 HD
ENDBRANCH  29  32
ENDBRANCH  24  25
BRANCH  24  35
ATOM     35  C   UNL     1      29.876 -24.941 -14.337  0.00  0.00    +0.153 C 
BRANCH  35  36
ATOM     36  O   UNL     1      30.294 -25.027 -12.980  0.00  0.00    -0.381 OA
ATOM     37  H   UNL     1      31.026 -25.659 -12.906  0.00  0.00    +0.210 HD
ENDBRANCH  35  36
ENDBRANCH  24  35
ENDBRANCH  23  24
ENDBRANCH  22  23
ENDBRANCH   1  22
TORSDOF 11
ENDMDL
MODEL 2
REMARK VINA RESULT:     -11.5      1.261      1.923
REMARK  Name = 448903
REMARK  11 active torsions:
REMARK  status: ('A' for Active; 'I' for Inactive)
REMARK    1  A    between atoms: N_1  and  C_22
REMARK    2  A    between atoms: C_8  and  N_11
REMARK    3  A    between atoms: C_12  and  C_14
REMARK    4  A    between atoms: C_14  and  C_15
REMARK    5  A    between atoms: C_15  and  C_16
REMARK    6  A    between atoms: C_22  and  C_23
REMARK    7  A    between atoms: C_23  and  C_24
REMARK    8  A    between atoms: C_24  and  N_25
REMARK    9  A    between atoms: C_24  and  C_35
REMARK   10  A    between atoms: C_29  and  C_32
REMARK   11  A    between atoms: C_35  and  O_36
REMARK                            x       y       z     vdW  Elec       q    Type
REMARK                         _______ _______ _______ _____ _____    ______ ____
ROOT
ATOM      1  N   UNL     1      33.344 -23.236 -16.069  0.00  0.00    -0.286 N 
ATOM      2  C   UNL     1      34.168 -22.671 -17.016  0.00  0.00    +0.053 C 
ATOM      3  C   UNL     1      35.452 -22.626 -16.467  0.00  0.00    +0.015 C 
ATOM      4  C   UNL     1      34.059 -23.550 -14.945  0.00  0.00    +0.065 C 
ATOM      5  C   UNL     1      35.368 -23.185 -15.161  0.00  0.00    +0.017 C 
ATOM      6  C   UNL     1      33.879 -22.201 -18.302  0.00  0.00    +0.029 C 
ATOM      7  C   UNL     1      36.500 -22.086 -17.239  0.00  0.00    +0.003 C 
ATOM      8  C   UNL     1      34.935 -21.670 -19.049  0.00  0.00    +0.052 C 
ATOM      9  C   UNL     1      36.226 -21.613 -18.527  0.00  0.00    +0.015 C 
ENDROOT
BRANCH   8  11
ATOM     10  O   UNL     1      35.581 -19.013 -20.299  0.00  0.00    -0.275 OA
ATOM     11  N   UNL     1      34.690 -21.192 -20.337  0.00  0.00    -0.284 N 
ATOM     12  C   UNL     1      35.025 -19.944 -20.876  0.00  0.00    +0.226 C 
ATOM     13  H   UNL     1      34.221 -21.810 -20.943  0.00  0.00    +0.155 HD
BRANCH  12  14
ATOM     14  C   UNL     1      34.585 -19.797 -22.324  0.00  0.00    +0.090 C 
BRANCH  14  15
ATOM     15  C   UNL     1      35.329 -18.662 -23.028  0.00  0.00    +0.036 C 
BRANCH  15  16
ATOM     16  C   UNL     1      34.500 -17.963 -24.078  0.00  0.00    -0.022 C 
ATOM     17  C   UNL     1      34.480 -16.570 -24.138  0.00  0.00    -0.004 C 
ATOM     18  C   UNL     1      33.753 -18.712 -24.988  0.00  0.00    -0.004 C 
ATOM     19  C   UNL     1      33.713 -15.925 -25.109  0.00  0.00    -0.000 C 
ATOM     20  C   UNL     1      32.986 -18.066 -25.958  0.00  0.00    -0.000 C 
ATOM     21  C   UNL     1      32.966 -16.672 -26.019  0.00  0.00    -0.000 C 
ENDBRANCH  15  16
ENDBRANCH  14  15
ENDBRANCH  12  14
ENDBRANCH   8  11
BRANCH   1  22
ATOM     22  C   UNL     1      31.924 -23.471 -16.223  0.00  0.00    +0.097 C 
BRANCH  22  23
ATOM     23  C   UNL     1      31.047 -22.737 -15.199  0.00  0.00    +0.040 C 
BRANCH  23  24
ATOM     24  C   UNL     1      29.750 -23.476 -14.796  0.00  0.00    +0.091 C 
BRANCH  24  25
ATOM     25  N   UNL     1      28.733 -23.502 -15.860  0.00  0.00    -0.246 NA
ATOM     26  N   UNL     1      27.379 -24.153 -17.496  0.00  0.00    -0.251 NA
ATOM     27  C   UNL     1      27.958 -22.449 -16.279  0.00  0.00    +0.125 C 
ATOM     28  C   UNL     1      28.359 -24.512 -16.613  0.00  0.00    +0.201 C 
ATOM     29  C   UNL     1      27.110 -22.829 -17.293  0.00  0.00    +0.124 C 
BRANCH  29  32
ATOM     30  O   UNL     1      25.773 -22.322 -19.176  0.00  0.00    -0.269 OA
ATOM     31  N   UNL     1      25.569 -20.962 -17.359  0.00  0.00    -0.324 N 
ATOM     32  C   UNL     1      26.147 -22.060 -18.008  0.00  0.00    +0.257 C 
ATOM     33  H   UNL     1      24.900 -20.411 -17.825  0.00  0.00    +0.145 HD
ATOM     34  H   UNL     1      25.831 -20.741 -16.436  0.00  0.00    +0.145 HD
ENDBRANCH  29  32
ENDBRANCH  24  25
BRANCH  24  35
ATOM     35  C   UNL     1      30.067 -24.904 -14.321  0.00  0.00    +0.153 C 
BRANCH  35  36
ATOM     36  O   UNL     1      30.387 -24.887 -12.934  0.00  0.00    -0.381 OA
ATOM     37  H   UNL     1      30.038 -24.077 -12.531  0.00  0.00    +0.210 HD
ENDBRANCH  35  36
ENDBRANCH  24  35
ENDBRANCH  23  24
ENDBRANCH  22  23
ENDBRANCH   1  22
TORSDOF 11
ENDMDL
MODEL 3
REMARK VINA RESULT:     -11.3      7.929     13.366
REMARK  Name = 448903
REMARK  11 active torsions:
REMARK  status: ('A' for Active; 'I' for Inactive)
REMARK    1  A    between atoms: N_1  and  C_22
REMARK    2  A    between atoms: C_8  and  N_11
REMARK    3  A    between atoms: C_12  and  C_14
REMARK    4  A    between atoms: C_14  and  C_15
REMARK    5  A    between atoms: C_15  and  C_16
REMARK    6  A    between atoms: C_22  and  C_23
REMARK    7  A    between atoms: C_23  and  C_24
REMARK    8  A    between atoms: C_24  and  N_25
REMARK    9  A    between atoms: C_24  and  C_35
REMARK   10  A    between atoms: C_29  and  C_32
REMARK   11  A    between atoms: C_35  and  O_36
REMARK                            x       y       z     vdW  Elec       q    Type
REMARK                         _______ _______ _______ _____ _____    ______ ____
ROOT
ATOM      1  N   UNL     1      33.266 -12.600 -25.678  0.00  0.00    -0.286 N 
ATOM      2  C   UNL     1      33.060 -13.946 -25.881  0.00  0.00    +0.053 C 
ATOM      3  C   UNL     1      32.510 -14.088 -27.158  0.00  0.00    +0.015 C 
ATOM      4  C   UNL     1      32.868 -11.890 -26.778  0.00  0.00    +0.065 C 
ATOM      5  C   UNL     1      32.395 -12.782 -27.711  0.00  0.00    +0.017 C 
ATOM      6  C   UNL     1      33.315 -15.037 -25.042  0.00  0.00    +0.029 C 
ATOM      7  C   UNL     1      32.198 -15.383 -27.621  0.00  0.00    +0.003 C 
ATOM      8  C   UNL     1      32.998 -16.311 -25.524  0.00  0.00    +0.052 C 
ATOM      9  C   UNL     1      32.449 -16.483 -26.793  0.00  0.00    +0.015 C 
ENDROOT
BRANCH   8  11
ATOM     10  O   UNL     1      35.169 -16.833 -23.511  0.00  0.00    -0.275 OA
ATOM     11  N   UNL     1      33.239 -17.426 -24.720  0.00  0.00    -0.284 N 
ATOM     12  C   UNL     1      34.262 -17.614 -23.783  0.00  0.00    +0.226 C 
ATOM     13  H   UNL     1      32.609 -18.176 -24.825  0.00  0.00    +0.155 HD
BRANCH  12  14
ATOM     14  C   UNL     1      34.188 -18.972 -23.103  0.00  0.00    +0.090 C 
BRANCH  14  15
ATOM     15  C   UNL     1      34.963 -18.987 -21.785  0.00  0.00    +0.036 C 
BRANCH  15  16
ATOM     16  C   UNL     1      34.481 -20.042 -20.819  0.00  0.00    -0.022 C 
ATOM     17  C   UNL     1      33.118 -20.176 -20.556  0.00  0.00    -0.004 C 
ATOM     18  C   UNL     1      35.399 -20.883 -20.190  0.00  0.00    -0.004 C 
ATOM     19  C   UNL     1      32.673 -21.151 -19.663  0.00  0.00    -0.000 C 
ATOM     20  C   UNL     1      34.954 -21.858 -19.297  0.00  0.00    -0.000 C 
ATOM     21  C   UNL     1      33.591 -21.992 -19.033  0.00  0.00    -0.000 C 
ENDBRANCH  15  16
ENDBRANCH  14  15
ENDBRANCH  12  14
ENDBRANCH   8  11
BRANCH   1  22
ATOM     22  C   UNL     1      33.822 -12.007 -24.481  0.00  0.00    +0.097 C 
BRANCH  22  23
ATOM     23  C   UNL     1      32.789 -11.322 -23.577  0.00  0.00    +0.040 C 
BRANCH  23  24
ATOM     24  C   UNL     1      32.704  -9.785 -23.724  0.00  0.00    +0.091 C 
BRANCH  24  25
ATOM     25  N   UNL     1      32.247  -9.101 -22.503  0.00  0.00    -0.246 NA
ATOM     26  N   UNL     1      31.220  -8.608 -20.596  0.00  0.00    -0.251 NA
ATOM     27  C   UNL     1      32.634  -7.859 -22.066  0.00  0.00    +0.125 C 
ATOM     28  C   UNL     1      31.396  -9.525 -21.595  0.00  0.00    +0.201 C 
ATOM     29  C   UNL     1      32.010  -7.531 -20.885  0.00  0.00    +0.124 C 
BRANCH  29  32
ATOM     30  O   UNL     1      32.736  -6.301 -19.001  0.00  0.00    -0.269 OA
ATOM     31  N   UNL     1      31.536  -5.176 -20.579  0.00  0.00    -0.324 N 
ATOM     32  C   UNL     1      32.124  -6.352 -20.095  0.00  0.00    +0.257 C 
ATOM     33  H   UNL     1      31.598  -4.344 -20.057  0.00  0.00    +0.145 HD
ATOM     34  H   UNL     1      31.062  -5.182 -21.442  0.00  0.00    +0.145 HD
ENDBRANCH  29  32
ENDBRANCH  24  25
BRANCH  24  35
ATOM     35  C   UNL     1      34.052  -9.211 -24.189  0.00  0.00    +0.153 C 
BRANCH  35  36
ATOM     36  O   UNL     1      33.870  -8.479 -25.396  0.00  0.00    -0.381 OA
ATOM     37  H   UNL     1      33.341  -9.005 -26.017  0.00  0.00    +0.210 HD
ENDBRANCH  35  36
ENDBRANCH  24  35
ENDBRANCH  23  24
ENDBRANCH  22  23
ENDBRANCH   1  22
TORSDOF 11
ENDMDL
MODEL 4
REMARK VINA RESULT:     -11.2      6.486     12.097
REMARK  Name = 448903
REMARK  11 active torsions:
REMARK  status: ('A' for Active; 'I' for Inactive)
REMARK    1  A    between atoms: N_1  and  C_22
REMARK    2  A    between atoms: C_8  and  N_11
REMARK    3  A    between atoms: C_12  and  C_14
REMARK    4  A    between atoms: C_14  and  C_15
REMARK    5  A    between atoms: C_15  and  C_16
REMARK    6  A    between atoms: C_22  and  C_23
REMARK    7  A    between atoms: C_23  and  C_24
REMARK    8  A    between atoms: C_24  and  N_25
REMARK    9  A    between atoms: C_24  and  C_35
REMARK   10  A    between atoms: C_29  and  C_32
REMARK   11  A    between atoms: C_35  and  O_36
REMARK                            x       y       z     vdW  Elec       q    Type
REMARK                         _______ _______ _______ _____ _____    ______ ____
ROOT
ATOM      1  N   UNL     1      32.535 -14.841 -26.985  0.00  0.00    -0.286 N 
ATOM      2  C   UNL     1      32.704 -16.100 -26.453  0.00  0.00    +0.053 C 
ATOM      3  C   UNL     1      31.645 -16.885 -26.914  0.00  0.00    +0.015 C 
ATOM      4  C   UNL     1      31.410 -14.804 -27.764  0.00  0.00    +0.065 C 
ATOM      5  C   UNL     1      30.837 -16.054 -27.740  0.00  0.00    +0.017 C 
ATOM      6  C   UNL     1      33.703 -16.598 -25.609  0.00  0.00    +0.029 C 
ATOM      7  C   UNL     1      31.577 -18.234 -26.513  0.00  0.00    +0.003 C 
ATOM      8  C   UNL     1      33.615 -17.939 -25.226  0.00  0.00    +0.052 C 
ATOM      9  C   UNL     1      32.570 -18.747 -25.670  0.00  0.00    +0.015 C 
ENDROOT
BRANCH   8  11
ATOM     10  O   UNL     1      34.855 -16.834 -22.719  0.00  0.00    -0.275 OA
ATOM     11  N   UNL     1      34.592 -18.476 -24.386  0.00  0.00    -0.284 N 
ATOM     12  C   UNL     1      35.128 -17.923 -23.216  0.00  0.00    +0.226 C 
ATOM     13  H   UNL     1      34.950 -19.355 -24.649  0.00  0.00    +0.155 HD
BRANCH  12  14
ATOM     14  C   UNL     1      36.179 -18.817 -22.577  0.00  0.00    +0.090 C 
BRANCH  14  15
ATOM     15  C   UNL     1      36.050 -18.841 -21.054  0.00  0.00    +0.036 C 
BRANCH  15  16
ATOM     16  C   UNL     1      35.068 -19.871 -20.552  0.00  0.00    -0.022 C 
ATOM     17  C   UNL     1      33.703 -19.700 -20.774  0.00  0.00    -0.004 C 
ATOM     18  C   UNL     1      35.528 -20.996 -19.866  0.00  0.00    -0.004 C 
ATOM     19  C   UNL     1      32.795 -20.653 -20.310  0.00  0.00    -0.000 C 
ATOM     20  C   UNL     1      34.621 -21.949 -19.401  0.00  0.00    -0.000 C 
ATOM     21  C   UNL     1      33.254 -21.777 -19.624  0.00  0.00    -0.000 C 
ENDBRANCH  15  16
ENDBRANCH  14  15
ENDBRANCH  12  14
ENDBRANCH   8  11
BRANCH   1  22
ATOM     22  C   UNL     1      33.410 -13.710 -26.763  0.00  0.00    +0.097 C 
BRANCH  22  23
ATOM     23  C   UNL     1      32.808 -12.608 -25.880  0.00  0.00    +0.040 C 
BRANCH  23  24
ATOM     24  C   UNL     1      33.541 -12.367 -24.541  0.00  0.00    +0.091 C 
BRANCH  24  25
ATOM     25  N   UNL     1      33.145 -11.117 -23.870  0.00  0.00    -0.246 NA
ATOM     26  N   UNL     1      32.926  -8.979 -23.308  0.00  0.00    -0.251 NA
ATOM     27  C   UNL     1      32.306 -10.996 -22.791  0.00  0.00    +0.125 C 
ATOM     28  C   UNL     1      33.501  -9.885 -24.157  0.00  0.00    +0.201 C 
ATOM     29  C   UNL     1      32.155  -9.679 -22.424  0.00  0.00    +0.124 C 
BRANCH  29  32
ATOM     30  O   UNL     1      31.122  -7.889 -21.276  0.00  0.00    -0.269 OA
ATOM     31  N   UNL     1      30.863  -9.976 -20.398  0.00  0.00    -0.324 N 
ATOM     32  C   UNL     1      31.381  -9.113 -21.370  0.00  0.00    +0.257 C 
ATOM     33  H   UNL     1      30.324  -9.616 -19.657  0.00  0.00    +0.145 HD
ATOM     34  H   UNL     1      31.037 -10.944 -20.454  0.00  0.00    +0.145 HD
ENDBRANCH  29  32
ENDBRANCH  24  25
BRANCH  24  35
ATOM     35  C   UNL     1      33.352 -13.566 -23.597  0.00  0.00    +0.153 C 
BRANCH  35  36
ATOM     36  O   UNL     1      34.593 -13.891 -22.980  0.00  0.00    -0.381 OA
ATOM     37  H   UNL     1      35.104 -14.470 -23.567  0.00  0.00    +0.210 HD
ENDBRANCH  35  36
ENDBRANCH  24  35
ENDBRANCH  23  24
ENDBRANCH  22  23
ENDBRANCH   1  22
TORSDOF 11
ENDMDL
MODEL 5
REMARK VINA RESULT:     -11.1      5.564     10.711
REMARK  Name = 448903
REMARK  11 active torsions:
REMARK  status: ('A' for Active; 'I' for Inactive)
REMARK    1  A    between atoms: N_1  and  C_22
REMARK    2  A    between atoms: C_8  and  N_11
REMARK    3  A    between atoms: C_12  and  C_14
REMARK    4  A    between atoms: C_14  and  C_15
REMARK    5  A    between atoms: C_15  and  C_16
REMARK    6  A    between atoms: C_22  and  C_23
REMARK    7  A    between atoms: C_23  and  C_24
REMARK    8  A    between atoms: C_24  and  N_25
REMARK    9  A    between atoms: C_24  and  C_35
REMARK   10  A    between atoms: C_29  and  C_32
REMARK   11  A    between atoms: C_35  and  O_36
REMARK                            x       y       z     vdW  Elec       q    Type
REMARK                         _______ _______ _______ _____ _____    ______ ____
ROOT
ATOM      1  N   UNL     1      33.523 -17.790 -25.239  0.00  0.00    -0.286 N 
ATOM      2  C   UNL     1      33.055 -16.645 -25.843  0.00  0.00    +0.053 C 
ATOM      3  C   UNL     1      32.056 -17.033 -26.739  0.00  0.00    +0.015 C 
ATOM      4  C   UNL     1      32.856 -18.885 -25.720  0.00  0.00    +0.065 C 
ATOM      5  C   UNL     1      31.942 -18.449 -26.649  0.00  0.00    +0.017 C 
ATOM      6  C   UNL     1      33.436 -15.310 -25.666  0.00  0.00    +0.029 C 
ATOM      7  C   UNL     1      31.404 -16.040 -27.498  0.00  0.00    +0.003 C 
ATOM      8  C   UNL     1      32.774 -14.343 -26.430  0.00  0.00    +0.052 C 
ATOM      9  C   UNL     1      31.773 -14.701 -27.332  0.00  0.00    +0.015 C 
ENDROOT
BRANCH   8  11
ATOM     10  O   UNL     1      34.371 -12.535 -28.224  0.00  0.00    -0.275 OA
ATOM     11  N   UNL     1      33.122 -12.999 -26.284  0.00  0.00    -0.284 N 
ATOM     12  C   UNL     1      33.860 -12.195 -27.160  0.00  0.00    +0.226 C 
ATOM     13  H   UNL     1      32.808 -12.561 -25.459  0.00  0.00    +0.155 HD
BRANCH  12  14
ATOM     14  C   UNL     1      34.030 -10.775 -26.645  0.00  0.00    +0.090 C 
BRANCH  14  15
ATOM     15  C   UNL     1      34.724 -10.747 -25.283  0.00  0.00    +0.036 C 
BRANCH  15  16
ATOM     16  C   UNL     1      33.951  -9.987 -24.232  0.00  0.00    -0.022 C 
ATOM     17  C   UNL     1      34.377  -8.721 -23.832  0.00  0.00    -0.004 C 
ATOM     18  C   UNL     1      32.810 -10.552 -23.662  0.00  0.00    -0.004 C 
ATOM     19  C   UNL     1      33.663  -8.019 -22.862  0.00  0.00    -0.000 C 
ATOM     20  C   UNL     1      32.095  -9.850 -22.691  0.00  0.00    -0.000 C 
ATOM     21  C   UNL     1      32.522  -8.583 -22.291  0.00  0.00    -0.000 C 
ENDBRANCH  15  16
ENDBRANCH  14  15
ENDBRANCH  12  14
ENDBRANCH   8  11
BRANCH   1  22
ATOM     22  C   UNL     1      34.568 -17.846 -24.239  0.00  0.00    +0.097 C 
BRANCH  22  23
ATOM     23  C   UNL     1      34.444 -19.022 -23.260  0.00  0.00    +0.040 C 
BRANCH  23  24
ATOM     24  C   UNL     1      34.124 -18.630 -21.800  0.00  0.00    +0.091 C 
BRANCH  24  25
ATOM     25  N   UNL     1      33.627 -19.751 -20.985  0.00  0.00    -0.246 NA
ATOM     26  N   UNL     1      32.316 -21.241 -19.989  0.00  0.00    -0.251 NA
ATOM     27  C   UNL     1      34.380 -20.605 -20.219  0.00  0.00    +0.125 C 
ATOM     28  C   UNL     1      32.389 -20.162 -20.825  0.00  0.00    +0.201 C 
ATOM     29  C   UNL     1      33.589 -21.538 -19.591  0.00  0.00    +0.124 C 
BRANCH  29  32
ATOM     30  O   UNL     1      33.451 -23.746 -18.756  0.00  0.00    -0.269 OA
ATOM     31  N   UNL     1      34.957 -22.351 -17.766  0.00  0.00    -0.324 N 
ATOM     32  C   UNL     1      33.957 -22.599 -18.714  0.00  0.00    +0.257 C 
ATOM     33  H   UNL     1      35.235 -23.064 -17.146  0.00  0.00    +0.145 HD
ATOM     34  H   UNL     1      35.384 -21.465 -17.720  0.00  0.00    +0.145 HD
ENDBRANCH  29  32
ENDBRANCH  24  25
BRANCH  24  35
ATOM     35  C   UNL     1      35.349 -17.983 -21.133  0.00  0.00    +0.153 C 
BRANCH  35  36
ATOM     36  O   UNL     1      34.956 -16.794 -20.458  0.00  0.00    -0.381 OA
ATOM     37  H   UNL     1      34.060 -16.546 -20.735  0.00  0.00    +0.210 HD
ENDBRANCH  35  36
ENDBRANCH  24  35
ENDBRANCH  23  24
ENDBRANCH  22  23
ENDBRANCH   1  22
TORSDOF 11
ENDMDL
MODEL 6
REMARK VINA RESULT:     -11.1      2.626      4.701
REMARK  Name = 448903
REMARK  11 active torsions:
REMARK  status: ('A' for Active; 'I' for Inactive)
REMARK    1  A    between atoms: N_1  and  C_22
REMARK    2  A    between atoms: C_8  and  N_11
REMARK    3  A    between atoms: C_12  and  C_14
REMARK    4  A    between atoms: C_14  and  C_15
REMARK    5  A    between atoms: C_15  and  C_16
REMARK    6  A    between atoms: C_22  and  C_23
REMARK    7  A    between atoms: C_23  and  C_24
REMARK    8  A    between atoms: C_24  and  N_25
REMARK    9  A    between atoms: C_24  and  C_35
REMARK   10  A    between atoms: C_29  and  C_32
REMARK   11  A    between atoms: C_35  and  O_36
REMARK                            x       y       z     vdW  Elec       q    Type
REMARK                         _______ _______ _______ _____ _____    ______ ____
ROOT
ATOM      1  N   UNL     1      34.310 -21.687 -19.034  0.00  0.00    -0.286 N 
ATOM      2  C   UNL     1      34.637 -20.783 -20.020  0.00  0.00    +0.053 C 
ATOM      3  C   UNL     1      36.001 -20.509 -19.888  0.00  0.00    +0.015 C 
ATOM      4  C   UNL     1      35.415 -21.993 -18.287  0.00  0.00    +0.065 C 
ATOM      5  C   UNL     1      36.478 -21.280 -18.791  0.00  0.00    +0.017 C 
ATOM      6  C   UNL     1      33.840 -20.194 -21.007  0.00  0.00    +0.029 C 
ATOM      7  C   UNL     1      36.599 -19.601 -20.785  0.00  0.00    +0.003 C 
ATOM      8  C   UNL     1      34.456 -19.297 -21.886  0.00  0.00    +0.052 C 
ATOM      9  C   UNL     1      35.815 -19.005 -21.778  0.00  0.00    +0.015 C 
ENDROOT
BRANCH   8  11
ATOM     10  O   UNL     1      34.504 -19.668 -24.869  0.00  0.00    -0.275 OA
ATOM     11  N   UNL     1      33.697 -18.689 -22.886  0.00  0.00    -0.284 N 
ATOM     12  C   UNL     1      33.750 -18.908 -24.268  0.00  0.00    +0.226 C 
ATOM     13  H   UNL     1      33.042 -18.019 -22.582  0.00  0.00    +0.155 HD
BRANCH  12  14
ATOM     14  C   UNL     1      32.758 -18.046 -25.033  0.00  0.00    +0.090 C 
BRANCH  14  15
ATOM     15  C   UNL     1      33.459 -17.148 -26.054  0.00  0.00    +0.036 C 
BRANCH  15  16
ATOM     16  C   UNL     1      33.281 -15.675 -25.777  0.00  0.00    -0.022 C 
ATOM     17  C   UNL     1      33.481 -15.178 -24.490  0.00  0.00    -0.004 C 
ATOM     18  C   UNL     1      32.917 -14.811 -26.810  0.00  0.00    -0.004 C 
ATOM     19  C   UNL     1      33.316 -13.816 -24.234  0.00  0.00    -0.000 C 
ATOM     20  C   UNL     1      32.752 -13.449 -26.555  0.00  0.00    -0.000 C 
ATOM     21  C   UNL     1      32.952 -12.952 -25.267  0.00  0.00    -0.000 C 
ENDBRANCH  15  16
ENDBRANCH  14  15
ENDBRANCH  12  14
ENDBRANCH   8  11
BRANCH   1  22
ATOM     22  C   UNL     1      32.993 -22.243 -18.807  0.00  0.00    +0.097 C 
BRANCH  22  23
ATOM     23  C   UNL     1      32.963 -23.415 -17.818  0.00  0.00    +0.040 C 
BRANCH  23  24
ATOM     24  C   UNL     1      32.498 -23.057 -16.388  0.00  0.00    +0.091 C 
BRANCH  24  25
ATOM     25  N   UNL     1      31.074 -23.343 -16.144  0.00  0.00    -0.246 NA
ATOM     26  N   UNL     1      29.176 -24.163 -15.333  0.00  0.00    -0.251 NA
ATOM     27  C   UNL     1      30.002 -22.791 -16.800  0.00  0.00    +0.125 C 
ATOM     28  C   UNL     1      30.542 -24.165 -15.267  0.00  0.00    +0.201 C 
ATOM     29  C   UNL     1      28.814 -23.285 -16.314  0.00  0.00    +0.124 C 
BRANCH  29  32
ATOM     30  O   UNL     1      26.998 -23.276 -17.828  0.00  0.00    -0.269 OA
ATOM     31  N   UNL     1      26.648 -22.347 -15.776  0.00  0.00    -0.324 N 
ATOM     32  C   UNL     1      27.478 -22.984 -16.706  0.00  0.00    +0.257 C 
ATOM     33  H   UNL     1      25.719 -22.126 -16.016  0.00  0.00    +0.145 HD
ATOM     34  H   UNL     1      26.992 -22.120 -14.882  0.00  0.00    +0.145 HD
ENDBRANCH  29  32
ENDBRANCH  24  25
BRANCH  24  35
ATOM     35  C   UNL     1      33.375 -23.761 -15.341  0.00  0.00    +0.153 C 
BRANCH  35  36
ATOM     36  O   UNL     1      34.516 -24.328 -15.974  0.00  0.00    -0.381 OA
ATOM     37  H   UNL     1      35.299 -24.186 -15.418  0.00  0.00    +0.210 HD
ENDBRANCH  35  36
ENDBRANCH  24  35
ENDBRANCH  23  24
ENDBRANCH  22  23
ENDBRANCH   1  22
TORSDOF 11
ENDMDL
MODEL 7
REMARK VINA RESULT:     -11.1      7.727     12.738
REMARK  Name = 448903
REMARK  11 active torsions:
REMARK  status: ('A' for Active; 'I' for Inactive)
REMARK    1  A    between atoms: N_1  and  C_22
REMARK    2  A    between atoms: C_8  and  N_11
REMARK    3  A    between atoms: C_12  and  C_14
REMARK    4  A    between atoms: C_14  and  C_15
REMARK    5  A    between atoms: C_15  and  C_16
REMARK    6  A    between atoms: C_22  and  C_23
REMARK    7  A    between atoms: C_23  and  C_24
REMARK    8  A    between atoms: C_24  and  N_25
REMARK    9  A    between atoms: C_24  and  C_35
REMARK   10  A    between atoms: C_29  and  C_32
REMARK   11  A    between atoms: C_35  and  O_36
REMARK                            x       y       z     vdW  Elec       q    Type
REMARK                         _______ _______ _______ _____ _____    ______ ____
ROOT
ATOM      1  N   UNL     1      33.066 -12.159 -24.993  0.00  0.00    -0.286 N 
ATOM      2  C   UNL     1      33.081 -13.483 -25.369  0.00  0.00    +0.053 C 
ATOM      3  C   UNL     1      32.872 -13.519 -26.750  0.00  0.00    +0.015 C 
ATOM      4  C   UNL     1      32.857 -11.360 -26.084  0.00  0.00    +0.065 C 
ATOM      5  C   UNL     1      32.733 -12.172 -27.186  0.00  0.00    +0.017 C 
ATOM      6  C   UNL     1      33.261 -14.639 -24.602  0.00  0.00    +0.029 C 
ATOM      7  C   UNL     1      32.841 -14.770 -27.398  0.00  0.00    +0.003 C 
ATOM      8  C   UNL     1      33.227 -15.869 -25.267  0.00  0.00    +0.052 C 
ATOM      9  C   UNL     1      33.021 -15.935 -26.644  0.00  0.00    +0.015 C 
ENDROOT
BRANCH   8  11
ATOM     10  O   UNL     1      35.296 -16.599 -23.212  0.00  0.00    -0.275 OA
ATOM     11  N   UNL     1      33.404 -17.046 -24.539  0.00  0.00    -0.284 N 
ATOM     12  C   UNL     1      34.382 -17.332 -23.578  0.00  0.00    +0.226 C 
ATOM     13  H   UNL     1      32.760 -17.768 -24.725  0.00  0.00    +0.155 HD
BRANCH  12  14
ATOM     14  C   UNL     1      34.243 -18.733 -23.005  0.00  0.00    +0.090 C 
BRANCH  14  15
ATOM     15  C   UNL     1      35.094 -18.916 -21.748  0.00  0.00    +0.036 C 
BRANCH  15  16
ATOM     16  C   UNL     1      34.572 -19.987 -20.822  0.00  0.00    -0.022 C 
ATOM     17  C   UNL     1      35.461 -20.848 -20.179  0.00  0.00    -0.004 C 
ATOM     18  C   UNL     1      33.199 -20.115 -20.607  0.00  0.00    -0.004 C 
ATOM     19  C   UNL     1      34.978 -21.839 -19.324  0.00  0.00    -0.000 C 
ATOM     20  C   UNL     1      32.716 -21.105 -19.752  0.00  0.00    -0.000 C 
ATOM     21  C   UNL     1      33.606 -21.967 -19.110  0.00  0.00    -0.000 C 
ENDBRANCH  15  16
ENDBRANCH  14  15
ENDBRANCH  12  14
ENDBRANCH   8  11
BRANCH   1  22
ATOM     22  C   UNL     1      33.243 -11.667 -23.643  0.00  0.00    +0.097 C 
BRANCH  22  23
ATOM     23  C   UNL     1      31.991 -11.771 -22.762  0.00  0.00    +0.040 C 
BRANCH  23  24
ATOM     24  C   UNL     1      32.106 -11.099 -21.375  0.00  0.00    +0.091 C 
BRANCH  24  25
ATOM     25  N   UNL     1      31.782  -9.663 -21.389  0.00  0.00    -0.246 NA
ATOM     26  N   UNL     1      30.975  -7.667 -21.937  0.00  0.00    -0.251 NA
ATOM     27  C   UNL     1      32.184  -8.723 -20.473  0.00  0.00    +0.125 C 
ATOM     28  C   UNL     1      31.055  -8.995 -22.257  0.00  0.00    +0.201 C 
ATOM     29  C   UNL     1      31.696  -7.477 -20.792  0.00  0.00    +0.124 C 
BRANCH  29  32
ATOM     30  O   UNL     1      32.548  -6.096 -19.072  0.00  0.00    -0.269 OA
ATOM     31  N   UNL     1      31.263  -5.098 -20.668  0.00  0.00    -0.324 N 
ATOM     32  C   UNL     1      31.868  -6.234 -20.118  0.00  0.00    +0.257 C 
ATOM     33  H   UNL     1      31.364  -4.224 -20.226  0.00  0.00    +0.145 HD
ATOM     34  H   UNL     1      30.736  -5.173 -21.497  0.00  0.00    +0.145 HD
ENDBRANCH  29  32
ENDBRANCH  24  25
BRANCH  24  35
ATOM     35  C   UNL     1      31.238 -11.836 -20.343  0.00  0.00    +0.153 C 
BRANCH  35  36
ATOM     36  O   UNL     1      31.515 -13.231 -20.392  0.00  0.00    -0.381 OA
ATOM     37  H   UNL     1      31.238 -13.645 -19.560  0.00  0.00    +0.210 HD
ENDBRANCH  35  36
ENDBRANCH  24  35
ENDBRANCH  23  24
ENDBRANCH  22  23
ENDBRANCH   1  22
TORSDOF 11
ENDMDL
MODEL 8
REMARK VINA RESULT:     -11.0      5.612     10.807
REMARK  Name = 448903
REMARK  11 active torsions:
REMARK  status: ('A' for Active; 'I' for Inactive)
REMARK    1  A    between atoms: N_1  and  C_22
REMARK    2  A    between atoms: C_8  and  N_11
REMARK    3  A    between atoms: C_12  and  C_14
REMARK    4  A    between atoms: C_14  and  C_15
REMARK    5  A    between atoms: C_15  and  C_16
REMARK    6  A    between atoms: C_22  and  C_23
REMARK    7  A    between atoms: C_23  and  C_24
REMARK    8  A    between atoms: C_24  and  N_25
REMARK    9  A    between atoms: C_24  and  C_35
REMARK   10  A    between atoms: C_29  and  C_32
REMARK   11  A    between atoms: C_35  and  O_36
REMARK                            x       y       z     vdW  Elec       q    Type
REMARK                         _______ _______ _______ _____ _____    ______ ____
ROOT
ATOM      1  N   UNL     1      34.337 -16.480 -23.764  0.00  0.00    -0.286 N 
ATOM      2  C   UNL     1      33.863 -15.332 -24.360  0.00  0.00    +0.053 C 
ATOM      3  C   UNL     1      33.518 -15.665 -25.672  0.00  0.00    +0.015 C 
ATOM      4  C   UNL     1      34.302 -17.522 -24.651  0.00  0.00    +0.065 C 
ATOM      5  C   UNL     1      33.799 -17.049 -25.840  0.00  0.00    +0.017 C 
ATOM      6  C   UNL     1      33.716 -14.040 -23.843  0.00  0.00    +0.029 C 
ATOM      7  C   UNL     1      32.999 -14.658 -26.512  0.00  0.00    +0.003 C 
ATOM      8  C   UNL     1      33.199 -13.059 -24.695  0.00  0.00    +0.052 C 
ATOM      9  C   UNL     1      32.845 -13.362 -26.008  0.00  0.00    +0.015 C 
ENDROOT
BRANCH   8  11
ATOM     10  O   UNL     1      34.956 -10.637 -24.990  0.00  0.00    -0.275 OA
ATOM     11  N   UNL     1      33.034 -11.757 -24.219  0.00  0.00    -0.284 N 
ATOM     12  C   UNL     1      33.881 -10.656 -24.397  0.00  0.00    +0.226 C 
ATOM     13  H   UNL     1      32.220 -11.592 -23.690  0.00  0.00    +0.155 HD
BRANCH  12  14
ATOM     14  C   UNL     1      33.354  -9.401 -23.720  0.00  0.00    +0.090 C 
BRANCH  14  15
ATOM     15  C   UNL     1      31.881  -9.542 -23.335  0.00  0.00    +0.036 C 
BRANCH  15  16
ATOM     16  C   UNL     1      31.666  -9.726 -21.852  0.00  0.00    -0.022 C 
ATOM     17  C   UNL     1      31.660  -8.618 -21.006  0.00  0.00    -0.004 C 
ATOM     18  C   UNL     1      31.472 -11.005 -21.329  0.00  0.00    -0.004 C 
ATOM     19  C   UNL     1      31.461  -8.787 -19.635  0.00  0.00    -0.000 C 
ATOM     20  C   UNL     1      31.273 -11.174 -19.958  0.00  0.00    -0.000 C 
ATOM     21  C   UNL     1      31.267 -10.066 -19.112  0.00  0.00    -0.000 C 
ENDBRANCH  15  16
ENDBRANCH  14  15
ENDBRANCH  12  14
ENDBRANCH   8  11
BRANCH   1  22
ATOM     22  C   UNL     1      34.808 -16.586 -22.399  0.00  0.00    +0.097 C 
BRANCH  22  23
ATOM     23  C   UNL     1      34.575 -17.958 -21.755  0.00  0.00    +0.040 C 
BRANCH  23  24
ATOM     24  C   UNL     1      35.848 -18.664 -21.234  0.00  0.00    +0.091 C 
BRANCH  24  25
ATOM     25  N   UNL     1      35.569 -19.885 -20.460  0.00  0.00    -0.246 NA
ATOM     26  N   UNL     1      35.764 -21.656 -19.134  0.00  0.00    -0.251 NA
ATOM     27  C   UNL     1      34.373 -20.554 -20.387  0.00  0.00    +0.125 C 
ATOM     28  C   UNL     1      36.385 -20.574 -19.694  0.00  0.00    +0.201 C 
ATOM     29  C   UNL     1      34.469 -21.656 -19.571  0.00  0.00    +0.124 C 
BRANCH  29  32
ATOM     30  O   UNL     1      33.593 -23.848 -19.431  0.00  0.00    -0.269 OA
ATOM     31  N   UNL     1      32.316 -22.161 -18.583  0.00  0.00    -0.324 N 
ATOM     32  C   UNL     1      33.477 -22.617 -19.220  0.00  0.00    +0.257 C 
ATOM     33  H   UNL     1      31.612 -22.800 -18.328  0.00  0.00    +0.145 HD
ATOM     34  H   UNL     1      32.204 -21.202 -18.391  0.00  0.00    +0.145 HD
ENDBRANCH  29  32
ENDBRANCH  24  25
BRANCH  24  35
ATOM     35  C   UNL     1      36.810 -18.970 -22.393  0.00  0.00    +0.153 C 
BRANCH  35  36
ATOM     36  O   UNL     1      38.144 -18.665 -22.003  0.00  0.00    -0.381 OA
ATOM     37  H   UNL     1      38.758 -18.957 -22.695  0.00  0.00    +0.210 HD
ENDBRANCH  35  36
ENDBRANCH  24  35
ENDBRANCH  23  24
ENDBRANCH  22  23
ENDBRANCH   1  22
TORSDOF 11
ENDMDL
MODEL 9
REMARK VINA RESULT:     -10.8      6.338     12.091
REMARK  Name = 448903
REMARK  11 active torsions:
REMARK  status: ('A' for Active; 'I' for Inactive)
REMARK    1  A    between atoms: N_1  and  C_22
REMARK    2  A    between atoms: C_8  and  N_11
REMARK    3  A    between atoms: C_12  and  C_14
REMARK    4  A    between atoms: C_14  and  C_15
REMARK    5  A    between atoms: C_15  and  C_16
REMARK    6  A    between atoms: C_22  and  C_23
REMARK    7  A    between atoms: C_23  and  C_24
REMARK    8  A    between atoms: C_24  and  N_25
REMARK    9  A    between atoms: C_24  and  C_35
REMARK   10  A    between atoms: C_29  and  C_32
REMARK   11  A    between atoms: C_35  and  O_36
REMARK                            x       y       z     vdW  Elec       q    Type
REMARK                         _______ _______ _______ _____ _____    ______ ____
ROOT
ATOM      1  N   UNL     1      32.704 -10.857 -23.941  0.00  0.00    -0.286 N 
ATOM      2  C   UNL     1      32.875 -11.930 -23.096  0.00  0.00    +0.053 C 
ATOM      3  C   UNL     1      32.207 -11.626 -21.907  0.00  0.00    +0.015 C 
ATOM      4  C   UNL     1      31.954  -9.889 -23.331  0.00  0.00    +0.065 C 
ATOM      5  C   UNL     1      31.630 -10.335 -22.071  0.00  0.00    +0.017 C 
ATOM      6  C   UNL     1      33.562 -13.134 -23.291  0.00  0.00    +0.029 C 
ATOM      7  C   UNL     1      32.225 -12.569 -20.860  0.00  0.00    +0.003 C 
ATOM      8  C   UNL     1      33.565 -14.054 -22.237  0.00  0.00    +0.052 C 
ATOM      9  C   UNL     1      32.907 -13.777 -21.040  0.00  0.00    +0.015 C 
ENDROOT
BRANCH   8  11
ATOM     10  O   UNL     1      34.627 -15.969 -20.178  0.00  0.00    -0.275 OA
ATOM     11  N   UNL     1      34.237 -15.267 -22.390  0.00  0.00    -0.284 N 
ATOM     12  C   UNL     1      34.701 -16.133 -21.392  0.00  0.00    +0.226 C 
ATOM     13  H   UNL     1      34.407 -15.551 -23.318  0.00  0.00    +0.155 HD
BRANCH  12  14
ATOM     14  C   UNL     1      35.389 -17.363 -21.962  0.00  0.00    +0.090 C 
BRANCH  14  15
ATOM     15  C   UNL     1      34.382 -18.454 -22.328  0.00  0.00    +0.036 C 
BRANCH  15  16
ATOM     16  C   UNL     1      34.299 -19.560 -21.304  0.00  0.00    -0.022 C 
ATOM     17  C   UNL     1      33.055 -20.040 -20.895  0.00  0.00    -0.004 C 
ATOM     18  C   UNL     1      35.467 -20.103 -20.768  0.00  0.00    -0.004 C 
ATOM     19  C   UNL     1      32.978 -21.062 -19.948  0.00  0.00    -0.000 C 
ATOM     20  C   UNL     1      35.390 -21.125 -19.821  0.00  0.00    -0.000 C 
ATOM     21  C   UNL     1      34.146 -21.605 -19.412  0.00  0.00    -0.000 C 
ENDBRANCH  15  16
ENDBRANCH  14  15
ENDBRANCH  12  14
ENDBRANCH   8  11
BRANCH   1  22
ATOM     22  C   UNL     1      33.235 -10.751 -25.284  0.00  0.00    +0.097 C 
BRANCH  22  23
ATOM     23  C   UNL     1      32.623 -11.740 -26.285  0.00  0.00    +0.040 C 
BRANCH  23  24
ATOM     24  C   UNL     1      33.580 -12.845 -26.785  0.00  0.00    +0.091 C 
BRANCH  24  25
ATOM     25  N   UNL     1      32.935 -14.160 -26.932  0.00  0.00    -0.246 NA
ATOM     26  N   UNL     1      31.598 -15.817 -27.562  0.00  0.00    -0.251 NA
ATOM     27  C   UNL     1      33.285 -15.321 -26.287  0.00  0.00    +0.125 C 
ATOM     28  C   UNL     1      31.917 -14.494 -27.692  0.00  0.00    +0.201 C 
ATOM     29  C   UNL     1      32.469 -16.363 -26.662  0.00  0.00    +0.124 C 
BRANCH  29  32
ATOM     30  O   UNL     1      33.479 -18.478 -26.355  0.00  0.00    -0.269 OA
ATOM     31  N   UNL     1      31.325 -18.240 -25.647  0.00  0.00    -0.324 N 
ATOM     32  C   UNL     1      32.483 -17.723 -26.242  0.00  0.00    +0.257 C 
ATOM     33  H   UNL     1      31.303 -19.177 -25.346  0.00  0.00    +0.145 HD
ATOM     34  H   UNL     1      30.533 -17.666 -25.531  0.00  0.00    +0.145 HD
ENDBRANCH  29  32
ENDBRANCH  24  25
BRANCH  24  35
ATOM     35  C   UNL     1      34.249 -12.425 -28.105  0.00  0.00    +0.153 C 
BRANCH  35  36
ATOM     36  O   UNL     1      35.139 -13.447 -28.538  0.00  0.00    -0.381 OA
ATOM     37  H   UNL     1      35.172 -14.151 -27.872  0.00  0.00    +0.210 HD
ENDBRANCH  35  36
ENDBRANCH  24  35
ENDBRANCH  23  24
ENDBRANCH  22  23
ENDBRANCH   1  22
TORSDOF 11
ENDMDL
