MODEL 1
REMARK VINA RESULT:     -11.8      0.000      0.000
REMARK  Name = 23650961
REMARK  5 active torsions:
REMARK  status: ('A' for Active; 'I' for Inactive)
REMARK    1  A    between atoms: N_1  and  C_23
REMARK    2  A    between atoms: C_5  and  C_12
REMARK    3  A    between atoms: C_23  and  C_24
REMARK    4  A    between atoms: C_24  and  C_25
REMARK    5  A    between atoms: C_25  and  C_27
REMARK                            x       y       z     vdW  Elec       q    Type
REMARK                         _______ _______ _______ _____ _____    ______ ____
ROOT
ATOM      1  N   UNL     1      35.073 -20.331 -20.898  0.00  0.00    -0.268 N 
ATOM      2  N   UNL     1      34.300 -21.798 -19.238  0.00  0.00    -0.342 NA
ATOM      3  N   UNL     1      36.422 -20.681 -19.010  0.00  0.00    -0.170 NA
ATOM      4  C   UNL     1      35.272 -20.956 -19.677  0.00  0.00    +0.144 C 
ATOM      5  C   UNL     1      35.659 -22.181 -17.289  0.00  0.00    +0.061 C 
ATOM      6  C   UNL     1      34.525 -22.390 -18.047  0.00  0.00    +0.123 C 
ATOM      7  C   UNL     1      36.583 -21.307 -17.826  0.00  0.00    +0.113 C 
ATOM      8  C   UNL     1      33.448 -23.313 -17.575  0.00  0.00    +0.067 C 
ATOM      9  H   UNL     1      34.242 -20.523 -21.388  0.00  0.00    +0.159 HD
ENDROOT
BRANCH   5  12
ATOM     10  N   UNL     1      35.031 -22.670 -14.964  0.00  0.00    -0.314 N 
ATOM     11  N   UNL     1      36.908 -23.594 -15.714  0.00  0.00    -0.315 N 
ATOM     12  C   UNL     1      35.890 -22.818 -16.020  0.00  0.00    +0.171 C 
ATOM     13  C   UNL     1      35.527 -23.396 -13.912  0.00  0.00    +0.059 C 
ATOM     14  C   UNL     1      36.699 -23.964 -14.405  0.00  0.00    +0.055 C 
ATOM     15  C   UNL     1      37.468 -24.786 -13.564  0.00  0.00    -0.008 C 
ATOM     16  C   UNL     1      35.065 -23.600 -12.611  0.00  0.00    +0.011 C 
ATOM     17  C   UNL     1      35.844 -24.420 -11.787  0.00  0.00    -0.021 C 
ATOM     18  C   UNL     1      37.024 -25.003 -12.253  0.00  0.00    -0.007 C 
ATOM     19  C   UNL     1      38.737 -25.432 -14.015  0.00  0.00    +0.032 C 
ATOM     20  C   UNL     1      35.402 -24.677 -10.384  0.00  0.00    +0.031 C 
ATOM     21  H   UNL     1      34.204 -22.137 -14.961  0.00  0.00    +0.149 HD
ATOM     22  H   UNL     1      37.658 -23.855 -16.296  0.00  0.00    +0.149 HD
ENDBRANCH   5  12
BRANCH   1  23
ATOM     23  C   UNL     1      36.016 -19.413 -21.490  0.00  0.00    +0.098 C 
BRANCH  23  24
ATOM     24  C   UNL     1      35.311 -18.450 -22.441  0.00  0.00    +0.022 C 
BRANCH  24  25
ATOM     25  C   UNL     1      34.616 -19.174 -23.596  0.00  0.00    +0.002 C 
BRANCH  25  27
ATOM     26  N   UNL     1      32.914 -16.628 -26.642  0.00  0.00    +0.385 N 
ATOM     27  C   UNL     1      33.629 -18.254 -24.310  0.00  0.00    -0.004 C 
ATOM     28  C   UNL     1      33.158 -18.872 -25.630  0.00  0.00    -0.023 C 
ATOM     29  C   UNL     1      34.249 -16.879 -24.575  0.00  0.00    -0.023 C 
ATOM     30  C   UNL     1      32.247 -17.914 -26.400  0.00  0.00    -0.077 C 
ATOM     31  C   UNL     1      33.302 -15.986 -25.379  0.00  0.00    -0.077 C 
ATOM     32  C   UNL     1      32.051 -15.741 -27.422  0.00  0.00    -0.101 C 
ATOM     33  H   UNL     1      33.764 -16.810 -27.176  0.00  0.00    -0.080 HD
ENDBRANCH  25  27
ENDBRANCH  24  25
ENDBRANCH  23  24
ENDBRANCH   1  23
TORSDOF 5
ENDMDL
MODEL 2
REMARK VINA RESULT:     -11.5      2.684     11.906
REMARK  Name = 23650961
REMARK  5 active torsions:
REMARK  status: ('A' for Active; 'I' for Inactive)
REMARK    1  A    between atoms: N_1  and  C_23
REMARK    2  A    between atoms: C_5  and  C_12
REMARK    3  A    between atoms: C_23  and  C_24
REMARK    4  A    between atoms: C_24  and  C_25
REMARK    5  A    between atoms: C_25  and  C_27
REMARK                            x       y       z     vdW  Elec       q    Type
REMARK                         _______ _______ _______ _____ _____    ______ ____
ROOT
ATOM      1  N   UNL     1      35.907 -20.000 -19.852  0.00  0.00    -0.268 N 
ATOM      2  N   UNL     1      35.389 -17.896 -20.754  0.00  0.00    -0.342 NA
ATOM      3  N   UNL     1      34.899 -19.918 -21.969  0.00  0.00    -0.170 NA
ATOM      4  C   UNL     1      35.381 -19.248 -20.891  0.00  0.00    +0.144 C 
ATOM      5  C   UNL     1      34.355 -17.776 -22.925  0.00  0.00    +0.061 C 
ATOM      6  C   UNL     1      34.872 -17.195 -21.783  0.00  0.00    +0.123 C 
ATOM      7  C   UNL     1      34.396 -19.155 -22.963  0.00  0.00    +0.113 C 
ATOM      8  C   UNL     1      34.886 -15.710 -21.620  0.00  0.00    +0.067 C 
ATOM      9  H   UNL     1      36.259 -19.523 -19.066  0.00  0.00    +0.159 HD
ENDROOT
BRANCH   5  12
ATOM     10  N   UNL     1      33.983 -15.666 -24.127  0.00  0.00    -0.314 N 
ATOM     11  N   UNL     1      33.095 -17.499 -25.015  0.00  0.00    -0.315 N 
ATOM     12  C   UNL     1      33.806 -17.019 -24.017  0.00  0.00    +0.171 C 
ATOM     13  C   UNL     1      33.344 -15.248 -25.266  0.00  0.00    +0.059 C 
ATOM     14  C   UNL     1      32.799 -16.410 -25.803  0.00  0.00    +0.055 C 
ATOM     15  C   UNL     1      32.064 -16.334 -26.999  0.00  0.00    -0.008 C 
ATOM     16  C   UNL     1      33.202 -13.991 -25.856  0.00  0.00    +0.011 C 
ATOM     17  C   UNL     1      32.468 -13.933 -27.045  0.00  0.00    -0.021 C 
ATOM     18  C   UNL     1      31.908 -15.081 -27.608  0.00  0.00    -0.007 C 
ATOM     19  C   UNL     1      31.445 -17.533 -27.640  0.00  0.00    +0.032 C 
ATOM     20  C   UNL     1      32.281 -12.616 -27.725  0.00  0.00    +0.031 C 
ATOM     21  H   UNL     1      34.480 -15.094 -23.499  0.00  0.00    +0.149 HD
ATOM     22  H   UNL     1      32.831 -18.436 -25.166  0.00  0.00    +0.149 HD
ENDBRANCH   5  12
BRANCH   1  23
ATOM     23  C   UNL     1      35.966 -21.442 -19.857  0.00  0.00    +0.098 C 
BRANCH  23  24
ATOM     24  C   UNL     1      35.304 -22.015 -18.607  0.00  0.00    +0.022 C 
BRANCH  24  25
ATOM     25  C   UNL     1      33.824 -22.335 -18.824  0.00  0.00    +0.002 C 
BRANCH  25  27
ATOM     26  N   UNL     1      32.221 -23.374 -14.950  0.00  0.00    +0.385 N 
ATOM     27  C   UNL     1      33.269 -23.181 -17.681  0.00  0.00    -0.004 C 
ATOM     28  C   UNL     1      31.848 -22.742 -17.312  0.00  0.00    -0.023 C 
ATOM     29  C   UNL     1      34.172 -23.101 -16.446  0.00  0.00    -0.023 C 
ATOM     30  C   UNL     1      31.322 -23.517 -16.103  0.00  0.00    -0.077 C 
ATOM     31  C   UNL     1      33.569 -23.865 -15.266  0.00  0.00    -0.077 C 
ATOM     32  C   UNL     1      31.680 -24.078 -13.787  0.00  0.00    -0.101 C 
ATOM     33  H   UNL     1      32.292 -22.381 -14.727  0.00  0.00    -0.080 HD
ENDBRANCH  25  27
ENDBRANCH  24  25
ENDBRANCH  23  24
ENDBRANCH   1  23
TORSDOF 5
ENDMDL
MODEL 3
REMARK VINA RESULT:     -11.4      2.216      3.730
REMARK  Name = 23650961
REMARK  5 active torsions:
REMARK  status: ('A' for Active; 'I' for Inactive)
REMARK    1  A    between atoms: N_1  and  C_23
REMARK    2  A    between atoms: C_5  and  C_12
REMARK    3  A    between atoms: C_23  and  C_24
REMARK    4  A    between atoms: C_24  and  C_25
REMARK    5  A    between atoms: C_25  and  C_27
REMARK                            x       y       z     vdW  Elec       q    Type
REMARK                         _______ _______ _______ _____ _____    ______ ____
ROOT
ATOM      1  N   UNL     1      34.692 -19.122 -22.715  0.00  0.00    -0.268 N 
ATOM      2  N   UNL     1      35.316 -20.415 -20.858  0.00  0.00    -0.342 NA
ATOM      3  N   UNL     1      32.995 -19.999 -21.353  0.00  0.00    -0.170 NA
ATOM      4  C   UNL     1      34.322 -19.869 -21.607  0.00  0.00    +0.144 C 
ATOM      5  C   UNL     1      33.600 -21.328 -19.439  0.00  0.00    +0.061 C 
ATOM      6  C   UNL     1      34.921 -21.134 -19.788  0.00  0.00    +0.123 C 
ATOM      7  C   UNL     1      32.670 -20.730 -20.266  0.00  0.00    +0.113 C 
ATOM      8  C   UNL     1      36.023 -21.729 -18.972  0.00  0.00    +0.067 C 
ATOM      9  H   UNL     1      35.652 -19.023 -22.908  0.00  0.00    +0.159 HD
ENDROOT
BRANCH   5  12
ATOM     10  N   UNL     1      31.870 -22.307 -17.994  0.00  0.00    -0.314 N 
ATOM     11  N   UNL     1      33.985 -22.676 -17.421  0.00  0.00    -0.315 N 
ATOM     12  C   UNL     1      33.189 -22.096 -18.294  0.00  0.00    +0.171 C 
ATOM     13  C   UNL     1      31.813 -23.069 -16.856  0.00  0.00    +0.059 C 
ATOM     14  C   UNL     1      33.146 -23.287 -16.518  0.00  0.00    +0.055 C 
ATOM     15  C   UNL     1      33.448 -24.049 -15.377  0.00  0.00    -0.008 C 
ATOM     16  C   UNL     1      30.743 -23.573 -16.115  0.00  0.00    +0.011 C 
ATOM     17  C   UNL     1      31.061 -24.329 -14.982  0.00  0.00    -0.021 C 
ATOM     18  C   UNL     1      32.388 -24.564 -14.617  0.00  0.00    -0.007 C 
ATOM     19  C   UNL     1      34.850 -24.328 -14.945  0.00  0.00    +0.032 C 
ATOM     20  C   UNL     1      29.959 -24.896 -14.149  0.00  0.00    +0.031 C 
ATOM     21  H   UNL     1      31.099 -21.970 -18.504  0.00  0.00    +0.149 HD
ATOM     22  H   UNL     1      34.970 -22.673 -17.415  0.00  0.00    +0.149 HD
ENDBRANCH   5  12
BRANCH   1  23
ATOM     23  C   UNL     1      33.750 -18.484 -23.602  0.00  0.00    +0.098 C 
BRANCH  23  24
ATOM     24  C   UNL     1      33.989 -18.913 -25.047  0.00  0.00    +0.022 C 
BRANCH  24  25
ATOM     25  C   UNL     1      32.737 -18.772 -25.913  0.00  0.00    +0.002 C 
BRANCH  25  27
ATOM     26  N   UNL     1      32.393 -14.787 -27.542  0.00  0.00    +0.385 N 
ATOM     27  C   UNL     1      32.322 -17.309 -26.051  0.00  0.00    -0.004 C 
ATOM     28  C   UNL     1      31.507 -17.086 -27.329  0.00  0.00    -0.023 C 
ATOM     29  C   UNL     1      33.546 -16.387 -26.050  0.00  0.00    -0.023 C 
ATOM     30  C   UNL     1      31.174 -15.607 -27.526  0.00  0.00    -0.077 C 
ATOM     31  C   UNL     1      33.145 -14.931 -26.288  0.00  0.00    -0.077 C 
ATOM     32  C   UNL     1      32.062 -13.382 -27.782  0.00  0.00    -0.101 C 
ATOM     33  H   UNL     1      32.985 -15.118 -28.304  0.00  0.00    -0.080 HD
ENDBRANCH  25  27
ENDBRANCH  24  25
ENDBRANCH  23  24
ENDBRANCH   1  23
TORSDOF 5
ENDMDL
MODEL 4
REMARK VINA RESULT:     -11.3      4.450     12.538
REMARK  Name = 23650961
REMARK  5 active torsions:
REMARK  status: ('A' for Active; 'I' for Inactive)
REMARK    1  A    between atoms: N_1  and  C_23
REMARK    2  A    between atoms: C_5  and  C_12
REMARK    3  A    between atoms: C_23  and  C_24
REMARK    4  A    between atoms: C_24  and  C_25
REMARK    5  A    between atoms: C_25  and  C_27
REMARK                            x       y       z     vdW  Elec       q    Type
REMARK                         _______ _______ _______ _____ _____    ______ ____
ROOT
ATOM      1  N   UNL     1      34.016 -17.977 -25.212  0.00  0.00    -0.268 N 
ATOM      2  N   UNL     1      33.217 -15.855 -25.818  0.00  0.00    -0.342 NA
ATOM      3  N   UNL     1      34.389 -16.189 -23.739  0.00  0.00    -0.170 NA
ATOM      4  C   UNL     1      33.870 -16.631 -24.913  0.00  0.00    +0.144 C 
ATOM      5  C   UNL     1      33.581 -13.999 -24.330  0.00  0.00    +0.061 C 
ATOM      6  C   UNL     1      33.091 -14.552 -25.496  0.00  0.00    +0.123 C 
ATOM      7  C   UNL     1      34.228 -14.874 -23.480  0.00  0.00    +0.113 C 
ATOM      8  C   UNL     1      32.372 -13.709 -26.499  0.00  0.00    +0.067 C 
ATOM      9  H   UNL     1      33.644 -18.307 -26.061  0.00  0.00    +0.159 HD
ENDROOT
BRANCH   5  12
ATOM     10  N   UNL     1      32.401 -12.142 -23.236  0.00  0.00    -0.314 N 
ATOM     11  N   UNL     1      34.255 -11.636 -24.353  0.00  0.00    -0.315 N 
ATOM     12  C   UNL     1      33.441 -12.607 -23.995  0.00  0.00    +0.171 C 
ATOM     13  C   UNL     1      32.554 -10.786 -23.098  0.00  0.00    +0.059 C 
ATOM     14  C   UNL     1      33.718 -10.494 -23.803  0.00  0.00    +0.055 C 
ATOM     15  C   UNL     1      34.168  -9.165 -23.863  0.00  0.00    -0.008 C 
ATOM     16  C   UNL     1      31.797  -9.819 -22.435  0.00  0.00    +0.011 C 
ATOM     17  C   UNL     1      32.259  -8.500 -22.505  0.00  0.00    -0.021 C 
ATOM     18  C   UNL     1      33.423  -8.177 -23.205  0.00  0.00    -0.007 C 
ATOM     19  C   UNL     1      35.406  -8.768 -24.599  0.00  0.00    +0.032 C 
ATOM     20  C   UNL     1      31.493  -7.420 -21.815  0.00  0.00    +0.031 C 
ATOM     21  H   UNL     1      31.673 -12.684 -22.857  0.00  0.00    +0.149 HD
ATOM     22  H   UNL     1      35.072 -11.710 -24.899  0.00  0.00    +0.149 HD
ENDBRANCH   5  12
BRANCH   1  23
ATOM     23  C   UNL     1      34.685 -18.920 -24.349  0.00  0.00    +0.098 C 
BRANCH  23  24
ATOM     24  C   UNL     1      34.080 -18.897 -22.948  0.00  0.00    +0.022 C 
BRANCH  24  25
ATOM     25  C   UNL     1      35.144 -18.949 -21.851  0.00  0.00    +0.002 C 
BRANCH  25  27
ATOM     26  N   UNL     1      33.641 -22.147 -19.368  0.00  0.00    +0.385 N 
ATOM     27  C   UNL     1      34.630 -19.688 -20.618  0.00  0.00    -0.004 C 
ATOM     28  C   UNL     1      35.556 -20.852 -20.249  0.00  0.00    -0.023 C 
ATOM     29  C   UNL     1      33.207 -20.208 -20.840  0.00  0.00    -0.023 C 
ATOM     30  C   UNL     1      34.996 -21.658 -19.076  0.00  0.00    -0.077 C 
ATOM     31  C   UNL     1      32.724 -21.035 -19.647  0.00  0.00    -0.077 C 
ATOM     32  C   UNL     1      33.139 -22.959 -18.259  0.00  0.00    -0.101 C 
ATOM     33  H   UNL     1      33.691 -22.731 -20.203  0.00  0.00    -0.080 HD
ENDBRANCH  25  27
ENDBRANCH  24  25
ENDBRANCH  23  24
ENDBRANCH   1  23
TORSDOF 5
ENDMDL
MODEL 5
REMARK VINA RESULT:     -11.3      1.590     12.274
REMARK  Name = 23650961
REMARK  5 active torsions:
REMARK  status: ('A' for Active; 'I' for Inactive)
REMARK    1  A    between atoms: N_1  and  C_23
REMARK    2  A    between atoms: C_5  and  C_12
REMARK    3  A    between atoms: C_23  and  C_24
REMARK    4  A    between atoms: C_24  and  C_25
REMARK    5  A    between atoms: C_25  and  C_27
REMARK                            x       y       z     vdW  Elec       q    Type
REMARK                         _______ _______ _______ _____ _____    ______ ____
ROOT
ATOM      1  N   UNL     1      35.962 -19.883 -19.878  0.00  0.00    -0.268 N 
ATOM      2  N   UNL     1      35.347 -17.787 -20.734  0.00  0.00    -0.342 NA
ATOM      3  N   UNL     1      35.030 -19.794 -22.029  0.00  0.00    -0.170 NA
ATOM      4  C   UNL     1      35.429 -19.131 -20.913  0.00  0.00    +0.144 C 
ATOM      5  C   UNL     1      34.388 -17.659 -22.939  0.00  0.00    +0.061 C 
ATOM      6  C   UNL     1      34.824 -17.085 -21.761  0.00  0.00    +0.123 C 
ATOM      7  C   UNL     1      34.517 -19.031 -23.017  0.00  0.00    +0.113 C 
ATOM      8  C   UNL     1      34.738 -15.608 -21.552  0.00  0.00    +0.067 C 
ATOM      9  H   UNL     1      36.254 -19.412 -19.065  0.00  0.00    +0.159 HD
ENDROOT
BRANCH   5  12
ATOM     10  N   UNL     1      34.008 -15.549 -24.138  0.00  0.00    -0.314 N 
ATOM     11  N   UNL     1      33.116 -17.382 -25.023  0.00  0.00    -0.315 N 
ATOM     12  C   UNL     1      33.832 -16.902 -24.028  0.00  0.00    +0.171 C 
ATOM     13  C   UNL     1      33.363 -15.131 -25.274  0.00  0.00    +0.059 C 
ATOM     14  C   UNL     1      32.815 -16.293 -25.809  0.00  0.00    +0.055 C 
ATOM     15  C   UNL     1      32.074 -16.217 -27.000  0.00  0.00    -0.008 C 
ATOM     16  C   UNL     1      33.217 -13.874 -25.862  0.00  0.00    +0.011 C 
ATOM     17  C   UNL     1      32.476 -13.815 -27.047  0.00  0.00    -0.021 C 
ATOM     18  C   UNL     1      31.914 -14.964 -27.608  0.00  0.00    -0.007 C 
ATOM     19  C   UNL     1      31.453 -17.416 -27.638  0.00  0.00    +0.032 C 
ATOM     20  C   UNL     1      32.285 -12.498 -27.726  0.00  0.00    +0.031 C 
ATOM     21  H   UNL     1      34.508 -14.977 -23.513  0.00  0.00    +0.149 HD
ATOM     22  H   UNL     1      32.852 -18.319 -25.172  0.00  0.00    +0.149 HD
ENDBRANCH   5  12
BRANCH   1  23
ATOM     23  C   UNL     1      36.112 -21.318 -19.925  0.00  0.00    +0.098 C 
BRANCH  23  24
ATOM     24  C   UNL     1      35.530 -21.964 -18.671  0.00  0.00    +0.022 C 
BRANCH  24  25
ATOM     25  C   UNL     1      36.441 -21.801 -17.453  0.00  0.00    +0.002 C 
BRANCH  25  27
ATOM     26  N   UNL     1      35.102 -23.457 -13.695  0.00  0.00    +0.385 N 
ATOM     27  C   UNL     1      36.111 -22.830 -16.375  0.00  0.00    -0.004 C 
ATOM     28  C   UNL     1      34.618 -22.810 -16.033  0.00  0.00    -0.023 C 
ATOM     29  C   UNL     1      36.935 -22.584 -15.107  0.00  0.00    -0.023 C 
ATOM     30  C   UNL     1      34.296 -23.767 -14.884  0.00  0.00    -0.077 C 
ATOM     31  C   UNL     1      36.538 -23.549 -13.989  0.00  0.00    -0.077 C 
ATOM     32  C   UNL     1      34.748 -24.346 -12.589  0.00  0.00    -0.101 C 
ATOM     33  H   UNL     1      34.898 -22.496 -13.419  0.00  0.00    -0.080 HD
ENDBRANCH  25  27
ENDBRANCH  24  25
ENDBRANCH  23  24
ENDBRANCH   1  23
TORSDOF 5
ENDMDL
MODEL 6
REMARK VINA RESULT:     -11.1      4.845      8.780
REMARK  Name = 23650961
REMARK  5 active torsions:
REMARK  status: ('A' for Active; 'I' for Inactive)
REMARK    1  A    between atoms: N_1  and  C_23
REMARK    2  A    between atoms: C_5  and  C_12
REMARK    3  A    between atoms: C_23  and  C_24
REMARK    4  A    between atoms: C_24  and  C_25
REMARK    5  A    between atoms: C_25  and  C_27
REMARK                            x       y       z     vdW  Elec       q    Type
REMARK                         _______ _______ _______ _____ _____    ______ ____
ROOT
ATOM      1  N   UNL     1      33.074 -14.505 -27.434  0.00  0.00    -0.268 N 
ATOM      2  N   UNL     1      33.477 -16.701 -26.712  0.00  0.00    -0.342 NA
ATOM      3  N   UNL     1      33.452 -14.869 -25.147  0.00  0.00    -0.170 NA
ATOM      4  C   UNL     1      33.342 -15.386 -26.398  0.00  0.00    +0.144 C 
ATOM      5  C   UNL     1      33.869 -17.110 -24.372  0.00  0.00    +0.061 C 
ATOM      6  C   UNL     1      33.738 -17.530 -25.681  0.00  0.00    +0.123 C 
ATOM      7  C   UNL     1      33.715 -15.754 -24.163  0.00  0.00    +0.113 C 
ATOM      8  C   UNL     1      33.883 -18.974 -26.039  0.00  0.00    +0.067 C 
ATOM      9  H   UNL     1      32.992 -14.870 -28.344  0.00  0.00    +0.159 HD
ENDROOT
BRANCH   5  12
ATOM     10  N   UNL     1      35.421 -18.207 -22.815  0.00  0.00    -0.314 N 
ATOM     11  N   UNL     1      33.266 -18.708 -22.607  0.00  0.00    -0.315 N 
ATOM     12  C   UNL     1      34.150 -18.002 -23.280  0.00  0.00    +0.171 C 
ATOM     13  C   UNL     1      35.352 -19.103 -21.779  0.00  0.00    +0.059 C 
ATOM     14  C   UNL     1      33.996 -19.400 -21.668  0.00  0.00    +0.055 C 
ATOM     15  C   UNL     1      33.572 -20.306 -20.681  0.00  0.00    -0.008 C 
ATOM     16  C   UNL     1      36.329 -19.662 -20.954  0.00  0.00    +0.011 C 
ATOM     17  C   UNL     1      35.889 -20.562 -19.978  0.00  0.00    -0.021 C 
ATOM     18  C   UNL     1      34.537 -20.880 -19.842  0.00  0.00    -0.007 C 
ATOM     19  C   UNL     1      32.137 -20.679 -20.497  0.00  0.00    +0.032 C 
ATOM     20  C   UNL     1      36.887 -21.193 -19.063  0.00  0.00    +0.031 C 
ATOM     21  H   UNL     1      36.240 -17.788 -23.164  0.00  0.00    +0.149 HD
ATOM     22  H   UNL     1      32.291 -18.736 -22.745  0.00  0.00    +0.149 HD
ENDBRANCH   5  12
BRANCH   1  23
ATOM     23  C   UNL     1      32.906 -13.083 -27.253  0.00  0.00    +0.098 C 
BRANCH  23  24
ATOM     24  C   UNL     1      34.137 -12.326 -27.743  0.00  0.00    +0.022 C 
BRANCH  24  25
ATOM     25  C   UNL     1      34.576 -11.231 -26.769  0.00  0.00    +0.002 C 
BRANCH  25  27
ATOM     26  N   UNL     1      32.576  -9.544 -23.333  0.00  0.00    +0.385 N 
ATOM     27  C   UNL     1      33.467 -10.901 -25.773  0.00  0.00    -0.004 C 
ATOM     28  C   UNL     1      33.206  -9.392 -25.720  0.00  0.00    -0.023 C 
ATOM     29  C   UNL     1      33.813 -11.417 -24.373  0.00  0.00    -0.023 C 
ATOM     30  C   UNL     1      32.168  -9.044 -24.652  0.00  0.00    -0.077 C 
ATOM     31  C   UNL     1      32.754 -11.002 -23.350  0.00  0.00    -0.077 C 
ATOM     32  C   UNL     1      31.600  -9.159 -22.314  0.00  0.00    -0.101 C 
ATOM     33  H   UNL     1      33.475  -9.120 -23.100  0.00  0.00    -0.080 HD
ENDBRANCH  25  27
ENDBRANCH  24  25
ENDBRANCH  23  24
ENDBRANCH   1  23
TORSDOF 5
ENDMDL
MODEL 7
REMARK VINA RESULT:     -11.0      1.958     11.289
REMARK  Name = 23650961
REMARK  5 active torsions:
REMARK  status: ('A' for Active; 'I' for Inactive)
REMARK    1  A    between atoms: N_1  and  C_23
REMARK    2  A    between atoms: C_5  and  C_12
REMARK    3  A    between atoms: C_23  and  C_24
REMARK    4  A    between atoms: C_24  and  C_25
REMARK    5  A    between atoms: C_25  and  C_27
REMARK                            x       y       z     vdW  Elec       q    Type
REMARK                         _______ _______ _______ _____ _____    ______ ____
ROOT
ATOM      1  N   UNL     1      35.575 -21.872 -18.453  0.00  0.00    -0.268 N 
ATOM      2  N   UNL     1      33.966 -20.936 -19.883  0.00  0.00    -0.342 NA
ATOM      3  N   UNL     1      36.245 -20.156 -19.906  0.00  0.00    -0.170 NA
ATOM      4  C   UNL     1      35.252 -20.959 -19.446  0.00  0.00    +0.144 C 
ATOM      5  C   UNL     1      34.620 -19.173 -21.385  0.00  0.00    +0.061 C 
ATOM      6  C   UNL     1      33.686 -20.036 -20.848  0.00  0.00    +0.123 C 
ATOM      7  C   UNL     1      35.896 -19.279 -20.871  0.00  0.00    +0.113 C 
ATOM      8  C   UNL     1      32.269 -20.021 -21.320  0.00  0.00    +0.067 C 
ATOM      9  H   UNL     1      34.862 -22.459 -18.113  0.00  0.00    +0.159 HD
ENDROOT
BRANCH   5  12
ATOM     10  N   UNL     1      33.904 -18.597 -23.664  0.00  0.00    -0.314 N 
ATOM     11  N   UNL     1      34.373 -16.906 -22.300  0.00  0.00    -0.315 N 
ATOM     12  C   UNL     1      34.311 -18.216 -22.414  0.00  0.00    +0.171 C 
ATOM     13  C   UNL     1      33.691 -17.461 -24.402  0.00  0.00    +0.059 C 
ATOM     14  C   UNL     1      33.989 -16.419 -23.529  0.00  0.00    +0.055 C 
ATOM     15  C   UNL     1      33.871 -15.093 -23.978  0.00  0.00    -0.008 C 
ATOM     16  C   UNL     1      33.274 -17.262 -25.719  0.00  0.00    +0.011 C 
ATOM     17  C   UNL     1      33.162 -15.936 -26.151  0.00  0.00    -0.021 C 
ATOM     18  C   UNL     1      33.455 -14.870 -25.298  0.00  0.00    -0.007 C 
ATOM     19  C   UNL     1      34.174 -13.920 -23.106  0.00  0.00    +0.032 C 
ATOM     20  C   UNL     1      32.720 -15.657 -27.550  0.00  0.00    +0.031 C 
ATOM     21  H   UNL     1      33.785 -19.522 -23.978  0.00  0.00    +0.149 HD
ATOM     22  H   UNL     1      34.636 -16.386 -21.506  0.00  0.00    +0.149 HD
ENDBRANCH   5  12
BRANCH   1  23
ATOM     23  C   UNL     1      36.897 -22.011 -17.891  0.00  0.00    +0.098 C 
BRANCH  23  24
ATOM     24  C   UNL     1      36.855 -21.884 -16.371  0.00  0.00    +0.022 C 
BRANCH  24  25
ATOM     25  C   UNL     1      36.581 -23.221 -15.681  0.00  0.00    +0.002 C 
BRANCH  25  27
ATOM     26  N   UNL     1      32.802 -24.669 -14.170  0.00  0.00    +0.385 N 
ATOM     27  C   UNL     1      35.211 -23.223 -15.007  0.00  0.00    -0.004 C 
ATOM     28  C   UNL     1      35.195 -24.165 -13.798  0.00  0.00    -0.023 C 
ATOM     29  C   UNL     1      34.112 -23.629 -15.993  0.00  0.00    -0.023 C 
ATOM     30  C   UNL     1      33.800 -24.250 -13.177  0.00  0.00    -0.077 C 
ATOM     31  C   UNL     1      32.752 -23.732 -15.300  0.00  0.00    -0.077 C 
ATOM     32  C   UNL     1      31.483 -24.796 -13.551  0.00  0.00    -0.101 C 
ATOM     33  H   UNL     1      33.082 -25.582 -14.532  0.00  0.00    -0.080 HD
ENDBRANCH  25  27
ENDBRANCH  24  25
ENDBRANCH  23  24
ENDBRANCH   1  23
TORSDOF 5
ENDMDL
MODEL 8
REMARK VINA RESULT:     -11.0      2.668     11.769
REMARK  Name = 23650961
REMARK  5 active torsions:
REMARK  status: ('A' for Active; 'I' for Inactive)
REMARK    1  A    between atoms: N_1  and  C_23
REMARK    2  A    between atoms: C_5  and  C_12
REMARK    3  A    between atoms: C_23  and  C_24
REMARK    4  A    between atoms: C_24  and  C_25
REMARK    5  A    between atoms: C_25  and  C_27
REMARK                            x       y       z     vdW  Elec       q    Type
REMARK                         _______ _______ _______ _____ _____    ______ ____
ROOT
ATOM      1  N   UNL     1      35.582 -20.741 -20.646  0.00  0.00    -0.268 N 
ATOM      2  N   UNL     1      34.800 -19.752 -22.626  0.00  0.00    -0.342 NA
ATOM      3  N   UNL     1      35.333 -18.409 -20.698  0.00  0.00    -0.170 NA
ATOM      4  C   UNL     1      35.228 -19.598 -21.345  0.00  0.00    +0.144 C 
ATOM      5  C   UNL     1      34.533 -17.362 -22.713  0.00  0.00    +0.061 C 
ATOM      6  C   UNL     1      34.463 -18.620 -23.276  0.00  0.00    +0.123 C 
ATOM      7  C   UNL     1      34.979 -17.316 -21.408  0.00  0.00    +0.113 C 
ATOM      8  C   UNL     1      33.995 -18.804 -24.684  0.00  0.00    +0.067 C 
ATOM      9  H   UNL     1      35.509 -21.608 -21.106  0.00  0.00    +0.159 HD
ENDROOT
BRANCH   5  12
ATOM     10  N   UNL     1      34.314 -14.919 -22.857  0.00  0.00    -0.314 N 
ATOM     11  N   UNL     1      33.675 -16.091 -24.633  0.00  0.00    -0.315 N 
ATOM     12  C   UNL     1      34.170 -16.160 -23.415  0.00  0.00    +0.171 C 
ATOM     13  C   UNL     1      33.884 -13.992 -23.772  0.00  0.00    +0.059 C 
ATOM     14  C   UNL     1      33.491 -14.749 -24.872  0.00  0.00    +0.055 C 
ATOM     15  C   UNL     1      32.990 -14.094 -26.010  0.00  0.00    -0.008 C 
ATOM     16  C   UNL     1      33.808 -12.599 -23.733  0.00  0.00    +0.011 C 
ATOM     17  C   UNL     1      33.306 -11.964 -24.873  0.00  0.00    -0.021 C 
ATOM     18  C   UNL     1      32.904 -12.695 -25.993  0.00  0.00    -0.007 C 
ATOM     19  C   UNL     1      32.547 -14.832 -27.231  0.00  0.00    +0.032 C 
ATOM     20  C   UNL     1      33.202 -10.474 -24.893  0.00  0.00    +0.031 C 
ATOM     21  H   UNL     1      34.663 -14.725 -21.957  0.00  0.00    +0.149 HD
ATOM     22  H   UNL     1      33.479 -16.840 -25.243  0.00  0.00    +0.149 HD
ENDBRANCH   5  12
BRANCH   1  23
ATOM     23  C   UNL     1      36.052 -20.732 -19.282  0.00  0.00    +0.098 C 
BRANCH  23  24
ATOM     24  C   UNL     1      35.542 -21.955 -18.525  0.00  0.00    +0.022 C 
BRANCH  24  25
ATOM     25  C   UNL     1      34.057 -22.219 -18.776  0.00  0.00    +0.002 C 
BRANCH  25  27
ATOM     26  N   UNL     1      32.279 -23.333 -15.000  0.00  0.00    +0.385 N 
ATOM     27  C   UNL     1      33.456 -23.088 -17.673  0.00  0.00    -0.004 C 
ATOM     28  C   UNL     1      32.014 -22.671 -17.368  0.00  0.00    -0.023 C 
ATOM     29  C   UNL     1      34.297 -23.016 -16.395  0.00  0.00    -0.023 C 
ATOM     30  C   UNL     1      31.439 -23.469 -16.197  0.00  0.00    -0.077 C 
ATOM     31  C   UNL     1      33.647 -23.804 -15.256  0.00  0.00    -0.077 C 
ATOM     32  C   UNL     1      31.690 -24.060 -13.875  0.00  0.00    -0.101 C 
ATOM     33  H   UNL     1      32.327 -22.342 -14.760  0.00  0.00    -0.080 HD
ENDBRANCH  25  27
ENDBRANCH  24  25
ENDBRANCH  23  24
ENDBRANCH   1  23
TORSDOF 5
ENDMDL
MODEL 9
REMARK VINA RESULT:     -11.0      2.976     12.397
REMARK  Name = 23650961
REMARK  5 active torsions:
REMARK  status: ('A' for Active; 'I' for Inactive)
REMARK    1  A    between atoms: N_1  and  C_23
REMARK    2  A    between atoms: C_5  and  C_12
REMARK    3  A    between atoms: C_23  and  C_24
REMARK    4  A    between atoms: C_24  and  C_25
REMARK    5  A    between atoms: C_25  and  C_27
REMARK                            x       y       z     vdW  Elec       q    Type
REMARK                         _______ _______ _______ _____ _____    ______ ____
ROOT
ATOM      1  N   UNL     1      35.299 -19.031 -20.406  0.00  0.00    -0.268 N 
ATOM      2  N   UNL     1      34.869 -16.736 -20.645  0.00  0.00    -0.342 NA
ATOM      3  N   UNL     1      34.744 -18.222 -22.537  0.00  0.00    -0.170 NA
ATOM      4  C   UNL     1      34.960 -17.963 -21.222  0.00  0.00    +0.144 C 
ATOM      5  C   UNL     1      34.298 -15.873 -22.818  0.00  0.00    +0.061 C 
ATOM      6  C   UNL     1      34.538 -15.720 -21.467  0.00  0.00    +0.123 C 
ATOM      7  C   UNL     1      34.417 -17.160 -23.303  0.00  0.00    +0.113 C 
ATOM      8  C   UNL     1      34.441 -14.376 -20.820  0.00  0.00    +0.067 C 
ATOM      9  H   UNL     1      35.457 -18.853 -19.451  0.00  0.00    +0.159 HD
ENDROOT
BRANCH   5  12
ATOM     10  N   UNL     1      34.260 -13.483 -23.388  0.00  0.00    -0.314 N 
ATOM     11  N   UNL     1      33.308 -14.877 -24.834  0.00  0.00    -0.315 N 
ATOM     12  C   UNL     1      33.947 -14.782 -23.687  0.00  0.00    +0.171 C 
ATOM     13  C   UNL     1      33.793 -12.692 -24.406  0.00  0.00    +0.059 C 
ATOM     14  C   UNL     1      33.204 -13.585 -25.296  0.00  0.00    +0.055 C 
ATOM     15  C   UNL     1      32.616 -13.092 -26.473  0.00  0.00    -0.008 C 
ATOM     16  C   UNL     1      33.835 -11.313 -24.619  0.00  0.00    +0.011 C 
ATOM     17  C   UNL     1      33.245 -10.839 -25.795  0.00  0.00    -0.021 C 
ATOM     18  C   UNL     1      32.646 -11.710 -26.707  0.00  0.00    -0.007 C 
ATOM     19  C   UNL     1      31.963 -13.982 -27.479  0.00  0.00    +0.032 C 
ATOM     20  C   UNL     1      33.259  -9.373 -26.079  0.00  0.00    +0.031 C 
ATOM     21  H   UNL     1      34.736 -13.173 -22.585  0.00  0.00    +0.149 HD
ATOM     22  H   UNL     1      32.976 -15.696 -25.268  0.00  0.00    +0.149 HD
ENDBRANCH   5  12
BRANCH   1  23
ATOM     23  C   UNL     1      35.433 -20.388 -20.877  0.00  0.00    +0.098 C 
BRANCH  23  24
ATOM     24  C   UNL     1      35.240 -21.380 -19.733  0.00  0.00    +0.022 C 
BRANCH  24  25
ATOM     25  C   UNL     1      33.770 -21.735 -19.510  0.00  0.00    +0.002 C 
BRANCH  25  27
ATOM     26  N   UNL     1      33.162 -23.232 -15.503  0.00  0.00    +0.385 N 
ATOM     27  C   UNL     1      33.609 -22.722 -18.355  0.00  0.00    -0.004 C 
ATOM     28  C   UNL     1      32.231 -22.583 -17.701  0.00  0.00    -0.023 C 
ATOM     29  C   UNL     1      34.704 -22.521 -17.303  0.00  0.00    -0.023 C 
ATOM     30  C   UNL     1      32.098 -23.496 -16.481  0.00  0.00    -0.077 C 
ATOM     31  C   UNL     1      34.490 -23.437 -16.096  0.00  0.00    -0.077 C 
ATOM     32  C   UNL     1      32.993 -24.076 -14.321  0.00  0.00    -0.101 C 
ATOM     33  H   UNL     1      33.093 -22.254 -15.219  0.00  0.00    -0.080 HD
ENDBRANCH  25  27
ENDBRANCH  24  25
ENDBRANCH  23  24
ENDBRANCH   1  23
TORSDOF 5
ENDMDL
