MODEL 1
REMARK VINA RESULT:     -12.0      0.000      0.000
REMARK  Name = 24958200
REMARK  3 active torsions:
REMARK  status: ('A' for Active; 'I' for Inactive)
REMARK    1  A    between atoms: N_1  and  C_13
REMARK    2  A    between atoms: C_6  and  C_26
REMARK    3  A    between atoms: C_10  and  C_17
REMARK                            x       y       z     vdW  Elec       q    Type
REMARK                         _______ _______ _______ _____ _____    ______ ____
ROOT
ATOM      1  N   UNL     1      35.909 -23.118 -15.745  0.00  0.00    -0.189 N 
ATOM      2  N   UNL     1      37.069 -23.764 -15.518  0.00  0.00    -0.174 NA
ATOM      3  C   UNL     1      35.659 -23.878 -13.741  0.00  0.00    +0.036 C 
ATOM      4  C   UNL     1      35.022 -23.154 -14.709  0.00  0.00    +0.091 C 
ATOM      5  C   UNL     1      36.947 -24.253 -14.270  0.00  0.00    +0.105 C 
ATOM      6  C   UNL     1      37.845 -25.013 -13.498  0.00  0.00    +0.072 C 
ATOM      7  C   UNL     1      35.142 -24.185 -12.488  0.00  0.00    +0.003 C 
ATOM      8  C   UNL     1      37.349 -25.341 -12.217  0.00  0.00    +0.006 C 
ATOM      9  C   UNL     1      36.060 -24.945 -11.738  0.00  0.00    +0.000 C 
ENDROOT
BRANCH   1  13
ATOM     10  C   UNL     1      35.263 -21.207 -19.398  0.00  0.00    -0.024 C 
ATOM     11  C   UNL     1      34.265 -22.009 -18.844  0.00  0.00    -0.003 C 
ATOM     12  C   UNL     1      36.477 -21.042 -18.730  0.00  0.00    -0.003 C 
ATOM     13  C   UNL     1      35.695 -22.485 -16.956  0.00  0.00    +0.074 C 
ATOM     14  C   UNL     1      34.481 -22.648 -17.623  0.00  0.00    +0.016 C 
ATOM     15  C   UNL     1      36.693 -21.682 -17.509  0.00  0.00    +0.016 C 
BRANCH  10  17
ATOM     16  N   UNL     1      33.373 -19.341 -22.157  0.00  0.00    +0.384 N 
ATOM     17  C   UNL     1      35.029 -20.512 -20.727  0.00  0.00    +0.001 C 
ATOM     18  C   UNL     1      36.045 -19.384 -20.968  0.00  0.00    +0.000 C 
ATOM     19  C   UNL     1      33.588 -19.983 -20.857  0.00  0.00    -0.077 C 
ATOM     20  C   UNL     1      35.750 -18.677 -22.288  0.00  0.00    -0.023 C 
ATOM     21  C   UNL     1      34.294 -18.223 -22.362  0.00  0.00    -0.082 C 
ATOM     22  H   UNL     1      32.415 -18.995 -22.201  0.00  0.00    -0.085 HD
ATOM     23  H   UNL     1      33.542 -20.034 -22.887  0.00  0.00    -0.085 HD
ENDBRANCH  10  17
ENDBRANCH   1  13
BRANCH   6  26
ATOM     24  O   UNL     1      40.153 -24.694 -13.834  0.00  0.00    -0.270 OA
ATOM     25  N   UNL     1      39.269 -26.681 -14.558  0.00  0.00    -0.325 N 
ATOM     26  C   UNL     1      39.151 -25.424 -13.965  0.00  0.00    +0.244 C 
ATOM     27  H   UNL     1      40.144 -26.991 -14.887  0.00  0.00    +0.145 HD
ATOM     28  H   UNL     1      38.477 -27.260 -14.648  0.00  0.00    +0.145 HD
ENDBRANCH   6  26
TORSDOF 3
ENDMDL
MODEL 2
REMARK VINA RESULT:     -11.9      4.634      5.965
REMARK  Name = 24958200
REMARK  3 active torsions:
REMARK  status: ('A' for Active; 'I' for Inactive)
REMARK    1  A    between atoms: N_1  and  C_13
REMARK    2  A    between atoms: C_6  and  C_26
REMARK    3  A    between atoms: C_10  and  C_17
REMARK                            x       y       z     vdW  Elec       q    Type
REMARK                         _______ _______ _______ _____ _____    ______ ____
ROOT
ATOM      1  N   UNL     1      32.182 -22.751 -17.348  0.00  0.00    -0.189 N 
ATOM      2  N   UNL     1      30.839 -22.864 -17.344  0.00  0.00    -0.174 NA
ATOM      3  C   UNL     1      31.793 -23.873 -15.546  0.00  0.00    +0.036 C 
ATOM      4  C   UNL     1      32.808 -23.341 -16.289  0.00  0.00    +0.091 C 
ATOM      5  C   UNL     1      30.560 -23.561 -16.228  0.00  0.00    +0.105 C 
ATOM      6  C   UNL     1      29.324 -23.982 -15.701  0.00  0.00    +0.072 C 
ATOM      7  C   UNL     1      31.942 -24.578 -14.358  0.00  0.00    +0.003 C 
ATOM      8  C   UNL     1      29.442 -24.703 -14.493  0.00  0.00    +0.006 C 
ATOM      9  C   UNL     1      30.691 -24.986 -13.854  0.00  0.00    +0.000 C 
ENDROOT
BRANCH   1  13
ATOM     10  C   UNL     1      34.097 -20.725 -20.452  0.00  0.00    -0.024 C 
ATOM     11  C   UNL     1      34.825 -21.577 -19.622  0.00  0.00    -0.003 C 
ATOM     12  C   UNL     1      32.728 -20.550 -20.245  0.00  0.00    -0.003 C 
ATOM     13  C   UNL     1      32.816 -22.079 -18.376  0.00  0.00    +0.074 C 
ATOM     14  C   UNL     1      34.185 -22.254 -18.584  0.00  0.00    +0.016 C 
ATOM     15  C   UNL     1      32.088 -21.227 -19.207  0.00  0.00    +0.016 C 
BRANCH  10  17
ATOM     16  N   UNL     1      34.496 -18.450 -23.506  0.00  0.00    +0.384 N 
ATOM     17  C   UNL     1      34.793 -19.986 -21.581  0.00  0.00    +0.001 C 
ATOM     18  C   UNL     1      35.959 -19.127 -21.066  0.00  0.00    +0.000 C 
ATOM     19  C   UNL     1      33.812 -19.132 -22.405  0.00  0.00    -0.077 C 
ATOM     20  C   UNL     1      36.604 -18.361 -22.219  0.00  0.00    -0.023 C 
ATOM     21  C   UNL     1      35.563 -17.578 -23.016  0.00  0.00    -0.082 C 
ATOM     22  H   UNL     1      33.818 -17.888 -24.021  0.00  0.00    -0.085 HD
ATOM     23  H   UNL     1      34.914 -19.158 -24.112  0.00  0.00    -0.085 HD
ENDBRANCH  10  17
ENDBRANCH   1  13
BRANCH   6  26
ATOM     24  O   UNL     1      27.623 -24.397 -17.276  0.00  0.00    -0.270 OA
ATOM     25  N   UNL     1      27.296 -22.640 -15.840  0.00  0.00    -0.325 N 
ATOM     26  C   UNL     1      28.052 -23.704 -16.331  0.00  0.00    +0.244 C 
ATOM     27  H   UNL     1      26.425 -22.425 -16.246  0.00  0.00    +0.145 HD
ATOM     28  H   UNL     1      27.632 -22.104 -15.086  0.00  0.00    +0.145 HD
ENDBRANCH   6  26
TORSDOF 3
ENDMDL
MODEL 3
REMARK VINA RESULT:     -11.3      2.919      3.979
REMARK  Name = 24958200
REMARK  3 active torsions:
REMARK  status: ('A' for Active; 'I' for Inactive)
REMARK    1  A    between atoms: N_1  and  C_13
REMARK    2  A    between atoms: C_6  and  C_26
REMARK    3  A    between atoms: C_10  and  C_17
REMARK                            x       y       z     vdW  Elec       q    Type
REMARK                         _______ _______ _______ _____ _____    ______ ____
ROOT
ATOM      1  N   UNL     1      32.423 -22.763 -17.215  0.00  0.00    -0.189 N 
ATOM      2  N   UNL     1      33.197 -23.178 -16.193  0.00  0.00    -0.174 NA
ATOM      3  C   UNL     1      31.011 -23.718 -15.892  0.00  0.00    +0.036 C 
ATOM      4  C   UNL     1      31.098 -23.061 -17.087  0.00  0.00    +0.091 C 
ATOM      5  C   UNL     1      32.345 -23.782 -15.345  0.00  0.00    +0.105 C 
ATOM      6  C   UNL     1      32.581 -24.406 -14.106  0.00  0.00    +0.072 C 
ATOM      7  C   UNL     1      29.846 -24.223 -15.329  0.00  0.00    +0.003 C 
ATOM      8  C   UNL     1      31.415 -24.930 -13.507  0.00  0.00    +0.006 C 
ATOM      9  C   UNL     1      30.112 -24.842 -14.091  0.00  0.00    +0.000 C 
ENDROOT
BRANCH   1  13
ATOM     10  C   UNL     1      34.131 -20.730 -20.434  0.00  0.00    -0.024 C 
ATOM     11  C   UNL     1      32.761 -20.628 -20.192  0.00  0.00    -0.003 C 
ATOM     12  C   UNL     1      34.931 -21.512 -19.599  0.00  0.00    -0.003 C 
ATOM     13  C   UNL     1      32.989 -22.090 -18.282  0.00  0.00    +0.074 C 
ATOM     14  C   UNL     1      32.190 -21.308 -19.117  0.00  0.00    +0.016 C 
ATOM     15  C   UNL     1      34.360 -22.192 -18.524  0.00  0.00    +0.016 C 
BRANCH  10  17
ATOM     16  N   UNL     1      34.317 -18.535 -23.566  0.00  0.00    +0.384 N 
ATOM     17  C   UNL     1      34.753 -19.993 -21.606  0.00  0.00    +0.001 C 
ATOM     18  C   UNL     1      35.887 -19.058 -21.155  0.00  0.00    +0.000 C 
ATOM     19  C   UNL     1      33.703 -19.217 -22.424  0.00  0.00    -0.077 C 
ATOM     20  C   UNL     1      36.455 -18.297 -22.350  0.00  0.00    -0.023 C 
ATOM     21  C   UNL     1      35.350 -17.594 -23.136  0.00  0.00    -0.082 C 
ATOM     22  H   UNL     1      33.594 -18.025 -24.075  0.00  0.00    -0.085 HD
ATOM     23  H   UNL     1      34.752 -19.239 -24.163  0.00  0.00    -0.085 HD
ENDBRANCH  10  17
ENDBRANCH   1  13
BRANCH   6  26
ATOM     24  O   UNL     1      34.100 -24.135 -12.327  0.00  0.00    -0.270 OA
ATOM     25  N   UNL     1      34.925 -25.051 -14.260  0.00  0.00    -0.325 N 
ATOM     26  C   UNL     1      33.891 -24.506 -13.500  0.00  0.00    +0.244 C 
ATOM     27  H   UNL     1      35.829 -25.133 -13.877  0.00  0.00    +0.145 HD
ATOM     28  H   UNL     1      34.752 -25.354 -15.181  0.00  0.00    +0.145 HD
ENDBRANCH   6  26
TORSDOF 3
ENDMDL
MODEL 4
REMARK VINA RESULT:     -11.1      5.763     12.452
REMARK  Name = 24958200
REMARK  3 active torsions:
REMARK  status: ('A' for Active; 'I' for Inactive)
REMARK    1  A    between atoms: N_1  and  C_13
REMARK    2  A    between atoms: C_6  and  C_26
REMARK    3  A    between atoms: C_10  and  C_17
REMARK                            x       y       z     vdW  Elec       q    Type
REMARK                         _______ _______ _______ _____ _____    ______ ____
ROOT
ATOM      1  N   UNL     1      33.972 -15.405 -23.608  0.00  0.00    -0.189 N 
ATOM      2  N   UNL     1      33.416 -15.416 -24.835  0.00  0.00    -0.174 NA
ATOM      3  C   UNL     1      33.838 -13.308 -24.101  0.00  0.00    +0.036 C 
ATOM      4  C   UNL     1      34.248 -14.162 -23.116  0.00  0.00    +0.091 C 
ATOM      5  C   UNL     1      33.317 -14.118 -25.176  0.00  0.00    +0.105 C 
ATOM      6  C   UNL     1      32.813 -13.519 -26.345  0.00  0.00    +0.072 C 
ATOM      7  C   UNL     1      33.918 -11.922 -24.056  0.00  0.00    +0.003 C 
ATOM      8  C   UNL     1      32.879 -12.108 -26.329  0.00  0.00    +0.006 C 
ATOM      9  C   UNL     1      33.407 -11.349 -25.237  0.00  0.00    +0.000 C 
ENDROOT
BRANCH   1  13
ATOM     10  C   UNL     1      34.714 -18.997 -21.619  0.00  0.00    -0.024 C 
ATOM     11  C   UNL     1      35.000 -17.783 -20.996  0.00  0.00    -0.003 C 
ATOM     12  C   UNL     1      34.180 -19.011 -22.908  0.00  0.00    -0.003 C 
ATOM     13  C   UNL     1      34.219 -16.595 -22.949  0.00  0.00    +0.074 C 
ATOM     14  C   UNL     1      34.752 -16.582 -21.661  0.00  0.00    +0.016 C 
ATOM     15  C   UNL     1      33.932 -17.810 -23.573  0.00  0.00    +0.016 C 
BRANCH  10  17
ATOM     16  N   UNL     1      36.495 -21.498 -19.330  0.00  0.00    +0.384 N 
ATOM     17  C   UNL     1      34.985 -20.304 -20.897  0.00  0.00    +0.001 C 
ATOM     18  C   UNL     1      33.765 -20.774 -20.089  0.00  0.00    +0.000 C 
ATOM     19  C   UNL     1      36.233 -20.220 -19.997  0.00  0.00    -0.077 C 
ATOM     20  C   UNL     1      34.089 -22.062 -19.337  0.00  0.00    -0.023 C 
ATOM     21  C   UNL     1      35.361 -21.915 -18.505  0.00  0.00    -0.082 C 
ATOM     22  H   UNL     1      37.318 -21.399 -18.737  0.00  0.00    -0.085 HD
ATOM     23  H   UNL     1      36.647 -22.208 -20.048  0.00  0.00    -0.085 HD
ENDBRANCH  10  17
ENDBRANCH   1  13
BRANCH   6  26
ATOM     24  O   UNL     1      32.979 -15.070 -28.108  0.00  0.00    -0.270 OA
ATOM     25  N   UNL     1      30.933 -14.087 -27.786  0.00  0.00    -0.325 N 
ATOM     26  C   UNL     1      32.277 -14.269 -27.459  0.00  0.00    +0.244 C 
ATOM     27  H   UNL     1      30.537 -14.583 -28.539  0.00  0.00    +0.145 HD
ATOM     28  H   UNL     1      30.379 -13.463 -27.263  0.00  0.00    +0.145 HD
ENDBRANCH   6  26
TORSDOF 3
ENDMDL
MODEL 5
REMARK VINA RESULT:     -11.0      2.347      3.681
REMARK  Name = 24958200
REMARK  3 active torsions:
REMARK  status: ('A' for Active; 'I' for Inactive)
REMARK    1  A    between atoms: N_1  and  C_13
REMARK    2  A    between atoms: C_6  and  C_26
REMARK    3  A    between atoms: C_10  and  C_17
REMARK                            x       y       z     vdW  Elec       q    Type
REMARK                         _______ _______ _______ _____ _____    ______ ____
ROOT
ATOM      1  N   UNL     1      33.550 -22.082 -18.282  0.00  0.00    -0.189 N 
ATOM      2  N   UNL     1      34.554 -22.609 -17.556  0.00  0.00    -0.174 NA
ATOM      3  C   UNL     1      32.513 -23.179 -16.739  0.00  0.00    +0.036 C 
ATOM      4  C   UNL     1      32.298 -22.392 -17.836  0.00  0.00    +0.091 C 
ATOM      5  C   UNL     1      33.941 -23.304 -16.581  0.00  0.00    +0.105 C 
ATOM      6  C   UNL     1      34.481 -24.064 -15.526  0.00  0.00    +0.072 C 
ATOM      7  C   UNL     1      31.525 -23.744 -15.943  0.00  0.00    +0.003 C 
ATOM      8  C   UNL     1      33.501 -24.652 -14.696  0.00  0.00    +0.006 C 
ATOM      9  C   UNL     1      32.092 -24.498 -14.896  0.00  0.00    +0.000 C 
ENDROOT
BRANCH   1  13
ATOM     10  C   UNL     1      34.398 -19.700 -21.601  0.00  0.00    -0.024 C 
ATOM     11  C   UNL     1      33.075 -19.904 -21.209  0.00  0.00    -0.003 C 
ATOM     12  C   UNL     1      35.438 -20.292 -20.883  0.00  0.00    -0.003 C 
ATOM     13  C   UNL     1      33.831 -21.293 -19.382  0.00  0.00    +0.074 C 
ATOM     14  C   UNL     1      32.792 -20.701 -20.100  0.00  0.00    +0.016 C 
ATOM     15  C   UNL     1      35.154 -21.088 -19.774  0.00  0.00    +0.016 C 
BRANCH  10  17
ATOM     16  N   UNL     1      34.067 -18.279 -25.142  0.00  0.00    +0.384 N 
ATOM     17  C   UNL     1      34.707 -18.835 -22.810  0.00  0.00    +0.001 C 
ATOM     18  C   UNL     1      34.727 -17.341 -22.452  0.00  0.00    +0.000 C 
ATOM     19  C   UNL     1      33.736 -19.102 -23.976  0.00  0.00    -0.077 C 
ATOM     20  C   UNL     1      34.991 -16.499 -23.698  0.00  0.00    -0.023 C 
ATOM     21  C   UNL     1      34.020 -16.853 -24.822  0.00  0.00    -0.082 C 
ATOM     22  H   UNL     1      33.398 -18.475 -25.886  0.00  0.00    -0.085 HD
ATOM     23  H   UNL     1      35.017 -18.511 -25.438  0.00  0.00    -0.085 HD
ENDBRANCH  10  17
ENDBRANCH   1  13
BRANCH   6  26
ATOM     24  O   UNL     1      36.433 -25.360 -15.293  0.00  0.00    -0.270 OA
ATOM     25  N   UNL     1      36.676 -23.086 -15.129  0.00  0.00    -0.325 N 
ATOM     26  C   UNL     1      35.901 -24.232 -15.308  0.00  0.00    +0.244 C 
ATOM     27  H   UNL     1      37.646 -23.166 -14.979  0.00  0.00    +0.145 HD
ATOM     28  H   UNL     1      36.254 -22.197 -15.155  0.00  0.00    +0.145 HD
ENDBRANCH   6  26
TORSDOF 3
ENDMDL
MODEL 6
REMARK VINA RESULT:     -10.9      3.880     10.171
REMARK  Name = 24958200
REMARK  3 active torsions:
REMARK  status: ('A' for Active; 'I' for Inactive)
REMARK    1  A    between atoms: N_1  and  C_13
REMARK    2  A    between atoms: C_6  and  C_26
REMARK    3  A    between atoms: C_10  and  C_17
REMARK                            x       y       z     vdW  Elec       q    Type
REMARK                         _______ _______ _______ _____ _____    ______ ____
ROOT
ATOM      1  N   UNL     1      34.515 -19.006 -22.209  0.00  0.00    -0.189 N 
ATOM      2  N   UNL     1      34.501 -17.673 -22.011  0.00  0.00    -0.174 NA
ATOM      3  C   UNL     1      34.203 -18.222 -24.196  0.00  0.00    +0.036 C 
ATOM      4  C   UNL     1      34.341 -19.393 -23.506  0.00  0.00    +0.091 C 
ATOM      5  C   UNL     1      34.307 -17.150 -23.235  0.00  0.00    +0.105 C 
ATOM      6  C   UNL     1      34.205 -15.808 -23.646  0.00  0.00    +0.072 C 
ATOM      7  C   UNL     1      34.001 -18.107 -25.565  0.00  0.00    +0.003 C 
ATOM      8  C   UNL     1      33.999 -15.658 -25.036  0.00  0.00    +0.006 C 
ATOM      9  C   UNL     1      33.902 -16.755 -25.948  0.00  0.00    +0.000 C 
ENDROOT
BRANCH   1  13
ATOM     10  C   UNL     1      35.071 -21.592 -18.982  0.00  0.00    -0.024 C 
ATOM     11  C   UNL     1      33.796 -21.408 -19.517  0.00  0.00    -0.003 C 
ATOM     12  C   UNL     1      36.161 -20.912 -19.527  0.00  0.00    -0.003 C 
ATOM     13  C   UNL     1      34.699 -19.862 -21.140  0.00  0.00    +0.074 C 
ATOM     14  C   UNL     1      33.610 -20.543 -20.595  0.00  0.00    +0.016 C 
ATOM     15  C   UNL     1      35.975 -20.048 -20.605  0.00  0.00    +0.016 C 
BRANCH  10  17
ATOM     16  N   UNL     1      36.553 -22.951 -15.723  0.00  0.00    +0.384 N 
ATOM     17  C   UNL     1      35.273 -22.532 -17.807  0.00  0.00    +0.001 C 
ATOM     18  C   UNL     1      33.957 -22.806 -17.062  0.00  0.00    +0.000 C 
ATOM     19  C   UNL     1      36.351 -22.018 -16.835  0.00  0.00    -0.077 C 
ATOM     20  C   UNL     1      34.206 -23.713 -15.860  0.00  0.00    -0.023 C 
ATOM     21  C   UNL     1      35.317 -23.162 -14.969  0.00  0.00    -0.082 C 
ATOM     22  H   UNL     1      37.263 -22.572 -15.097  0.00  0.00    -0.085 HD
ATOM     23  H   UNL     1      36.850 -23.848 -16.108  0.00  0.00    -0.085 HD
ENDBRANCH  10  17
ENDBRANCH   1  13
BRANCH   6  26
ATOM     24  O   UNL     1      34.191 -13.509 -23.139  0.00  0.00    -0.270 OA
ATOM     25  N   UNL     1      34.499 -14.952 -21.385  0.00  0.00    -0.325 N 
ATOM     26  C   UNL     1      34.299 -14.685 -22.739  0.00  0.00    +0.244 C 
ATOM     27  H   UNL     1      34.567 -14.210 -20.740  0.00  0.00    +0.145 HD
ATOM     28  H   UNL     1      34.571 -15.883 -21.072  0.00  0.00    +0.145 HD
ENDBRANCH   6  26
TORSDOF 3
ENDMDL
MODEL 7
REMARK VINA RESULT:     -10.8      5.923     12.654
REMARK  Name = 24958200
REMARK  3 active torsions:
REMARK  status: ('A' for Active; 'I' for Inactive)
REMARK    1  A    between atoms: N_1  and  C_13
REMARK    2  A    between atoms: C_6  and  C_26
REMARK    3  A    between atoms: C_10  and  C_17
REMARK                            x       y       z     vdW  Elec       q    Type
REMARK                         _______ _______ _______ _____ _____    ______ ____
ROOT
ATOM      1  N   UNL     1      33.696 -15.714 -24.613  0.00  0.00    -0.189 N 
ATOM      2  N   UNL     1      33.602 -14.484 -24.071  0.00  0.00    -0.174 NA
ATOM      3  C   UNL     1      33.215 -14.470 -26.310  0.00  0.00    +0.036 C 
ATOM      4  C   UNL     1      33.472 -15.765 -25.958  0.00  0.00    +0.091 C 
ATOM      5  C   UNL     1      33.302 -13.678 -25.106  0.00  0.00    +0.105 C 
ATOM      6  C   UNL     1      33.084 -12.289 -25.146  0.00  0.00    +0.072 C 
ATOM      7  C   UNL     1      32.925 -14.022 -27.592  0.00  0.00    +0.003 C 
ATOM      8  C   UNL     1      32.787 -11.801 -26.438  0.00  0.00    +0.006 C 
ATOM      9  C   UNL     1      32.712 -12.629 -27.603  0.00  0.00    +0.000 C 
ENDROOT
BRANCH   1  13
ATOM     10  C   UNL     1      34.612 -18.993 -22.200  0.00  0.00    -0.024 C 
ATOM     11  C   UNL     1      34.902 -17.701 -21.761  0.00  0.00    -0.003 C 
ATOM     12  C   UNL     1      34.014 -19.189 -23.446  0.00  0.00    -0.003 C 
ATOM     13  C   UNL     1      34.000 -16.800 -23.814  0.00  0.00    +0.074 C 
ATOM     14  C   UNL     1      34.596 -16.605 -22.568  0.00  0.00    +0.016 C 
ATOM     15  C   UNL     1      33.708 -18.093 -24.253  0.00  0.00    +0.016 C 
BRANCH  10  17
ATOM     16  N   UNL     1      36.573 -21.149 -19.717  0.00  0.00    +0.384 N 
ATOM     17  C   UNL     1      34.946 -20.186 -21.324  0.00  0.00    +0.001 C 
ATOM     18  C   UNL     1      33.789 -20.539 -20.375  0.00  0.00    +0.000 C 
ATOM     19  C   UNL     1      36.252 -19.976 -20.534  0.00  0.00    -0.077 C 
ATOM     20  C   UNL     1      34.179 -21.710 -19.475  0.00  0.00    -0.023 C 
ATOM     21  C   UNL     1      35.504 -21.447 -18.764  0.00  0.00    -0.082 C 
ATOM     22  H   UNL     1      37.435 -20.968 -19.202  0.00  0.00    -0.085 HD
ATOM     23  H   UNL     1      36.683 -21.952 -20.337  0.00  0.00    -0.085 HD
ENDBRANCH  10  17
ENDBRANCH   1  13
BRANCH   6  26
ATOM     24  O   UNL     1      33.845 -10.396 -23.970  0.00  0.00    -0.270 OA
ATOM     25  N   UNL     1      32.410 -11.797 -22.858  0.00  0.00    -0.325 N 
ATOM     26  C   UNL     1      33.155 -11.435 -23.980  0.00  0.00    +0.244 C 
ATOM     27  H   UNL     1      32.436 -11.237 -22.047  0.00  0.00    +0.145 HD
ATOM     28  H   UNL     1      31.857 -12.611 -22.875  0.00  0.00    +0.145 HD
ENDBRANCH   6  26
TORSDOF 3
ENDMDL
MODEL 8
REMARK VINA RESULT:     -10.7      4.364      9.948
REMARK  Name = 24958200
REMARK  3 active torsions:
REMARK  status: ('A' for Active; 'I' for Inactive)
REMARK    1  A    between atoms: N_1  and  C_13
REMARK    2  A    between atoms: C_6  and  C_26
REMARK    3  A    between atoms: C_10  and  C_17
REMARK                            x       y       z     vdW  Elec       q    Type
REMARK                         _______ _______ _______ _____ _____    ______ ____
ROOT
ATOM      1  N   UNL     1      34.118 -19.165 -21.477  0.00  0.00    -0.189 N 
ATOM      2  N   UNL     1      33.839 -19.429 -22.768  0.00  0.00    -0.174 NA
ATOM      3  C   UNL     1      34.580 -17.303 -22.465  0.00  0.00    +0.036 C 
ATOM      4  C   UNL     1      34.569 -17.900 -21.236  0.00  0.00    +0.091 C 
ATOM      5  C   UNL     1      34.117 -18.284 -23.417  0.00  0.00    +0.105 C 
ATOM      6  C   UNL     1      34.018 -17.964 -24.784  0.00  0.00    +0.072 C 
ATOM      7  C   UNL     1      34.970 -15.996 -22.727  0.00  0.00    +0.003 C 
ATOM      8  C   UNL     1      34.407 -16.639 -25.082  0.00  0.00    +0.006 C 
ATOM      9  C   UNL     1      34.861 -15.703 -24.100  0.00  0.00    +0.000 C 
ENDROOT
BRANCH   1  13
ATOM     10  C   UNL     1      33.580 -22.119 -18.580  0.00  0.00    -0.024 C 
ATOM     11  C   UNL     1      32.474 -21.465 -19.122  0.00  0.00    -0.003 C 
ATOM     12  C   UNL     1      34.866 -21.787 -19.006  0.00  0.00    -0.003 C 
ATOM     13  C   UNL     1      33.940 -20.144 -20.516  0.00  0.00    +0.074 C 
ATOM     14  C   UNL     1      32.654 -20.477 -20.091  0.00  0.00    +0.016 C 
ATOM     15  C   UNL     1      35.046 -20.799 -19.974  0.00  0.00    +0.016 C 
BRANCH  10  17
ATOM     16  N   UNL     1      34.327 -24.252 -15.488  0.00  0.00    +0.384 N 
ATOM     17  C   UNL     1      33.385 -23.193 -17.525  0.00  0.00    +0.001 C 
ATOM     18  C   UNL     1      32.014 -23.076 -16.838  0.00  0.00    +0.000 C 
ATOM     19  C   UNL     1      34.518 -23.191 -16.481  0.00  0.00    -0.077 C 
ATOM     20  C   UNL     1      31.873 -24.138 -15.750  0.00  0.00    -0.023 C 
ATOM     21  C   UNL     1      33.054 -24.104 -14.784  0.00  0.00    -0.082 C 
ATOM     22  H   UNL     1      35.088 -24.211 -14.810  0.00  0.00    -0.085 HD
ATOM     23  H   UNL     1      34.323 -25.149 -15.975  0.00  0.00    -0.085 HD
ENDBRANCH  10  17
ENDBRANCH   1  13
BRANCH   6  26
ATOM     24  O   UNL     1      32.697 -18.582 -26.632  0.00  0.00    -0.270 OA
ATOM     25  N   UNL     1      34.135 -20.168 -25.813  0.00  0.00    -0.325 N 
ATOM     26  C   UNL     1      33.563 -18.896 -25.791  0.00  0.00    +0.244 C 
ATOM     27  H   UNL     1      33.847 -20.827 -26.486  0.00  0.00    +0.145 HD
ATOM     28  H   UNL     1      34.827 -20.408 -25.155  0.00  0.00    +0.145 HD
ENDBRANCH   6  26
TORSDOF 3
ENDMDL
MODEL 9
REMARK VINA RESULT:     -10.6      4.927      5.943
REMARK  Name = 24958200
REMARK  3 active torsions:
REMARK  status: ('A' for Active; 'I' for Inactive)
REMARK    1  A    between atoms: N_1  and  C_13
REMARK    2  A    between atoms: C_6  and  C_26
REMARK    3  A    between atoms: C_10  and  C_17
REMARK                            x       y       z     vdW  Elec       q    Type
REMARK                         _______ _______ _______ _____ _____    ______ ____
ROOT
ATOM      1  N   UNL     1      33.770 -24.195 -13.739  0.00  0.00    -0.189 N 
ATOM      2  N   UNL     1      34.620 -25.048 -14.342  0.00  0.00    -0.174 NA
ATOM      3  C   UNL     1      35.565 -24.014 -12.554  0.00  0.00    +0.036 C 
ATOM      4  C   UNL     1      34.286 -23.543 -12.656  0.00  0.00    +0.091 C 
ATOM      5  C   UNL     1      35.755 -24.961 -13.625  0.00  0.00    +0.105 C 
ATOM      6  C   UNL     1      36.987 -25.622 -13.786  0.00  0.00    +0.072 C 
ATOM      7  C   UNL     1      36.491 -23.637 -11.590  0.00  0.00    +0.003 C 
ATOM      8  C   UNL     1      37.951 -25.260 -12.820  0.00  0.00    +0.006 C 
ATOM      9  C   UNL     1      37.713 -24.313 -11.774  0.00  0.00    +0.000 C 
ENDROOT
BRANCH   1  13
ATOM     10  C   UNL     1      29.898 -23.711 -15.217  0.00  0.00    -0.024 C 
ATOM     11  C   UNL     1      30.976 -23.123 -15.879  0.00  0.00    -0.003 C 
ATOM     12  C   UNL     1      30.114 -24.461 -14.061  0.00  0.00    -0.003 C 
ATOM     13  C   UNL     1      32.487 -24.034 -14.228  0.00  0.00    +0.074 C 
ATOM     14  C   UNL     1      32.270 -23.284 -15.385  0.00  0.00    +0.016 C 
ATOM     15  C   UNL     1      31.408 -24.623 -13.567  0.00  0.00    +0.016 C 
BRANCH  10  17
ATOM     16  N   UNL     1      26.420 -22.168 -15.651  0.00  0.00    +0.384 N 
ATOM     17  C   UNL     1      28.489 -23.534 -15.754  0.00  0.00    +0.001 C 
ATOM     18  C   UNL     1      28.468 -23.462 -17.289  0.00  0.00    +0.000 C 
ATOM     19  C   UNL     1      27.787 -22.306 -15.143  0.00  0.00    -0.077 C 
ATOM     20  C   UNL     1      27.045 -23.234 -17.791  0.00  0.00    -0.023 C 
ATOM     21  C   UNL     1      26.400 -22.030 -17.107  0.00  0.00    -0.082 C 
ATOM     22  H   UNL     1      25.994 -21.341 -15.233  0.00  0.00    -0.085 HD
ATOM     23  H   UNL     1      25.899 -23.010 -15.401  0.00  0.00    -0.085 HD
ENDBRANCH  10  17
ENDBRANCH   1  13
BRANCH   6  26
ATOM     24  O   UNL     1      38.393 -27.025 -15.051  0.00  0.00    -0.270 OA
ATOM     25  N   UNL     1      36.168 -27.023 -15.603  0.00  0.00    -0.325 N 
ATOM     26  C   UNL     1      37.247 -26.583 -14.836  0.00  0.00    +0.244 C 
ATOM     27  H   UNL     1      36.311 -27.677 -16.326  0.00  0.00    +0.145 HD
ATOM     28  H   UNL     1      35.263 -26.681 -15.422  0.00  0.00    +0.145 HD
ENDBRANCH   6  26
TORSDOF 3
ENDMDL
