MODEL 1
REMARK VINA RESULT:     -12.9      0.000      0.000
REMARK  Name = 25101874
REMARK  5 active torsions:
REMARK  status: ('A' for Active; 'I' for Inactive)
REMARK    1  A    between atoms: N_1  and  C_22
REMARK    2  A    between atoms: C_2  and  N_8
REMARK    3  A    between atoms: N_8  and  C_11
REMARK    4  A    between atoms: C_11  and  C_14
REMARK    5  A    between atoms: C_22  and  C_28
REMARK                            x       y       z     vdW  Elec       q    Type
REMARK                         _______ _______ _______ _____ _____    ______ ____
ROOT
ATOM      1  N   UNL     1      34.928 -18.022 -22.303  0.00  0.00    +0.388 N 
ATOM      2  C   UNL     1      35.157 -20.438 -20.668  0.00  0.00    -0.066 C 
ATOM      3  C   UNL     1      36.243 -18.624 -22.044  0.00  0.00    -0.079 C 
ATOM      4  C   UNL     1      33.871 -19.044 -22.333  0.00  0.00    -0.079 C 
ATOM      5  C   UNL     1      36.255 -19.373 -20.709  0.00  0.00    -0.044 C 
ATOM      6  C   UNL     1      33.804 -19.806 -21.007  0.00  0.00    -0.044 C 
ATOM      7  H   UNL     1      34.721 -17.380 -21.539  0.00  0.00    -0.080 HD
ENDROOT
BRANCH   2   8
ATOM      8  N   UNL     1      35.120 -21.076 -19.354  0.00  0.00    +0.389 N 
ATOM      9  H   UNL     1      34.712 -20.430 -18.679  0.00  0.00    -0.084 HD
ATOM     10  H   UNL     1      36.073 -21.318 -19.082  0.00  0.00    -0.084 HD
BRANCH   8  11
ATOM     11  C   UNL     1      34.323 -22.293 -19.392  0.00  0.00    -0.034 C 
BRANCH  11  14
ATOM     12  O   UNL     1      32.734 -23.782 -14.240  0.00  0.00    -0.474 OA
ATOM     13  N   UNL     1      34.797 -22.971 -17.105  0.00  0.00    -0.247 NA
ATOM     14  C   UNL     1      33.843 -22.693 -18.022  0.00  0.00    +0.037 C 
ATOM     15  C   UNL     1      32.482 -22.758 -17.772  0.00  0.00    +0.011 C 
ATOM     16  C   UNL     1      32.061 -23.137 -16.496  0.00  0.00    +0.015 C 
ATOM     17  C   UNL     1      30.596 -23.223 -16.176  0.00  0.00    +0.033 C 
ATOM     18  C   UNL     1      33.023 -23.406 -15.521  0.00  0.00    +0.154 C 
ATOM     19  C   UNL     1      30.383 -24.019 -14.895  0.00  0.00    +0.052 C 
ATOM     20  C   UNL     1      34.362 -23.323 -15.875  0.00  0.00    +0.135 C 
ATOM     21  C   UNL     1      31.377 -23.552 -13.842  0.00  0.00    +0.206 C 
ENDBRANCH  11  14
ENDBRANCH   8  11
ENDBRANCH   2   8
BRANCH   1  22
ATOM     22  C   UNL     1      34.947 -17.269 -23.557  0.00  0.00    -0.055 C 
BRANCH  22  28
ATOM     23  O   UNL     1      34.133 -14.563 -21.677  0.00  0.00    -0.273 OA
ATOM     24  O   UNL     1      32.408 -16.356 -28.136  0.00  0.00    -0.270 OA
ATOM     25  N   UNL     1      33.620 -15.195 -23.866  0.00  0.00    -0.261 N 
ATOM     26  N   UNL     1      33.029 -15.738 -25.987  0.00  0.00    -0.255 N 
ATOM     27  N   UNL     1      33.566 -12.461 -24.492  0.00  0.00    -0.262 NA
ATOM     28  C   UNL     1      33.578 -16.670 -23.857  0.00  0.00    +0.076 C 
ATOM     29  C   UNL     1      33.093 -17.029 -25.287  0.00  0.00    +0.113 C 
ATOM     30  C   UNL     1      33.318 -14.739 -25.108  0.00  0.00    +0.196 C 
ATOM     31  C   UNL     1      33.295 -13.443 -25.409  0.00  0.00    +0.092 C 
ATOM     32  C   UNL     1      33.879 -14.317 -22.845  0.00  0.00    +0.252 C 
ATOM     33  C   UNL     1      32.688 -15.497 -27.304  0.00  0.00    +0.251 C 
ATOM     34  C   UNL     1      32.959 -13.087 -26.770  0.00  0.00    +0.022 C 
ATOM     35  C   UNL     1      33.838 -12.862 -23.284  0.00  0.00    +0.210 C 
ATOM     36  C   UNL     1      32.673 -14.037 -27.681  0.00  0.00    +0.059 C 
ENDBRANCH  22  28
ENDBRANCH   1  22
TORSDOF 5
ENDMDL
MODEL 2
REMARK VINA RESULT:     -12.6      1.868      3.701
REMARK  Name = 25101874
REMARK  5 active torsions:
REMARK  status: ('A' for Active; 'I' for Inactive)
REMARK    1  A    between atoms: N_1  and  C_22
REMARK    2  A    between atoms: C_2  and  N_8
REMARK    3  A    between atoms: N_8  and  C_11
REMARK    4  A    between atoms: C_11  and  C_14
REMARK    5  A    between atoms: C_22  and  C_28
REMARK                            x       y       z     vdW  Elec       q    Type
REMARK                         _______ _______ _______ _____ _____    ______ ____
ROOT
ATOM      1  N   UNL     1      33.881 -19.593 -21.512  0.00  0.00    +0.388 N 
ATOM      2  C   UNL     1      34.226 -21.716 -19.528  0.00  0.00    -0.066 C 
ATOM      3  C   UNL     1      35.098 -20.417 -21.507  0.00  0.00    -0.079 C 
ATOM      4  C   UNL     1      32.721 -20.354 -21.027  0.00  0.00    -0.079 C 
ATOM      5  C   UNL     1      35.411 -20.933 -20.100  0.00  0.00    -0.044 C 
ATOM      6  C   UNL     1      32.954 -20.868 -19.604  0.00  0.00    -0.044 C 
ATOM      7  H   UNL     1      34.031 -18.810 -20.876  0.00  0.00    -0.080 HD
ENDROOT
BRANCH   2   8
ATOM      8  N   UNL     1      34.504 -22.118 -18.151  0.00  0.00    +0.389 N 
ATOM      9  H   UNL     1      34.552 -21.286 -17.563  0.00  0.00    -0.084 HD
ATOM     10  H   UNL     1      35.393 -22.620 -18.130  0.00  0.00    -0.084 HD
BRANCH   8  11
ATOM     11  C   UNL     1      33.461 -22.999 -17.649  0.00  0.00    -0.034 C 
BRANCH  11  14
ATOM     12  O   UNL     1      34.058 -24.373 -12.260  0.00  0.00    -0.474 OA
ATOM     13  N   UNL     1      32.583 -23.747 -15.509  0.00  0.00    -0.247 NA
ATOM     14  C   UNL     1      33.674 -23.354 -16.201  0.00  0.00    +0.037 C 
ATOM     15  C   UNL     1      34.947 -23.260 -15.660  0.00  0.00    +0.011 C 
ATOM     16  C   UNL     1      35.119 -23.588 -14.314  0.00  0.00    +0.015 C 
ATOM     17  C   UNL     1      36.477 -23.503 -13.681  0.00  0.00    +0.033 C 
ATOM     18  C   UNL     1      34.013 -24.022 -13.579  0.00  0.00    +0.154 C 
ATOM     19  C   UNL     1      36.353 -23.515 -12.163  0.00  0.00    +0.052 C 
ATOM     20  C   UNL     1      32.779 -24.071 -14.211  0.00  0.00    +0.135 C 
ATOM     21  C   UNL     1      35.376 -24.605 -11.748  0.00  0.00    +0.206 C 
ENDBRANCH  11  14
ENDBRANCH   8  11
ENDBRANCH   2   8
BRANCH   1  22
ATOM     22  C   UNL     1      33.625 -19.067 -22.852  0.00  0.00    -0.055 C 
BRANCH  22  28
ATOM     23  O   UNL     1      33.988 -18.511 -26.181  0.00  0.00    -0.273 OA
ATOM     24  O   UNL     1      34.584 -14.290 -20.728  0.00  0.00    -0.270 OA
ATOM     25  N   UNL     1      34.132 -17.122 -24.309  0.00  0.00    -0.261 N 
ATOM     26  N   UNL     1      34.336 -15.700 -22.554  0.00  0.00    -0.255 N 
ATOM     27  N   UNL     1      33.187 -15.052 -25.949  0.00  0.00    -0.262 NA
ATOM     28  C   UNL     1      34.628 -17.978 -23.213  0.00  0.00    +0.076 C 
ATOM     29  C   UNL     1      34.844 -16.981 -22.043  0.00  0.00    +0.113 C 
ATOM     30  C   UNL     1      33.972 -15.852 -23.858  0.00  0.00    +0.196 C 
ATOM     31  C   UNL     1      33.520 -14.869 -24.631  0.00  0.00    +0.092 C 
ATOM     32  C   UNL     1      33.866 -17.435 -25.617  0.00  0.00    +0.252 C 
ATOM     33  C   UNL     1      34.260 -14.488 -21.896  0.00  0.00    +0.251 C 
ATOM     34  C   UNL     1      33.394 -13.560 -24.030  0.00  0.00    +0.022 C 
ATOM     35  C   UNL     1      33.349 -16.253 -26.421  0.00  0.00    +0.210 C 
ATOM     36  C   UNL     1      33.733 -13.357 -22.742  0.00  0.00    +0.059 C 
ENDBRANCH  22  28
ENDBRANCH   1  22
TORSDOF 5
ENDMDL
MODEL 3
REMARK VINA RESULT:     -12.4      0.952      1.654
REMARK  Name = 25101874
REMARK  5 active torsions:
REMARK  status: ('A' for Active; 'I' for Inactive)
REMARK    1  A    between atoms: N_1  and  C_22
REMARK    2  A    between atoms: C_2  and  N_8
REMARK    3  A    between atoms: N_8  and  C_11
REMARK    4  A    between atoms: C_11  and  C_14
REMARK    5  A    between atoms: C_22  and  C_28
REMARK                            x       y       z     vdW  Elec       q    Type
REMARK                         _______ _______ _______ _____ _____    ______ ____
ROOT
ATOM      1  N   UNL     1      35.202 -18.896 -22.890  0.00  0.00    +0.388 N 
ATOM      2  C   UNL     1      34.912 -20.015 -20.202  0.00  0.00    -0.066 C 
ATOM      3  C   UNL     1      33.871 -19.053 -22.289  0.00  0.00    -0.079 C 
ATOM      4  C   UNL     1      36.223 -18.641 -21.864  0.00  0.00    -0.079 C 
ATOM      5  C   UNL     1      33.850 -20.210 -21.286  0.00  0.00    -0.044 C 
ATOM      6  C   UNL     1      36.281 -19.785 -20.848  0.00  0.00    -0.044 C 
ATOM      7  H   UNL     1      35.439 -19.770 -23.358  0.00  0.00    -0.080 HD
ENDROOT
BRANCH   2   8
ATOM      8  N   UNL     1      34.944 -21.172 -19.311  0.00  0.00    +0.389 N 
ATOM      9  H   UNL     1      34.936 -20.850 -18.343  0.00  0.00    -0.084 HD
ATOM     10  H   UNL     1      35.791 -21.708 -19.500  0.00  0.00    -0.084 HD
BRANCH   8  11
ATOM     11  C   UNL     1      33.790 -22.030 -19.537  0.00  0.00    -0.034 C 
BRANCH  11  14
ATOM     12  O   UNL     1      31.389 -23.813 -14.810  0.00  0.00    -0.474 OA
ATOM     13  N   UNL     1      31.853 -22.406 -18.116  0.00  0.00    -0.247 NA
ATOM     14  C   UNL     1      33.193 -22.520 -18.244  0.00  0.00    +0.037 C 
ATOM     15  C   UNL     1      34.026 -23.051 -17.270  0.00  0.00    +0.011 C 
ATOM     16  C   UNL     1      33.450 -23.493 -16.078  0.00  0.00    +0.015 C 
ATOM     17  C   UNL     1      34.309 -24.075 -14.992  0.00  0.00    +0.033 C 
ATOM     18  C   UNL     1      32.064 -23.410 -15.927  0.00  0.00    +0.154 C 
ATOM     19  C   UNL     1      33.542 -24.110 -13.677  0.00  0.00    +0.052 C 
ATOM     20  C   UNL     1      31.320 -22.853 -16.957  0.00  0.00    +0.135 C 
ATOM     21  C   UNL     1      32.142 -24.651 -13.925  0.00  0.00    +0.206 C 
ENDBRANCH  11  14
ENDBRANCH   8  11
ENDBRANCH   2   8
BRANCH   1  22
ATOM     22  C   UNL     1      35.192 -17.821 -23.881  0.00  0.00    -0.055 C 
BRANCH  22  28
ATOM     23  O   UNL     1      34.490 -15.439 -21.568  0.00  0.00    -0.273 OA
ATOM     24  O   UNL     1      32.365 -16.261 -28.103  0.00  0.00    -0.270 OA
ATOM     25  N   UNL     1      33.841 -15.740 -23.791  0.00  0.00    -0.261 N 
ATOM     26  N   UNL     1      33.119 -15.965 -25.928  0.00  0.00    -0.255 N 
ATOM     27  N   UNL     1      33.739 -12.945 -23.992  0.00  0.00    -0.262 NA
ATOM     28  C   UNL     1      33.805 -17.201 -24.002  0.00  0.00    +0.076 C 
ATOM     29  C   UNL     1      33.231 -17.346 -25.437  0.00  0.00    +0.113 C 
ATOM     30  C   UNL     1      33.460 -15.107 -24.928  0.00  0.00    +0.196 C 
ATOM     31  C   UNL     1      33.414 -13.781 -25.028  0.00  0.00    +0.092 C 
ATOM     32  C   UNL     1      34.162 -15.023 -22.667  0.00  0.00    +0.252 C 
ATOM     33  C   UNL     1      32.694 -15.534 -27.170  0.00  0.00    +0.251 C 
ATOM     34  C   UNL     1      32.991 -13.228 -26.296  0.00  0.00    +0.022 C 
ATOM     35  C   UNL     1      34.088 -13.519 -22.877  0.00  0.00    +0.210 C 
ATOM     36  C   UNL     1      32.651 -14.033 -27.320  0.00  0.00    +0.059 C 
ENDBRANCH  22  28
ENDBRANCH   1  22
TORSDOF 5
ENDMDL
MODEL 4
REMARK VINA RESULT:     -12.3      2.936      5.478
REMARK  Name = 25101874
REMARK  5 active torsions:
REMARK  status: ('A' for Active; 'I' for Inactive)
REMARK    1  A    between atoms: N_1  and  C_22
REMARK    2  A    between atoms: C_2  and  N_8
REMARK    3  A    between atoms: N_8  and  C_11
REMARK    4  A    between atoms: C_11  and  C_14
REMARK    5  A    between atoms: C_22  and  C_28
REMARK                            x       y       z     vdW  Elec       q    Type
REMARK                         _______ _______ _______ _____ _____    ______ ____
ROOT
ATOM      1  N   UNL     1      33.160 -14.560 -24.394  0.00  0.00    +0.388 N 
ATOM      2  C   UNL     1      34.544 -17.137 -24.334  0.00  0.00    -0.066 C 
ATOM      3  C   UNL     1      34.387 -14.728 -23.603  0.00  0.00    -0.079 C 
ATOM      4  C   UNL     1      33.168 -15.428 -25.580  0.00  0.00    -0.079 C 
ATOM      5  C   UNL     1      34.553 -16.178 -23.141  0.00  0.00    -0.044 C 
ATOM      6  C   UNL     1      33.293 -16.902 -25.184  0.00  0.00    -0.044 C 
ATOM      7  H   UNL     1      32.371 -14.834 -23.809  0.00  0.00    -0.080 HD
ENDROOT
BRANCH   2   8
ATOM      8  N   UNL     1      34.607 -18.521 -23.869  0.00  0.00    +0.389 N 
ATOM      9  H   UNL     1      35.106 -19.083 -24.559  0.00  0.00    -0.084 HD
ATOM     10  H   UNL     1      33.655 -18.869 -23.749  0.00  0.00    -0.084 HD
BRANCH   8  11
ATOM     11  C   UNL     1      35.299 -18.607 -22.592  0.00  0.00    -0.034 C 
BRANCH  11  14
ATOM     12  O   UNL     1      32.408 -21.831 -19.052  0.00  0.00    -0.474 OA
ATOM     13  N   UNL     1      33.218 -19.467 -21.675  0.00  0.00    -0.247 NA
ATOM     14  C   UNL     1      34.568 -19.489 -21.615  0.00  0.00    +0.037 C 
ATOM     15  C   UNL     1      35.295 -20.262 -20.723  0.00  0.00    +0.011 C 
ATOM     16  C   UNL     1      34.595 -21.067 -19.822  0.00  0.00    +0.015 C 
ATOM     17  C   UNL     1      35.336 -21.921 -18.835  0.00  0.00    +0.033 C 
ATOM     18  C   UNL     1      33.200 -21.083 -19.877  0.00  0.00    +0.154 C 
ATOM     19  C   UNL     1      34.397 -22.383 -17.729  0.00  0.00    +0.052 C 
ATOM     20  C   UNL     1      32.566 -20.265 -20.801  0.00  0.00    +0.135 C 
ATOM     21  C   UNL     1      33.095 -22.872 -18.346  0.00  0.00    +0.206 C 
ENDBRANCH  11  14
ENDBRANCH   8  11
ENDBRANCH   2   8
BRANCH   1  22
ATOM     22  C   UNL     1      32.990 -13.161 -24.784  0.00  0.00    -0.055 C 
BRANCH  22  28
ATOM     23  O   UNL     1      35.266 -10.797 -25.651  0.00  0.00    -0.273 OA
ATOM     24  O   UNL     1      30.173 -10.768 -20.964  0.00  0.00    -0.270 OA
ATOM     25  N   UNL     1      33.505 -10.826 -24.117  0.00  0.00    -0.261 N 
ATOM     26  N   UNL     1      31.848 -10.768 -22.571  0.00  0.00    -0.255 N 
ATOM     27  N   UNL     1      33.218  -8.080 -24.610  0.00  0.00    -0.262 NA
ATOM     28  C   UNL     1      33.401 -12.224 -23.655  0.00  0.00    +0.076 C 
ATOM     29  C   UNL     1      32.324 -12.158 -22.538  0.00  0.00    +0.113 C 
ATOM     30  C   UNL     1      32.583 -10.065 -23.475  0.00  0.00    +0.196 C 
ATOM     31  C   UNL     1      32.442  -8.763 -23.709  0.00  0.00    +0.092 C 
ATOM     32  C   UNL     1      34.369 -10.261 -25.020  0.00  0.00    +0.252 C 
ATOM     33  C   UNL     1      30.858 -10.187 -21.801  0.00  0.00    +0.251 C 
ATOM     34  C   UNL     1      31.421  -8.064 -22.960  0.00  0.00    +0.022 C 
ATOM     35  C   UNL     1      34.128  -8.775 -25.228  0.00  0.00    +0.210 C 
ATOM     36  C   UNL     1      30.661  -8.714 -22.058  0.00  0.00    +0.059 C 
ENDBRANCH  22  28
ENDBRANCH   1  22
TORSDOF 5
ENDMDL
MODEL 5
REMARK VINA RESULT:     -12.2      2.675     12.050
REMARK  Name = 25101874
REMARK  5 active torsions:
REMARK  status: ('A' for Active; 'I' for Inactive)
REMARK    1  A    between atoms: N_1  and  C_22
REMARK    2  A    between atoms: C_2  and  N_8
REMARK    3  A    between atoms: N_8  and  C_11
REMARK    4  A    between atoms: C_11  and  C_14
REMARK    5  A    between atoms: C_22  and  C_28
REMARK                            x       y       z     vdW  Elec       q    Type
REMARK                         _______ _______ _______ _____ _____    ______ ____
ROOT
ATOM      1  N   UNL     1      34.684 -21.938 -18.208  0.00  0.00    +0.388 N 
ATOM      2  C   UNL     1      34.302 -20.602 -20.783  0.00  0.00    -0.066 C 
ATOM      3  C   UNL     1      33.464 -22.172 -18.995  0.00  0.00    -0.079 C 
ATOM      4  C   UNL     1      35.834 -21.660 -19.080  0.00  0.00    -0.079 C 
ATOM      5  C   UNL     1      33.129 -20.959 -19.867  0.00  0.00    -0.044 C 
ATOM      6  C   UNL     1      35.578 -20.430 -19.955  0.00  0.00    -0.044 C 
ATOM      7  H   UNL     1      34.527 -21.118 -17.624  0.00  0.00    -0.080 HD
ENDROOT
BRANCH   2   8
ATOM      8  N   UNL     1      34.002 -19.388 -21.538  0.00  0.00    +0.389 N 
ATOM      9  H   UNL     1      34.242 -18.574 -20.972  0.00  0.00    -0.084 HD
ATOM     10  H   UNL     1      33.007 -19.382 -21.765  0.00  0.00    -0.084 HD
BRANCH   8  11
ATOM     11  C   UNL     1      34.763 -19.348 -22.778  0.00  0.00    -0.034 C 
BRANCH  11  14
ATOM     12  O   UNL     1      32.907 -15.354 -26.226  0.00  0.00    -0.474 OA
ATOM     13  N   UNL     1      34.647 -17.040 -23.533  0.00  0.00    -0.247 NA
ATOM     14  C   UNL     1      34.231 -18.310 -23.730  0.00  0.00    +0.037 C 
ATOM     15  C   UNL     1      33.361 -18.696 -24.738  0.00  0.00    +0.011 C 
ATOM     16  C   UNL     1      32.876 -17.714 -25.605  0.00  0.00    +0.015 C 
ATOM     17  C   UNL     1      31.930 -18.081 -26.711  0.00  0.00    +0.033 C 
ATOM     18  C   UNL     1      33.308 -16.397 -25.440  0.00  0.00    +0.154 C 
ATOM     19  C   UNL     1      31.244 -16.834 -27.253  0.00  0.00    +0.052 C 
ATOM     20  C   UNL     1      34.173 -16.112 -24.393  0.00  0.00    +0.135 C 
ATOM     21  C   UNL     1      32.280 -15.738 -27.456  0.00  0.00    +0.206 C 
ENDBRANCH  11  14
ENDBRANCH   8  11
ENDBRANCH   2   8
BRANCH   1  22
ATOM     22  C   UNL     1      34.962 -23.085 -17.344  0.00  0.00    -0.055 C 
BRANCH  22  28
ATOM     23  O   UNL     1      32.883 -22.785 -14.678  0.00  0.00    -0.273 OA
ATOM     24  O   UNL     1      39.581 -24.475 -15.111  0.00  0.00    -0.270 OA
ATOM     25  N   UNL     1      35.128 -23.393 -14.886  0.00  0.00    -0.261 N 
ATOM     26  N   UNL     1      37.323 -23.954 -14.977  0.00  0.00    -0.255 N 
ATOM     27  N   UNL     1      34.742 -25.043 -12.652  0.00  0.00    -0.262 NA
ATOM     28  C   UNL     1      35.639 -22.644 -16.051  0.00  0.00    +0.076 C 
ATOM     29  C   UNL     1      37.157 -22.969 -16.055  0.00  0.00    +0.113 C 
ATOM     30  C   UNL     1      36.131 -24.126 -14.342  0.00  0.00    +0.196 C 
ATOM     31  C   UNL     1      35.951 -24.913 -13.285  0.00  0.00    +0.092 C 
ATOM     32  C   UNL     1      33.875 -23.406 -14.331  0.00  0.00    +0.252 C 
ATOM     33  C   UNL     1      38.479 -24.600 -14.584  0.00  0.00    +0.251 C 
ATOM     34  C   UNL     1      37.102 -25.644 -12.801  0.00  0.00    +0.022 C 
ATOM     35  C   UNL     1      33.761 -24.336 -13.134  0.00  0.00    +0.210 C 
ATOM     36  C   UNL     1      38.301 -25.516 -13.398  0.00  0.00    +0.059 C 
ENDBRANCH  22  28
ENDBRANCH   1  22
TORSDOF 5
ENDMDL
MODEL 6
REMARK VINA RESULT:     -12.1      2.134      3.166
REMARK  Name = 25101874
REMARK  5 active torsions:
REMARK  status: ('A' for Active; 'I' for Inactive)
REMARK    1  A    between atoms: N_1  and  C_22
REMARK    2  A    between atoms: C_2  and  N_8
REMARK    3  A    between atoms: N_8  and  C_11
REMARK    4  A    between atoms: C_11  and  C_14
REMARK    5  A    between atoms: C_22  and  C_28
REMARK                            x       y       z     vdW  Elec       q    Type
REMARK                         _______ _______ _______ _____ _____    ______ ____
ROOT
ATOM      1  N   UNL     1      35.570 -19.438 -22.221  0.00  0.00    +0.388 N 
ATOM      2  C   UNL     1      35.318 -20.607 -19.550  0.00  0.00    -0.066 C 
ATOM      3  C   UNL     1      34.247 -19.614 -21.607  0.00  0.00    -0.079 C 
ATOM      4  C   UNL     1      36.601 -19.195 -21.202  0.00  0.00    -0.079 C 
ATOM      5  C   UNL     1      34.245 -20.790 -20.626  0.00  0.00    -0.044 C 
ATOM      6  C   UNL     1      36.678 -20.356 -20.207  0.00  0.00    -0.044 C 
ATOM      7  H   UNL     1      35.808 -20.301 -22.707  0.00  0.00    -0.080 HD
ENDROOT
BRANCH   2   8
ATOM      8  N   UNL     1      35.366 -21.780 -18.681  0.00  0.00    +0.389 N 
ATOM      9  H   UNL     1      35.576 -22.605 -19.243  0.00  0.00    -0.084 HD
ATOM     10  H   UNL     1      34.461 -21.884 -18.221  0.00  0.00    -0.084 HD
BRANCH   8  11
ATOM     11  C   UNL     1      36.392 -21.625 -17.660  0.00  0.00    -0.034 C 
BRANCH  11  14
ATOM     12  O   UNL     1      35.708 -25.468 -13.653  0.00  0.00    -0.474 OA
ATOM     13  N   UNL     1      35.008 -23.059 -16.267  0.00  0.00    -0.247 NA
ATOM     14  C   UNL     1      36.261 -22.658 -16.572  0.00  0.00    +0.037 C 
ATOM     15  C   UNL     1      37.404 -23.136 -15.949  0.00  0.00    +0.011 C 
ATOM     16  C   UNL     1      37.257 -24.088 -14.939  0.00  0.00    +0.015 C 
ATOM     17  C   UNL     1      38.464 -24.635 -14.233  0.00  0.00    +0.033 C 
ATOM     18  C   UNL     1      35.975 -24.539 -14.619  0.00  0.00    +0.154 C 
ATOM     19  C   UNL     1      38.050 -25.330 -12.942  0.00  0.00    +0.052 C 
ATOM     20  C   UNL     1      34.895 -23.990 -15.294  0.00  0.00    +0.135 C 
ATOM     21  C   UNL     1      36.846 -26.220 -13.215  0.00  0.00    +0.206 C 
ENDBRANCH  11  14
ENDBRANCH   8  11
ENDBRANCH   2   8
BRANCH   1  22
ATOM     22  C   UNL     1      35.542 -18.344 -23.192  0.00  0.00    -0.055 C 
BRANCH  22  28
ATOM     23  O   UNL     1      34.765 -16.004 -20.860  0.00  0.00    -0.273 OA
ATOM     24  O   UNL     1      32.704 -16.814 -27.418  0.00  0.00    -0.270 OA
ATOM     25  N   UNL     1      34.139 -16.300 -23.090  0.00  0.00    -0.261 N 
ATOM     26  N   UNL     1      33.436 -16.522 -25.235  0.00  0.00    -0.255 N 
ATOM     27  N   UNL     1      33.967 -13.506 -23.265  0.00  0.00    -0.262 NA
ATOM     28  C   UNL     1      34.141 -17.759 -23.316  0.00  0.00    +0.076 C 
ATOM     29  C   UNL     1      33.580 -17.904 -24.757  0.00  0.00    +0.113 C 
ATOM     30  C   UNL     1      33.748 -15.665 -24.224  0.00  0.00    +0.196 C 
ATOM     31  C   UNL     1      33.670 -14.340 -24.312  0.00  0.00    +0.092 C 
ATOM     32  C   UNL     1      34.433 -15.586 -21.958  0.00  0.00    +0.252 C 
ATOM     33  C   UNL     1      33.009 -16.089 -26.475  0.00  0.00    +0.251 C 
ATOM     34  C   UNL     1      33.241 -13.785 -25.577  0.00  0.00    +0.022 C 
ATOM     35  C   UNL     1      34.323 -14.082 -22.153  0.00  0.00    +0.210 C 
ATOM     36  C   UNL     1      32.929 -14.589 -26.611  0.00  0.00    +0.059 C 
ENDBRANCH  22  28
ENDBRANCH   1  22
TORSDOF 5
ENDMDL
MODEL 7
REMARK VINA RESULT:     -12.1      1.255      2.777
REMARK  Name = 25101874
REMARK  5 active torsions:
REMARK  status: ('A' for Active; 'I' for Inactive)
REMARK    1  A    between atoms: N_1  and  C_22
REMARK    2  A    between atoms: C_2  and  N_8
REMARK    3  A    between atoms: N_8  and  C_11
REMARK    4  A    between atoms: C_11  and  C_14
REMARK    5  A    between atoms: C_22  and  C_28
REMARK                            x       y       z     vdW  Elec       q    Type
REMARK                         _______ _______ _______ _____ _____    ______ ____
ROOT
ATOM      1  N   UNL     1      34.062 -18.966 -22.076  0.00  0.00    +0.388 N 
ATOM      2  C   UNL     1      34.387 -21.147 -20.153  0.00  0.00    -0.066 C 
ATOM      3  C   UNL     1      35.339 -19.687 -21.977  0.00  0.00    -0.079 C 
ATOM      4  C   UNL     1      32.929 -19.841 -21.746  0.00  0.00    -0.079 C 
ATOM      5  C   UNL     1      35.551 -20.243 -20.566  0.00  0.00    -0.044 C 
ATOM      6  C   UNL     1      33.060 -20.402 -20.328  0.00  0.00    -0.044 C 
ATOM      7  H   UNL     1      34.079 -18.205 -21.398  0.00  0.00    -0.080 HD
ENDROOT
BRANCH   2   8
ATOM      8  N   UNL     1      34.558 -21.591 -18.771  0.00  0.00    +0.389 N 
ATOM      9  H   UNL     1      34.027 -20.977 -18.154  0.00  0.00    -0.084 HD
ATOM     10  H   UNL     1      35.551 -21.558 -18.538  0.00  0.00    -0.084 HD
BRANCH   8  11
ATOM     11  C   UNL     1      34.087 -22.958 -18.605  0.00  0.00    -0.034 C 
BRANCH  11  14
ATOM     12  O   UNL     1      32.208 -23.828 -13.409  0.00  0.00    -0.474 OA
ATOM     13  N   UNL     1      34.429 -23.304 -16.223  0.00  0.00    -0.247 NA
ATOM     14  C   UNL     1      33.530 -23.196 -17.226  0.00  0.00    +0.037 C 
ATOM     15  C   UNL     1      32.158 -23.293 -17.056  0.00  0.00    +0.011 C 
ATOM     16  C   UNL     1      31.666 -23.520 -15.769  0.00  0.00    +0.015 C 
ATOM     17  C   UNL     1      30.188 -23.634 -15.532  0.00  0.00    +0.033 C 
ATOM     18  C   UNL     1      32.570 -23.611 -14.708  0.00  0.00    +0.154 C 
ATOM     19  C   UNL     1      29.919 -24.263 -14.172  0.00  0.00    +0.052 C 
ATOM     20  C   UNL     1      33.925 -23.511 -14.986  0.00  0.00    +0.135 C 
ATOM     21  C   UNL     1      30.819 -23.613 -13.131  0.00  0.00    +0.206 C 
ENDBRANCH  11  14
ENDBRANCH   8  11
ENDBRANCH   2   8
BRANCH   1  22
ATOM     22  C   UNL     1      33.898 -18.399 -23.414  0.00  0.00    -0.055 C 
BRANCH  22  28
ATOM     23  O   UNL     1      34.339 -17.372 -26.619  0.00  0.00    -0.273 OA
ATOM     24  O   UNL     1      33.898 -13.837 -20.685  0.00  0.00    -0.270 OA
ATOM     25  N   UNL     1      34.138 -16.228 -24.594  0.00  0.00    -0.261 N 
ATOM     26  N   UNL     1      33.997 -15.026 -22.676  0.00  0.00    -0.255 N 
ATOM     27  N   UNL     1      32.939 -14.152 -26.049  0.00  0.00    -0.262 NA
ATOM     28  C   UNL     1      34.715 -17.122 -23.571  0.00  0.00    +0.076 C 
ATOM     29  C   UNL     1      34.691 -16.259 -22.280  0.00  0.00    +0.113 C 
ATOM     30  C   UNL     1      33.736 -15.070 -24.012  0.00  0.00    +0.196 C 
ATOM     31  C   UNL     1      33.163 -14.085 -24.698  0.00  0.00    +0.092 C 
ATOM     32  C   UNL     1      34.002 -16.412 -25.946  0.00  0.00    +0.252 C 
ATOM     33  C   UNL     1      33.677 -13.936 -21.889  0.00  0.00    +0.251 C 
ATOM     34  C   UNL     1      32.779 -12.902 -23.960  0.00  0.00    +0.022 C 
ATOM     35  C   UNL     1      33.332 -15.240 -26.645  0.00  0.00    +0.210 C 
ATOM     36  C   UNL     1      33.007 -12.810 -22.637  0.00  0.00    +0.059 C 
ENDBRANCH  22  28
ENDBRANCH   1  22
TORSDOF 5
ENDMDL
MODEL 8
REMARK VINA RESULT:     -11.9      2.127     11.551
REMARK  Name = 25101874
REMARK  5 active torsions:
REMARK  status: ('A' for Active; 'I' for Inactive)
REMARK    1  A    between atoms: N_1  and  C_22
REMARK    2  A    between atoms: C_2  and  N_8
REMARK    3  A    between atoms: N_8  and  C_11
REMARK    4  A    between atoms: C_11  and  C_14
REMARK    5  A    between atoms: C_22  and  C_28
REMARK                            x       y       z     vdW  Elec       q    Type
REMARK                         _______ _______ _______ _____ _____    ______ ____
ROOT
ATOM      1  N   UNL     1      34.190 -22.304 -19.385  0.00  0.00    +0.388 N 
ATOM      2  C   UNL     1      34.831 -19.706 -20.569  0.00  0.00    -0.066 C 
ATOM      3  C   UNL     1      35.520 -21.708 -19.197  0.00  0.00    -0.079 C 
ATOM      4  C   UNL     1      33.155 -21.268 -19.510  0.00  0.00    -0.079 C 
ATOM      5  C   UNL     1      35.888 -20.796 -20.370  0.00  0.00    -0.044 C 
ATOM      6  C   UNL     1      33.443 -20.341 -20.694  0.00  0.00    -0.044 C 
ATOM      7  H   UNL     1      34.206 -22.838 -20.253  0.00  0.00    -0.080 HD
ENDROOT
BRANCH   2   8
ATOM      8  N   UNL     1      35.147 -18.905 -21.749  0.00  0.00    +0.389 N 
ATOM      9  H   UNL     1      36.158 -18.890 -21.882  0.00  0.00    -0.084 HD
ATOM     10  H   UNL     1      34.793 -17.959 -21.606  0.00  0.00    -0.084 HD
BRANCH   8  11
ATOM     11  C   UNL     1      34.518 -19.463 -22.936  0.00  0.00    -0.034 C 
BRANCH  11  14
ATOM     12  O   UNL     1      32.922 -15.341 -26.365  0.00  0.00    -0.474 OA
ATOM     13  N   UNL     1      34.559 -17.151 -23.687  0.00  0.00    -0.247 NA
ATOM     14  C   UNL     1      34.053 -18.388 -23.883  0.00  0.00    +0.037 C 
ATOM     15  C   UNL     1      33.151 -18.710 -24.885  0.00  0.00    +0.011 C 
ATOM     16  C   UNL     1      32.731 -17.695 -25.747  0.00  0.00    +0.015 C 
ATOM     17  C   UNL     1      31.753 -17.993 -26.847  0.00  0.00    +0.033 C 
ATOM     18  C   UNL     1      33.255 -16.411 -25.584  0.00  0.00    +0.154 C 
ATOM     19  C   UNL     1      31.153 -16.699 -27.382  0.00  0.00    +0.052 C 
ATOM     20  C   UNL     1      34.145 -16.190 -24.543  0.00  0.00    +0.135 C 
ATOM     21  C   UNL     1      32.262 -15.679 -27.591  0.00  0.00    +0.206 C 
ENDBRANCH  11  14
ENDBRANCH   8  11
ENDBRANCH   2   8
BRANCH   1  22
ATOM     22  C   UNL     1      33.875 -23.211 -18.281  0.00  0.00    -0.055 C 
BRANCH  22  28
ATOM     23  O   UNL     1      30.937 -22.995 -16.597  0.00  0.00    -0.273 OA
ATOM     24  O   UNL     1      37.481 -23.390 -14.380  0.00  0.00    -0.270 OA
ATOM     25  N   UNL     1      33.159 -23.176 -15.905  0.00  0.00    -0.261 N 
ATOM     26  N   UNL     1      35.287 -23.306 -15.130  0.00  0.00    -0.255 N 
ATOM     27  N   UNL     1      32.202 -24.581 -13.674  0.00  0.00    -0.262 NA
ATOM     28  C   UNL     1      33.958 -22.491 -16.941  0.00  0.00    +0.076 C 
ATOM     29  C   UNL     1      35.398 -22.512 -16.362  0.00  0.00    +0.113 C 
ATOM     30  C   UNL     1      33.980 -23.627 -14.922  0.00  0.00    +0.196 C 
ATOM     31  C   UNL     1      33.530 -24.297 -13.865  0.00  0.00    +0.092 C 
ATOM     32  C   UNL     1      31.804 -23.364 -15.822  0.00  0.00    +0.252 C 
ATOM     33  C   UNL     1      36.291 -23.661 -14.250  0.00  0.00    +0.251 C 
ATOM     34  C   UNL     1      34.507 -24.725 -12.889  0.00  0.00    +0.022 C 
ATOM     35  C   UNL     1      31.383 -24.144 -14.587  0.00  0.00    +0.210 C 
ATOM     36  C   UNL     1      35.813 -24.440 -13.050  0.00  0.00    +0.059 C 
ENDBRANCH  22  28
ENDBRANCH   1  22
TORSDOF 5
ENDMDL
MODEL 9
REMARK VINA RESULT:     -11.8      2.260      3.804
REMARK  Name = 25101874
REMARK  5 active torsions:
REMARK  status: ('A' for Active; 'I' for Inactive)
REMARK    1  A    between atoms: N_1  and  C_22
REMARK    2  A    between atoms: C_2  and  N_8
REMARK    3  A    between atoms: N_8  and  C_11
REMARK    4  A    between atoms: C_11  and  C_14
REMARK    5  A    between atoms: C_22  and  C_28
REMARK                            x       y       z     vdW  Elec       q    Type
REMARK                         _______ _______ _______ _____ _____    ______ ____
ROOT
ATOM      1  N   UNL     1      34.009 -19.597 -21.495  0.00  0.00    +0.388 N 
ATOM      2  C   UNL     1      34.296 -21.681 -19.462  0.00  0.00    -0.066 C 
ATOM      3  C   UNL     1      35.233 -20.406 -21.427  0.00  0.00    -0.079 C 
ATOM      4  C   UNL     1      32.838 -20.362 -21.044  0.00  0.00    -0.079 C 
ATOM      5  C   UNL     1      35.494 -20.895 -20.000  0.00  0.00    -0.044 C 
ATOM      6  C   UNL     1      33.019 -20.849 -19.604  0.00  0.00    -0.044 C 
ATOM      7  H   UNL     1      34.124 -18.801 -20.868  0.00  0.00    -0.080 HD
ENDROOT
BRANCH   2   8
ATOM      8  N   UNL     1      34.522 -22.056 -18.068  0.00  0.00    +0.389 N 
ATOM      9  H   UNL     1      34.228 -23.023 -17.930  0.00  0.00    -0.084 HD
ATOM     10  H   UNL     1      33.982 -21.431 -17.470  0.00  0.00    -0.084 HD
BRANCH   8  11
ATOM     11  C   UNL     1      35.930 -21.932 -17.721  0.00  0.00    -0.034 C 
BRANCH  11  14
ATOM     12  O   UNL     1      37.286 -24.340 -12.858  0.00  0.00    -0.474 OA
ATOM     13  N   UNL     1      37.539 -22.881 -16.164  0.00  0.00    -0.247 NA
ATOM     14  C   UNL     1      36.242 -22.583 -16.400  0.00  0.00    +0.037 C 
ATOM     15  C   UNL     1      35.211 -22.841 -15.510  0.00  0.00    +0.011 C 
ATOM     16  C   UNL     1      35.524 -23.451 -14.294  0.00  0.00    +0.015 C 
ATOM     17  C   UNL     1      34.442 -23.752 -13.297  0.00  0.00    +0.033 C 
ATOM     18  C   UNL     1      36.859 -23.748 -14.012  0.00  0.00    +0.154 C 
ATOM     19  C   UNL     1      34.944 -24.748 -12.260  0.00  0.00    +0.052 C 
ATOM     20  C   UNL     1      37.816 -23.459 -14.974  0.00  0.00    +0.135 C 
ATOM     21  C   UNL     1      36.330 -24.329 -11.791  0.00  0.00    +0.206 C 
ENDBRANCH  11  14
ENDBRANCH   8  11
ENDBRANCH   2   8
BRANCH   1  22
ATOM     22  C   UNL     1      33.801 -19.096 -22.854  0.00  0.00    -0.055 C 
BRANCH  22  28
ATOM     23  O   UNL     1      34.168 -18.421 -26.160  0.00  0.00    -0.273 OA
ATOM     24  O   UNL     1      34.563 -14.357 -20.571  0.00  0.00    -0.270 OA
ATOM     25  N   UNL     1      34.245 -17.088 -24.244  0.00  0.00    -0.261 N 
ATOM     26  N   UNL     1      34.382 -15.716 -22.443  0.00  0.00    -0.255 N 
ATOM     27  N   UNL     1      33.236 -15.003 -25.825  0.00  0.00    -0.262 NA
ATOM     28  C   UNL     1      34.765 -17.960 -23.172  0.00  0.00    +0.076 C 
ATOM     29  C   UNL     1      34.934 -16.993 -21.968  0.00  0.00    +0.113 C 
ATOM     30  C   UNL     1      34.034 -15.841 -23.754  0.00  0.00    +0.196 C 
ATOM     31  C   UNL     1      33.552 -14.851 -24.500  0.00  0.00    +0.092 C 
ATOM     32  C   UNL     1      34.002 -17.369 -25.563  0.00  0.00    +0.252 C 
ATOM     33  C   UNL     1      34.256 -14.530 -21.747  0.00  0.00    +0.251 C 
ATOM     34  C   UNL     1      33.371 -13.567 -23.858  0.00  0.00    +0.022 C 
ATOM     35  C   UNL     1      33.447 -16.182 -26.335  0.00  0.00    +0.210 C 
ATOM     36  C   UNL     1      33.692 -13.393 -22.562  0.00  0.00    +0.059 C 
ENDBRANCH  22  28
ENDBRANCH   1  22
TORSDOF 5
ENDMDL
