MODEL 1
REMARK VINA RESULT:     -13.0      0.000      0.000
REMARK  Name = 71245288
REMARK  5 active torsions:
REMARK  status: ('A' for Active; 'I' for Inactive)
REMARK    1  A    between atoms: C_3  and  C_9
REMARK    2  A    between atoms: C_6  and  N_14
REMARK    3  A    between atoms: C_15  and  C_18
REMARK    4  A    between atoms: C_22  and  C_30
REMARK    5  A    between atoms: N_27  and  C_32
REMARK                            x       y       z     vdW  Elec       q    Type
REMARK                         _______ _______ _______ _____ _____    ______ ____
ROOT
ATOM      1  O   UNL     1      32.525 -21.857 -19.438  0.00  0.00    -0.270 OA
ATOM      2  N   UNL     1      34.194 -22.204 -17.825  0.00  0.00    -0.259 N 
ATOM      3  C   UNL     1      33.692 -21.715 -19.039  0.00  0.00    +0.253 C 
ATOM      4  H   UNL     1      35.143 -22.012 -17.646  0.00  0.00    +0.157 HD
ATOM      5  N   UNL     1      34.202 -23.315 -15.721  0.00  0.00    -0.388 NA
ATOM      6  C   UNL     1      33.513 -24.015 -14.793  0.00  0.00    +0.166 C 
ATOM      7  C   UNL     1      33.516 -22.940 -16.823  0.00  0.00    +0.167 C 
ATOM      8  C   UNL     1      32.175 -24.356 -14.915  0.00  0.00    +0.031 C 
ATOM      9  C   UNL     1      32.178 -23.231 -17.040  0.00  0.00    +0.101 C 
ATOM     10  C   UNL     1      31.502 -23.953 -16.062  0.00  0.00    -0.015 C 
ENDROOT
BRANCH   3  15
ATOM     11  F   UNL     1      36.465 -21.811 -18.609  0.00  0.00    -0.204 F 
ATOM     12  C   UNL     1      35.058 -19.442 -21.686  0.00  0.00    +0.046 C 
ATOM     13  C   UNL     1      36.428 -19.523 -21.433  0.00  0.00    -0.006 C 
ATOM     14  C   UNL     1      34.160 -20.163 -20.898  0.00  0.00    +0.021 C 
ATOM     15  C   UNL     1      34.631 -20.964 -19.858  0.00  0.00    +0.082 C 
ATOM     16  C   UNL     1      36.899 -20.323 -20.393  0.00  0.00    +0.027 C 
ATOM     17  C   UNL     1      37.417 -18.762 -22.256  0.00  0.00    +0.032 C 
ATOM     18  C   UNL     1      36.000 -21.044 -19.606  0.00  0.00    +0.144 C 
BRANCH  12  20
ATOM     19  N   UNL     1      33.976 -16.829 -23.834  0.00  0.00    -0.255 NA
ATOM     20  N   UNL     1      34.569 -18.652 -22.713  0.00  0.00    -0.282 N 
ATOM     21  C   UNL     1      33.726 -17.949 -24.587  0.00  0.00    +0.053 C 
ATOM     22  C   UNL     1      34.086 -19.092 -23.913  0.00  0.00    +0.134 C 
ATOM     23  C   UNL     1      34.483 -17.287 -22.712  0.00  0.00    +0.219 C 
BRANCH  21  24
ATOM     24  C   UNL     1      33.127 -17.919 -25.990  0.00  0.00    +0.037 C 
ATOM     25  C   UNL     1      31.819 -17.214 -26.199  0.00  0.00    +0.006 C 
ATOM     26  C   UNL     1      31.882 -18.712 -26.258  0.00  0.00    +0.006 C 
ENDBRANCH  21  24
ENDBRANCH  12  20
ENDBRANCH   3  15
BRANCH   6  30
ATOM     27  N   UNL     1      35.532 -24.926 -13.692  0.00  0.00    -0.252 N 
ATOM     28  N   UNL     1      33.900 -24.287 -12.383  0.00  0.00    -0.129 NA
ATOM     29  N   UNL     1      34.930 -24.762 -11.596  0.00  0.00    -0.128 NA
ATOM     30  C   UNL     1      34.280 -24.395 -13.636  0.00  0.00    +0.188 C 
ATOM     31  C   UNL     1      35.899 -25.139 -12.398  0.00  0.00    +0.192 C 
BRANCH  27  32
ATOM     32  C   UNL     1      36.327 -25.212 -14.862  0.00  0.00    +0.080 C 
ATOM     33  C   UNL     1      37.701 -24.540 -14.787  0.00  0.00    +0.022 C 
ATOM     34  C   UNL     1      36.469 -26.718 -15.092  0.00  0.00    +0.022 C 
ENDBRANCH  27  32
ENDBRANCH   6  30
TORSDOF 5
ENDMDL
MODEL 2
REMARK VINA RESULT:     -11.9      1.712     10.688
REMARK  Name = 71245288
REMARK  5 active torsions:
REMARK  status: ('A' for Active; 'I' for Inactive)
REMARK    1  A    between atoms: C_3  and  C_9
REMARK    2  A    between atoms: C_6  and  N_14
REMARK    3  A    between atoms: C_15  and  C_18
REMARK    4  A    between atoms: C_22  and  C_30
REMARK    5  A    between atoms: N_27  and  C_32
REMARK                            x       y       z     vdW  Elec       q    Type
REMARK                         _______ _______ _______ _____ _____    ______ ____
ROOT
ATOM      1  O   UNL     1      36.388 -21.596 -18.624  0.00  0.00    -0.270 OA
ATOM      2  N   UNL     1      34.568 -20.770 -19.855  0.00  0.00    -0.259 N 
ATOM      3  C   UNL     1      35.167 -21.517 -18.830  0.00  0.00    +0.253 C 
ATOM      4  H   UNL     1      33.585 -20.806 -19.892  0.00  0.00    +0.157 HD
ATOM      5  N   UNL     1      34.415 -19.334 -21.745  0.00  0.00    -0.388 NA
ATOM      6  C   UNL     1      35.056 -18.586 -22.670  0.00  0.00    +0.166 C 
ATOM      7  C   UNL     1      35.193 -19.973 -20.845  0.00  0.00    +0.167 C 
ATOM      8  C   UNL     1      36.433 -18.447 -22.736  0.00  0.00    +0.031 C 
ATOM      9  C   UNL     1      36.577 -19.899 -20.825  0.00  0.00    +0.101 C 
ATOM     10  C   UNL     1      37.201 -19.119 -21.792  0.00  0.00    -0.015 C 
ENDROOT
BRANCH   3  15
ATOM     11  F   UNL     1      32.458 -21.902 -19.463  0.00  0.00    -0.204 F 
ATOM     12  C   UNL     1      33.847 -23.404 -15.875  0.00  0.00    +0.046 C 
ATOM     13  C   UNL     1      32.508 -23.570 -16.234  0.00  0.00    -0.006 C 
ATOM     14  C   UNL     1      34.719 -22.729 -16.729  0.00  0.00    +0.021 C 
ATOM     15  C   UNL     1      34.254 -22.220 -17.941  0.00  0.00    +0.082 C 
ATOM     16  C   UNL     1      32.043 -23.061 -17.445  0.00  0.00    +0.027 C 
ATOM     17  C   UNL     1      31.547 -24.287 -15.341  0.00  0.00    +0.032 C 
ATOM     18  C   UNL     1      32.916 -22.386 -18.299  0.00  0.00    +0.144 C 
BRANCH  12  20
ATOM     19  N   UNL     1      34.392 -24.441 -12.522  0.00  0.00    -0.255 NA
ATOM     20  N   UNL     1      34.329 -23.901 -14.676  0.00  0.00    -0.282 N 
ATOM     21  C   UNL     1      35.562 -24.812 -13.136  0.00  0.00    +0.053 C 
ATOM     22  C   UNL     1      35.546 -24.487 -14.472  0.00  0.00    +0.134 C 
ATOM     23  C   UNL     1      33.671 -23.897 -13.476  0.00  0.00    +0.219 C 
BRANCH  21  24
ATOM     24  C   UNL     1      36.724 -25.494 -12.421  0.00  0.00    +0.037 C 
ATOM     25  C   UNL     1      37.924 -24.672 -12.050  0.00  0.00    +0.006 C 
ATOM     26  C   UNL     1      38.016 -25.678 -13.160  0.00  0.00    +0.006 C 
ENDBRANCH  21  24
ENDBRANCH  12  20
ENDBRANCH   3  15
BRANCH   6  30
ATOM     27  N   UNL     1      34.048 -16.570 -23.689  0.00  0.00    -0.252 N 
ATOM     28  N   UNL     1      33.431 -18.502 -24.510  0.00  0.00    -0.129 NA
ATOM     29  N   UNL     1      32.770 -17.505 -25.199  0.00  0.00    -0.128 NA
ATOM     30  C   UNL     1      34.191 -17.922 -23.610  0.00  0.00    +0.188 C 
ATOM     31  C   UNL     1      33.153 -16.354 -24.694  0.00  0.00    +0.192 C 
BRANCH  27  32
ATOM     32  C   UNL     1      34.696 -15.557 -22.892  0.00  0.00    +0.080 C 
ATOM     33  C   UNL     1      34.216 -14.152 -23.267  0.00  0.00    +0.022 C 
ATOM     34  C   UNL     1      34.511 -15.814 -21.395  0.00  0.00    +0.022 C 
ENDBRANCH  27  32
ENDBRANCH   6  30
TORSDOF 5
ENDMDL
MODEL 3
REMARK VINA RESULT:     -11.8      7.554     13.634
REMARK  Name = 71245288
REMARK  5 active torsions:
REMARK  status: ('A' for Active; 'I' for Inactive)
REMARK    1  A    between atoms: C_3  and  C_9
REMARK    2  A    between atoms: C_6  and  N_14
REMARK    3  A    between atoms: C_15  and  C_18
REMARK    4  A    between atoms: C_22  and  C_30
REMARK    5  A    between atoms: N_27  and  C_32
REMARK                            x       y       z     vdW  Elec       q    Type
REMARK                         _______ _______ _______ _____ _____    ______ ____
ROOT
ATOM      1  O   UNL     1      34.285 -11.653 -26.851  0.00  0.00    -0.270 OA
ATOM      2  N   UNL     1      32.976 -11.610 -24.903  0.00  0.00    -0.259 N 
ATOM      3  C   UNL     1      33.463 -12.183 -26.087  0.00  0.00    +0.253 C 
ATOM      4  H   UNL     1      32.326 -12.152 -24.401  0.00  0.00    +0.157 HD
ATOM      5  N   UNL     1      32.704  -9.997 -23.175  0.00  0.00    -0.388 NA
ATOM      6  C   UNL     1      33.041  -8.789 -22.673  0.00  0.00    +0.166 C 
ATOM      7  C   UNL     1      33.297 -10.352 -24.336  0.00  0.00    +0.167 C 
ATOM      8  C   UNL     1      33.941  -7.923 -23.274  0.00  0.00    +0.031 C 
ATOM      9  C   UNL     1      34.210  -9.560 -25.015  0.00  0.00    +0.101 C 
ATOM     10  C   UNL     1      34.532  -8.323 -24.467  0.00  0.00    -0.015 C 
ENDROOT
BRANCH   3  15
ATOM     11  F   UNL     1      31.476 -12.622 -28.023  0.00  0.00    -0.204 F 
ATOM     12  C   UNL     1      32.999 -15.900 -26.024  0.00  0.00    +0.046 C 
ATOM     13  C   UNL     1      32.011 -16.067 -26.995  0.00  0.00    -0.006 C 
ATOM     14  C   UNL     1      33.475 -14.623 -25.726  0.00  0.00    +0.021 C 
ATOM     15  C   UNL     1      32.964 -13.513 -26.400  0.00  0.00    +0.082 C 
ATOM     16  C   UNL     1      31.499 -14.958 -27.667  0.00  0.00    +0.027 C 
ATOM     17  C   UNL     1      31.477 -17.421 -27.337  0.00  0.00    +0.032 C 
ATOM     18  C   UNL     1      31.976 -13.681 -27.369  0.00  0.00    +0.144 C 
BRANCH  12  20
ATOM     19  N   UNL     1      34.131 -19.082 -24.926  0.00  0.00    -0.255 NA
ATOM     20  N   UNL     1      33.520 -16.988 -25.345  0.00  0.00    -0.282 N 
ATOM     21  C   UNL     1      34.441 -18.277 -23.858  0.00  0.00    +0.053 C 
ATOM     22  C   UNL     1      34.071 -16.974 -24.094  0.00  0.00    +0.134 C 
ATOM     23  C   UNL     1      33.578 -18.275 -25.804  0.00  0.00    +0.219 C 
BRANCH  21  24
ATOM     24  C   UNL     1      35.108 -18.773 -22.579  0.00  0.00    +0.037 C 
ATOM     25  C   UNL     1      34.267 -19.474 -21.553  0.00  0.00    +0.006 C 
ATOM     26  C   UNL     1      34.781 -18.090 -21.284  0.00  0.00    +0.006 C 
ENDBRANCH  21  24
ENDBRANCH  12  20
ENDBRANCH   3  15
BRANCH   6  30
ATOM     27  N   UNL     1      31.493  -7.430 -21.303  0.00  0.00    -0.252 N 
ATOM     28  N   UNL     1      32.547  -9.053 -20.281  0.00  0.00    -0.129 NA
ATOM     29  N   UNL     1      31.737  -8.413 -19.364  0.00  0.00    -0.128 NA
ATOM     30  C   UNL     1      32.387  -8.448 -21.437  0.00  0.00    +0.188 C 
ATOM     31  C   UNL     1      31.113  -7.445 -19.995  0.00  0.00    +0.192 C 
BRANCH  27  32
ATOM     32  C   UNL     1      31.026  -6.515 -22.316  0.00  0.00    +0.080 C 
ATOM     33  C   UNL     1      30.196  -7.233 -23.384  0.00  0.00    +0.022 C 
ATOM     34  C   UNL     1      30.241  -5.352 -21.706  0.00  0.00    +0.022 C 
ENDBRANCH  27  32
ENDBRANCH   6  30
TORSDOF 5
ENDMDL
MODEL 4
REMARK VINA RESULT:     -11.5      6.926     12.858
REMARK  Name = 71245288
REMARK  5 active torsions:
REMARK  status: ('A' for Active; 'I' for Inactive)
REMARK    1  A    between atoms: C_3  and  C_9
REMARK    2  A    between atoms: C_6  and  N_14
REMARK    3  A    between atoms: C_15  and  C_18
REMARK    4  A    between atoms: C_22  and  C_30
REMARK    5  A    between atoms: N_27  and  C_32
REMARK                            x       y       z     vdW  Elec       q    Type
REMARK                         _______ _______ _______ _____ _____    ______ ____
ROOT
ATOM      1  O   UNL     1      33.873 -12.186 -27.224  0.00  0.00    -0.270 OA
ATOM      2  N   UNL     1      33.045 -12.073 -25.031  0.00  0.00    -0.259 N 
ATOM      3  C   UNL     1      33.331 -12.719 -26.243  0.00  0.00    +0.253 C 
ATOM      4  H   UNL     1      32.611 -12.628 -24.343  0.00  0.00    +0.157 HD
ATOM      5  N   UNL     1      32.934 -10.313 -23.435  0.00  0.00    -0.388 NA
ATOM      6  C   UNL     1      33.194  -9.021 -23.134  0.00  0.00    +0.166 C 
ATOM      7  C   UNL     1      33.296 -10.728 -24.669  0.00  0.00    +0.167 C 
ATOM      8  C   UNL     1      33.798  -8.129 -24.006  0.00  0.00    +0.031 C 
ATOM      9  C   UNL     1      33.905  -9.915 -25.612  0.00  0.00    +0.101 C 
ATOM     10  C   UNL     1      34.157  -8.592 -25.266  0.00  0.00    -0.015 C 
ENDROOT
BRANCH   3  15
ATOM     11  F   UNL     1      31.510 -13.716 -28.134  0.00  0.00    -0.204 F 
ATOM     12  C   UNL     1      33.209 -16.384 -25.478  0.00  0.00    +0.046 C 
ATOM     13  C   UNL     1      32.298 -16.831 -26.436  0.00  0.00    -0.006 C 
ATOM     14  C   UNL     1      33.547 -15.032 -25.415  0.00  0.00    +0.021 C 
ATOM     15  C   UNL     1      32.976 -14.128 -26.311  0.00  0.00    +0.082 C 
ATOM     16  C   UNL     1      31.727 -15.928 -27.330  0.00  0.00    +0.027 C 
ATOM     17  C   UNL     1      31.913 -18.273 -26.529  0.00  0.00    +0.032 C 
ATOM     18  C   UNL     1      32.066 -14.576 -27.268  0.00  0.00    +0.144 C 
BRANCH  12  20
ATOM     19  N   UNL     1      34.738 -19.113 -23.796  0.00  0.00    -0.255 NA
ATOM     20  N   UNL     1      33.787 -17.265 -24.580  0.00  0.00    -0.282 N 
ATOM     21  C   UNL     1      34.599 -18.191 -22.790  0.00  0.00    +0.053 C 
ATOM     22  C   UNL     1      34.012 -17.036 -23.251  0.00  0.00    +0.134 C 
ATOM     23  C   UNL     1      34.240 -18.524 -24.861  0.00  0.00    +0.219 C 
BRANCH  21  24
ATOM     24  C   UNL     1      35.042 -18.425 -21.349  0.00  0.00    +0.037 C 
ATOM     25  C   UNL     1      36.213 -19.328 -21.093  0.00  0.00    +0.006 C 
ATOM     26  C   UNL     1      34.825 -19.778 -20.739  0.00  0.00    +0.006 C 
ENDBRANCH  21  24
ENDBRANCH  12  20
ENDBRANCH   3  15
BRANCH   6  30
ATOM     27  N   UNL     1      32.026  -9.383 -20.984  0.00  0.00    -0.252 N 
ATOM     28  N   UNL     1      33.096  -7.489 -21.217  0.00  0.00    -0.129 NA
ATOM     29  N   UNL     1      32.514  -7.509 -19.966  0.00  0.00    -0.128 NA
ATOM     30  C   UNL     1      32.792  -8.620 -21.812  0.00  0.00    +0.188 C 
ATOM     31  C   UNL     1      31.878  -8.651 -19.844  0.00  0.00    +0.192 C 
BRANCH  27  32
ATOM     32  C   UNL     1      31.477 -10.693 -21.234  0.00  0.00    +0.080 C 
ATOM     33  C   UNL     1      31.796 -11.665 -20.095  0.00  0.00    +0.022 C 
ATOM     34  C   UNL     1      29.969 -10.632 -21.491  0.00  0.00    +0.022 C 
ENDBRANCH  27  32
ENDBRANCH   6  30
TORSDOF 5
ENDMDL
MODEL 5
REMARK VINA RESULT:     -11.3      3.372      5.646
REMARK  Name = 71245288
REMARK  5 active torsions:
REMARK  status: ('A' for Active; 'I' for Inactive)
REMARK    1  A    between atoms: C_3  and  C_9
REMARK    2  A    between atoms: C_6  and  N_14
REMARK    3  A    between atoms: C_15  and  C_18
REMARK    4  A    between atoms: C_22  and  C_30
REMARK    5  A    between atoms: N_27  and  C_32
REMARK                            x       y       z     vdW  Elec       q    Type
REMARK                         _______ _______ _______ _____ _____    ______ ____
ROOT
ATOM      1  O   UNL     1      36.526 -18.675 -22.529  0.00  0.00    -0.270 OA
ATOM      2  N   UNL     1      34.468 -19.411 -21.672  0.00  0.00    -0.259 N 
ATOM      3  C   UNL     1      35.285 -18.685 -22.551  0.00  0.00    +0.253 C 
ATOM      4  H   UNL     1      33.499 -19.318 -21.813  0.00  0.00    +0.157 HD
ATOM      5  N   UNL     1      33.892 -20.864 -19.879  0.00  0.00    -0.388 NA
ATOM      6  C   UNL     1      34.310 -21.662 -18.872  0.00  0.00    +0.166 C 
ATOM      7  C   UNL     1      34.856 -20.258 -20.605  0.00  0.00    +0.167 C 
ATOM      8  C   UNL     1      35.642 -21.883 -18.560  0.00  0.00    +0.031 C 
ATOM      9  C   UNL     1      36.214 -20.413 -20.375  0.00  0.00    +0.101 C 
ATOM     10  C   UNL     1      36.606 -21.243 -19.330  0.00  0.00    -0.015 C 
ENDROOT
BRANCH   3  15
ATOM     11  F   UNL     1      34.283 -19.865 -24.894  0.00  0.00    -0.204 F 
ATOM     12  C   UNL     1      33.741 -15.803 -24.380  0.00  0.00    +0.046 C 
ATOM     13  C   UNL     1      33.261 -16.435 -25.528  0.00  0.00    -0.006 C 
ATOM     14  C   UNL     1      34.406 -16.544 -23.403  0.00  0.00    +0.021 C 
ATOM     15  C   UNL     1      34.591 -17.916 -23.573  0.00  0.00    +0.082 C 
ATOM     16  C   UNL     1      33.447 -17.807 -25.698  0.00  0.00    +0.027 C 
ATOM     17  C   UNL     1      32.545 -15.671 -26.595  0.00  0.00    +0.032 C 
ATOM     18  C   UNL     1      34.111 -18.547 -24.720  0.00  0.00    +0.144 C 
BRANCH  12  20
ATOM     19  N   UNL     1      33.062 -12.528 -23.185  0.00  0.00    -0.255 NA
ATOM     20  N   UNL     1      33.568 -14.443 -24.192  0.00  0.00    -0.282 N 
ATOM     21  C   UNL     1      33.497 -12.288 -24.464  0.00  0.00    +0.053 C 
ATOM     22  C   UNL     1      33.817 -13.460 -25.109  0.00  0.00    +0.134 C 
ATOM     23  C   UNL     1      33.117 -13.835 -23.053  0.00  0.00    +0.219 C 
BRANCH  21  24
ATOM     24  C   UNL     1      33.609 -10.898 -25.082  0.00  0.00    +0.037 C 
ATOM     25  C   UNL     1      34.513 -10.705 -26.264  0.00  0.00    +0.006 C 
ATOM     26  C   UNL     1      34.895 -10.141 -24.926  0.00  0.00    +0.006 C 
ENDBRANCH  21  24
ENDBRANCH  12  20
ENDBRANCH   3  15
BRANCH   6  30
ATOM     27  N   UNL     1      33.452 -23.040 -17.005  0.00  0.00    -0.252 N 
ATOM     28  N   UNL     1      31.968 -22.230 -18.394  0.00  0.00    -0.129 NA
ATOM     29  N   UNL     1      31.308 -22.964 -17.430  0.00  0.00    -0.128 NA
ATOM     30  C   UNL     1      33.252 -22.288 -18.123  0.00  0.00    +0.188 C 
ATOM     31  C   UNL     1      32.213 -23.441 -16.606  0.00  0.00    +0.192 C 
BRANCH  27  32
ATOM     32  C   UNL     1      34.701 -23.359 -16.357  0.00  0.00    +0.080 C 
ATOM     33  C   UNL     1      35.103 -22.281 -15.347  0.00  0.00    +0.022 C 
ATOM     34  C   UNL     1      34.656 -24.737 -15.695  0.00  0.00    +0.022 C 
ENDBRANCH  27  32
ENDBRANCH   6  30
TORSDOF 5
ENDMDL
MODEL 6
REMARK VINA RESULT:     -11.2      1.695     10.613
REMARK  Name = 71245288
REMARK  5 active torsions:
REMARK  status: ('A' for Active; 'I' for Inactive)
REMARK    1  A    between atoms: C_3  and  C_9
REMARK    2  A    between atoms: C_6  and  N_14
REMARK    3  A    between atoms: C_15  and  C_18
REMARK    4  A    between atoms: C_22  and  C_30
REMARK    5  A    between atoms: N_27  and  C_32
REMARK                            x       y       z     vdW  Elec       q    Type
REMARK                         _______ _______ _______ _____ _____    ______ ____
ROOT
ATOM      1  O   UNL     1      36.280 -22.148 -19.380  0.00  0.00    -0.270 OA
ATOM      2  N   UNL     1      34.755 -20.393 -19.702  0.00  0.00    -0.259 N 
ATOM      3  C   UNL     1      35.193 -21.601 -19.138  0.00  0.00    +0.253 C 
ATOM      4  H   UNL     1      33.867 -20.083 -19.413  0.00  0.00    +0.157 HD
ATOM      5  N   UNL     1      34.811 -18.432 -21.046  0.00  0.00    -0.388 NA
ATOM      6  C   UNL     1      35.488 -17.671 -21.935  0.00  0.00    +0.166 C 
ATOM      7  C   UNL     1      35.424 -19.562 -20.633  0.00  0.00    +0.167 C 
ATOM      8  C   UNL     1      36.744 -17.987 -22.427  0.00  0.00    +0.031 C 
ATOM      9  C   UNL     1      36.678 -19.966 -21.064  0.00  0.00    +0.101 C 
ATOM     10  C   UNL     1      37.344 -19.158 -21.979  0.00  0.00    -0.015 C 
ENDROOT
BRANCH   3  15
ATOM     11  F   UNL     1      32.426 -21.772 -19.586  0.00  0.00    -0.204 F 
ATOM     12  C   UNL     1      33.926 -23.343 -16.074  0.00  0.00    +0.046 C 
ATOM     13  C   UNL     1      32.558 -23.404 -16.341  0.00  0.00    -0.006 C 
ATOM     14  C   UNL     1      34.791 -22.750 -16.993  0.00  0.00    +0.021 C 
ATOM     15  C   UNL     1      34.288 -22.218 -18.181  0.00  0.00    +0.082 C 
ATOM     16  C   UNL     1      32.055 -22.872 -17.528  0.00  0.00    +0.027 C 
ATOM     17  C   UNL     1      31.603 -24.032 -15.377  0.00  0.00    +0.032 C 
ATOM     18  C   UNL     1      32.920 -22.280 -18.448  0.00  0.00    +0.144 C 
BRANCH  12  20
ATOM     19  N   UNL     1      34.615 -24.374 -12.745  0.00  0.00    -0.255 NA
ATOM     20  N   UNL     1      34.445 -23.865 -14.901  0.00  0.00    -0.282 N 
ATOM     21  C   UNL     1      35.696 -24.865 -13.433  0.00  0.00    +0.053 C 
ATOM     22  C   UNL     1      35.613 -24.562 -14.771  0.00  0.00    +0.134 C 
ATOM     23  C   UNL     1      33.881 -23.778 -13.658  0.00  0.00    +0.219 C 
BRANCH  21  24
ATOM     24  C   UNL     1      36.837 -25.645 -12.787  0.00  0.00    +0.037 C 
ATOM     25  C   UNL     1      38.087 -24.907 -12.403  0.00  0.00    +0.006 C 
ATOM     26  C   UNL     1      38.101 -25.852 -13.569  0.00  0.00    +0.006 C 
ENDBRANCH  21  24
ENDBRANCH  12  20
ENDBRANCH   3  15
BRANCH   6  30
ATOM     27  N   UNL     1      34.336 -16.264 -23.612  0.00  0.00    -0.252 N 
ATOM     28  N   UNL     1      34.522 -15.439 -21.594  0.00  0.00    -0.129 NA
ATOM     29  N   UNL     1      33.858 -14.519 -22.382  0.00  0.00    -0.128 NA
ATOM     30  C   UNL     1      34.800 -16.476 -22.350  0.00  0.00    +0.188 C 
ATOM     31  C   UNL     1      33.755 -15.032 -23.587  0.00  0.00    +0.192 C 
BRANCH  27  32
ATOM     32  C   UNL     1      34.425 -17.142 -24.754  0.00  0.00    +0.080 C 
ATOM     33  C   UNL     1      33.622 -18.427 -24.539  0.00  0.00    +0.022 C 
ATOM     34  C   UNL     1      33.990 -16.437 -26.041  0.00  0.00    +0.022 C 
ENDBRANCH  27  32
ENDBRANCH   6  30
TORSDOF 5
ENDMDL
MODEL 7
REMARK VINA RESULT:     -11.2      5.923      9.962
REMARK  Name = 71245288
REMARK  5 active torsions:
REMARK  status: ('A' for Active; 'I' for Inactive)
REMARK    1  A    between atoms: C_3  and  C_9
REMARK    2  A    between atoms: C_6  and  N_14
REMARK    3  A    between atoms: C_15  and  C_18
REMARK    4  A    between atoms: C_22  and  C_30
REMARK    5  A    between atoms: N_27  and  C_32
REMARK                            x       y       z     vdW  Elec       q    Type
REMARK                         _______ _______ _______ _____ _____    ______ ____
ROOT
ATOM      1  O   UNL     1      32.653 -15.286 -26.477  0.00  0.00    -0.270 OA
ATOM      2  N   UNL     1      33.860 -15.454 -24.471  0.00  0.00    -0.259 N 
ATOM      3  C   UNL     1      33.186 -14.761 -25.487  0.00  0.00    +0.253 C 
ATOM      4  H   UNL     1      34.232 -14.899 -23.748  0.00  0.00    +0.157 HD
ATOM      5  N   UNL     1      34.758 -17.305 -23.276  0.00  0.00    -0.388 NA
ATOM      6  C   UNL     1      34.939 -18.643 -23.204  0.00  0.00    +0.166 C 
ATOM      7  C   UNL     1      34.075 -16.848 -24.349  0.00  0.00    +0.167 C 
ATOM      8  C   UNL     1      34.470 -19.541 -24.149  0.00  0.00    +0.031 C 
ATOM      9  C   UNL     1      33.566 -17.663 -25.348  0.00  0.00    +0.101 C 
ATOM     10  C   UNL     1      33.772 -19.034 -25.239  0.00  0.00    -0.015 C 
ENDROOT
BRANCH   3  15
ATOM     11  F   UNL     1      33.851 -12.976 -27.551  0.00  0.00    -0.204 F 
ATOM     12  C   UNL     1      32.601 -11.397 -23.945  0.00  0.00    +0.046 C 
ATOM     13  C   UNL     1      32.942 -10.551 -25.001  0.00  0.00    -0.006 C 
ATOM     14  C   UNL     1      32.682 -12.780 -24.106  0.00  0.00    +0.021 C 
ATOM     15  C   UNL     1      33.104 -13.317 -25.322  0.00  0.00    +0.082 C 
ATOM     16  C   UNL     1      33.364 -11.088 -26.216  0.00  0.00    +0.027 C 
ATOM     17  C   UNL     1      32.868  -9.064 -24.861  0.00  0.00    +0.032 C 
ATOM     18  C   UNL     1      33.444 -12.471 -26.377  0.00  0.00    +0.144 C 
BRANCH  12  20
ATOM     19  N   UNL     1      31.287 -10.815 -20.697  0.00  0.00    -0.255 NA
ATOM     20  N   UNL     1      32.181 -10.884 -22.729  0.00  0.00    -0.282 N 
ATOM     21  C   UNL     1      31.749  -9.573 -21.052  0.00  0.00    +0.053 C 
ATOM     22  C   UNL     1      32.307  -9.590 -22.308  0.00  0.00    +0.134 C 
ATOM     23  C   UNL     1      31.563 -11.582 -21.728  0.00  0.00    +0.219 C 
BRANCH  21  24
ATOM     24  C   UNL     1      31.651  -8.338 -20.161  0.00  0.00    +0.037 C 
ATOM     25  C   UNL     1      31.389  -7.007 -20.802  0.00  0.00    +0.006 C 
ATOM     26  C   UNL     1      32.743  -7.311 -20.231  0.00  0.00    +0.006 C 
ENDBRANCH  21  24
ENDBRANCH  12  20
ENDBRANCH   3  15
BRANCH   6  30
ATOM     27  N   UNL     1      35.151 -19.896 -21.082  0.00  0.00    -0.252 N 
ATOM     28  N   UNL     1      36.916 -18.792 -21.754  0.00  0.00    -0.129 NA
ATOM     29  N   UNL     1      37.223 -19.422 -20.565  0.00  0.00    -0.128 NA
ATOM     30  C   UNL     1      35.670 -19.088 -22.047  0.00  0.00    +0.188 C 
ATOM     31  C   UNL     1      36.153 -20.079 -20.178  0.00  0.00    +0.192 C 
BRANCH  27  32
ATOM     32  C   UNL     1      33.823 -20.456 -21.008  0.00  0.00    +0.080 C 
ATOM     33  C   UNL     1      33.685 -21.426 -19.832  0.00  0.00    +0.022 C 
ATOM     34  C   UNL     1      32.754 -19.363 -20.940  0.00  0.00    +0.022 C 
ENDBRANCH  27  32
ENDBRANCH   6  30
TORSDOF 5
ENDMDL
MODEL 8
REMARK VINA RESULT:     -11.1      1.037      1.688
REMARK  Name = 71245288
REMARK  5 active torsions:
REMARK  status: ('A' for Active; 'I' for Inactive)
REMARK    1  A    between atoms: C_3  and  C_9
REMARK    2  A    between atoms: C_6  and  N_14
REMARK    3  A    between atoms: C_15  and  C_18
REMARK    4  A    between atoms: C_22  and  C_30
REMARK    5  A    between atoms: N_27  and  C_32
REMARK                            x       y       z     vdW  Elec       q    Type
REMARK                         _______ _______ _______ _____ _____    ______ ____
ROOT
ATOM      1  O   UNL     1      32.645 -21.225 -19.103  0.00  0.00    -0.270 OA
ATOM      2  N   UNL     1      34.567 -22.231 -18.206  0.00  0.00    -0.259 N 
ATOM      3  C   UNL     1      33.876 -21.387 -19.087  0.00  0.00    +0.253 C 
ATOM      4  H   UNL     1      35.545 -22.255 -18.316  0.00  0.00    +0.157 HD
ATOM      5  N   UNL     1      34.899 -23.795 -16.445  0.00  0.00    -0.388 NA
ATOM      6  C   UNL     1      34.352 -24.565 -15.479  0.00  0.00    +0.166 C 
ATOM      7  C   UNL     1      34.042 -23.055 -17.181  0.00  0.00    +0.167 C 
ATOM      8  C   UNL     1      32.993 -24.629 -15.215  0.00  0.00    +0.031 C 
ATOM      9  C   UNL     1      32.668 -23.048 -16.997  0.00  0.00    +0.101 C 
ATOM     10  C   UNL     1      32.142 -23.853 -15.993  0.00  0.00    -0.015 C 
ENDROOT
BRANCH   3  15
ATOM     11  F   UNL     1      36.672 -21.265 -18.862  0.00  0.00    -0.204 F 
ATOM     12  C   UNL     1      34.884 -19.230 -21.980  0.00  0.00    +0.046 C 
ATOM     13  C   UNL     1      36.271 -19.200 -21.826  0.00  0.00    -0.006 C 
ATOM     14  C   UNL     1      34.098 -19.949 -21.079  0.00  0.00    +0.021 C 
ATOM     15  C   UNL     1      34.698 -20.638 -20.025  0.00  0.00    +0.082 C 
ATOM     16  C   UNL     1      36.870 -19.888 -20.772  0.00  0.00    +0.027 C 
ATOM     17  C   UNL     1      37.142 -18.438 -22.773  0.00  0.00    +0.032 C 
ATOM     18  C   UNL     1      36.084 -20.607 -19.872  0.00  0.00    +0.144 C 
BRANCH  12  20
ATOM     19  N   UNL     1      33.503 -16.859 -24.235  0.00  0.00    -0.255 NA
ATOM     20  N   UNL     1      34.268 -18.553 -23.019  0.00  0.00    -0.282 N 
ATOM     21  C   UNL     1      33.219 -18.051 -24.854  0.00  0.00    +0.053 C 
ATOM     22  C   UNL     1      33.684 -19.116 -24.119  0.00  0.00    +0.134 C 
ATOM     23  C   UNL     1      34.135 -17.197 -23.134  0.00  0.00    +0.219 C 
BRANCH  21  24
ATOM     24  C   UNL     1      32.483 -18.169 -26.185  0.00  0.00    +0.037 C 
ATOM     25  C   UNL     1      32.249 -16.925 -26.991  0.00  0.00    +0.006 C 
ATOM     26  C   UNL     1      31.100 -17.597 -26.296  0.00  0.00    +0.006 C 
ENDBRANCH  21  24
ENDBRANCH  12  20
ENDBRANCH   3  15
BRANCH   6  30
ATOM     27  N   UNL     1      35.840 -24.929 -13.536  0.00  0.00    -0.252 N 
ATOM     28  N   UNL     1      35.771 -26.521 -15.036  0.00  0.00    -0.129 NA
ATOM     29  N   UNL     1      36.646 -26.900 -14.038  0.00  0.00    -0.128 NA
ATOM     30  C   UNL     1      35.299 -25.337 -14.718  0.00  0.00    +0.188 C 
ATOM     31  C   UNL     1      36.674 -25.934 -13.148  0.00  0.00    +0.192 C 
BRANCH  27  32
ATOM     32  C   UNL     1      35.597 -23.699 -12.823  0.00  0.00    +0.080 C 
ATOM     33  C   UNL     1      34.699 -23.923 -11.603  0.00  0.00    +0.022 C 
ATOM     34  C   UNL     1      36.904 -23.015 -12.418  0.00  0.00    +0.022 C 
ENDBRANCH  27  32
ENDBRANCH   6  30
TORSDOF 5
ENDMDL
MODEL 9
REMARK VINA RESULT:     -11.1      6.921     10.540
REMARK  Name = 71245288
REMARK  5 active torsions:
REMARK  status: ('A' for Active; 'I' for Inactive)
REMARK    1  A    between atoms: C_3  and  C_9
REMARK    2  A    between atoms: C_6  and  N_14
REMARK    3  A    between atoms: C_15  and  C_18
REMARK    4  A    between atoms: C_22  and  C_30
REMARK    5  A    between atoms: N_27  and  C_32
REMARK                            x       y       z     vdW  Elec       q    Type
REMARK                         _______ _______ _______ _____ _____    ______ ____
ROOT
ATOM      1  O   UNL     1      32.536 -13.156 -24.234  0.00  0.00    -0.270 OA
ATOM      2  N   UNL     1      33.484 -14.281 -22.405  0.00  0.00    -0.259 N 
ATOM      3  C   UNL     1      32.790 -13.229 -23.022  0.00  0.00    +0.253 C 
ATOM      4  H   UNL     1      33.610 -14.198 -21.433  0.00  0.00    +0.157 HD
ATOM      5  N   UNL     1      34.662 -16.338 -22.208  0.00  0.00    -0.388 NA
ATOM      6  C   UNL     1      35.164 -17.434 -22.820  0.00  0.00    +0.166 C 
ATOM      7  C   UNL     1      34.027 -15.446 -23.000  0.00  0.00    +0.167 C 
ATOM      8  C   UNL     1      35.059 -17.679 -24.180  0.00  0.00    +0.031 C 
ATOM      9  C   UNL     1      33.869 -15.598 -24.368  0.00  0.00    +0.101 C 
ATOM     10  C   UNL     1      34.398 -16.738 -24.962  0.00  0.00    -0.015 C 
ENDROOT
BRANCH   3  15
ATOM     11  F   UNL     1      31.913 -13.741 -20.403  0.00  0.00    -0.204 F 
ATOM     12  C   UNL     1      31.864  -9.833 -21.739  0.00  0.00    +0.046 C 
ATOM     13  C   UNL     1      31.437 -10.138 -20.446  0.00  0.00    -0.006 C 
ATOM     14  C   UNL     1      32.308 -10.850 -22.585  0.00  0.00    +0.021 C 
ATOM     15  C   UNL     1      32.326 -12.171 -22.137  0.00  0.00    +0.082 C 
ATOM     16  C   UNL     1      31.455 -11.459 -19.999  0.00  0.00    +0.027 C 
ATOM     17  C   UNL     1      30.954  -9.073 -19.515  0.00  0.00    +0.032 C 
ATOM     18  C   UNL     1      31.900 -12.475 -20.845  0.00  0.00    +0.144 C 
BRANCH  12  20
ATOM     19  N   UNL     1      32.531  -6.445 -22.572  0.00  0.00    -0.255 NA
ATOM     20  N   UNL     1      31.853  -8.529 -22.203  0.00  0.00    -0.282 N 
ATOM     21  C   UNL     1      31.307  -6.655 -23.157  0.00  0.00    +0.053 C 
ATOM     22  C   UNL     1      30.866  -7.939 -22.942  0.00  0.00    +0.134 C 
ATOM     23  C   UNL     1      32.831  -7.593 -22.006  0.00  0.00    +0.219 C 
BRANCH  21  24
ATOM     24  C   UNL     1      30.542  -5.593 -23.942  0.00  0.00    +0.037 C 
ATOM     25  C   UNL     1      30.369  -5.778 -25.421  0.00  0.00    +0.006 C 
ATOM     26  C   UNL     1      31.299  -4.721 -24.900  0.00  0.00    +0.006 C 
ENDBRANCH  21  24
ENDBRANCH  12  20
ENDBRANCH   3  15
BRANCH   6  30
ATOM     27  N   UNL     1      35.187 -19.246 -21.137  0.00  0.00    -0.252 N 
ATOM     28  N   UNL     1      37.131 -18.485 -21.792  0.00  0.00    -0.129 NA
ATOM     29  N   UNL     1      37.344 -19.482 -20.861  0.00  0.00    -0.128 NA
ATOM     30  C   UNL     1      35.832 -18.359 -21.943  0.00  0.00    +0.188 C 
ATOM     31  C   UNL     1      36.168 -19.926 -20.480  0.00  0.00    +0.192 C 
BRANCH  27  32
ATOM     32  C   UNL     1      33.766 -19.447 -20.990  0.00  0.00    +0.080 C 
ATOM     33  C   UNL     1      33.079 -19.619 -22.347  0.00  0.00    +0.022 C 
ATOM     34  C   UNL     1      33.456 -20.628 -20.069  0.00  0.00    +0.022 C 
ENDBRANCH  27  32
ENDBRANCH   6  30
TORSDOF 5
ENDMDL
