MODEL 1
REMARK VINA RESULT:     -12.2      0.000      0.000
REMARK  Name = 16040279
REMARK  5 active torsions:
REMARK  status: ('A' for Active; 'I' for Inactive)
REMARK    1  A    between atoms: N_2  and  C_21
REMARK    2  A    between atoms: C_3  and  C_11
REMARK    3  A    between atoms: C_4  and  N_17
REMARK    4  A    between atoms: C_21  and  C_22
REMARK    5  A    between atoms: C_22  and  C_25
REMARK                            x       y       z     vdW  Elec       q    Type
REMARK                         _______ _______ _______ _____ _____    ______ ____
ROOT
ATOM      1  O   UNL     1      32.369 -21.253 -19.404  0.00  0.00    -0.275 OA
ATOM      2  N   UNL     1      34.690 -21.265 -19.414  0.00  0.00    -0.281 N 
ATOM      3  C   UNL     1      34.654 -19.038 -21.229  0.00  0.00    +0.015 C 
ATOM      4  C   UNL     1      35.909 -19.925 -21.153  0.00  0.00    -0.041 C 
ATOM      5  C   UNL     1      35.940 -20.605 -19.786  0.00  0.00    +0.072 C 
ATOM      6  C   UNL     1      33.419 -19.930 -21.071  0.00  0.00    +0.088 C 
ATOM      7  C   UNL     1      33.440 -20.851 -19.866  0.00  0.00    +0.226 C 
ENDROOT
BRANCH   3  11
ATOM      8  F   UNL     1      34.990 -16.220 -21.294  0.00  0.00    -0.204 F 
ATOM      9  F   UNL     1      33.890 -18.699 -26.044  0.00  0.00    -0.202 F 
ATOM     10  F   UNL     1      34.239 -15.988 -25.960  0.00  0.00    -0.202 F 
ATOM     11  C   UNL     1      34.542 -18.214 -22.502  0.00  0.00    +0.006 C 
ATOM     12  C   UNL     1      34.720 -16.834 -22.454  0.00  0.00    +0.138 C 
ATOM     13  C   UNL     1      34.262 -18.847 -23.710  0.00  0.00    +0.030 C 
ATOM     14  C   UNL     1      34.159 -18.094 -24.880  0.00  0.00    +0.167 C 
ATOM     15  C   UNL     1      34.617 -16.081 -23.624  0.00  0.00    +0.061 C 
ATOM     16  C   UNL     1      34.337 -16.711 -24.837  0.00  0.00    +0.170 C 
ENDBRANCH   3  11
BRANCH   4  17
ATOM     17  N   UNL     1      37.141 -19.149 -21.310  0.00  0.00    +0.383 N 
ATOM     18  H   UNL     1      37.865 -19.533 -20.702  0.00  0.00    -0.089 HD
ATOM     19  H   UNL     1      36.965 -18.175 -21.057  0.00  0.00    -0.089 HD
ATOM     20  H   UNL     1      37.452 -19.196 -22.281  0.00  0.00    -0.089 HD
ENDBRANCH   4  17
BRANCH   2  21
ATOM     21  C   UNL     1      34.778 -22.224 -18.321  0.00  0.00    +0.098 C 
BRANCH  21  22
ATOM     22  C   UNL     1      36.005 -21.996 -17.439  0.00  0.00    +0.048 C 
BRANCH  22  25
ATOM     23  O   UNL     1      38.125 -24.326 -13.638  0.00  0.00    -0.435 OA
ATOM     24  O   UNL     1      36.002 -24.956 -12.689  0.00  0.00    -0.435 OA
ATOM     25  C   UNL     1      35.967 -22.794 -16.160  0.00  0.00    -0.017 C 
ATOM     26  C   UNL     1      37.162 -23.151 -15.549  0.00  0.00    +0.036 C 
ATOM     27  C   UNL     1      34.728 -23.153 -15.621  0.00  0.00    -0.001 C 
ATOM     28  C   UNL     1      37.076 -23.881 -14.381  0.00  0.00    +0.176 C 
ATOM     29  C   UNL     1      35.863 -24.241 -13.839  0.00  0.00    +0.176 C 
ATOM     30  C   UNL     1      34.669 -23.891 -14.437  0.00  0.00    +0.040 C 
ATOM     31  C   UNL     1      37.437 -25.005 -12.568  0.00  0.00    +0.429 C 
ENDBRANCH  22  25
ENDBRANCH  21  22
ENDBRANCH   2  21
TORSDOF 5
ENDMDL
MODEL 2
REMARK VINA RESULT:     -11.9      3.078      4.788
REMARK  Name = 16040279
REMARK  5 active torsions:
REMARK  status: ('A' for Active; 'I' for Inactive)
REMARK    1  A    between atoms: N_2  and  C_21
REMARK    2  A    between atoms: C_3  and  C_11
REMARK    3  A    between atoms: C_4  and  N_17
REMARK    4  A    between atoms: C_21  and  C_22
REMARK    5  A    between atoms: C_22  and  C_25
REMARK                            x       y       z     vdW  Elec       q    Type
REMARK                         _______ _______ _______ _____ _____    ______ ____
ROOT
ATOM      1  O   UNL     1      36.454 -22.101 -18.571  0.00  0.00    -0.275 OA
ATOM      2  N   UNL     1      34.156 -22.160 -18.893  0.00  0.00    -0.281 N 
ATOM      3  C   UNL     1      34.437 -20.193 -20.969  0.00  0.00    +0.015 C 
ATOM      4  C   UNL     1      33.073 -20.368 -20.279  0.00  0.00    -0.041 C 
ATOM      5  C   UNL     1      32.999 -21.780 -19.701  0.00  0.00    +0.072 C 
ATOM      6  C   UNL     1      35.538 -20.377 -19.921  0.00  0.00    +0.088 C 
ATOM      7  C   UNL     1      35.434 -21.644 -19.093  0.00  0.00    +0.226 C 
ENDROOT
BRANCH   3  11
ATOM      8  F   UNL     1      34.678 -19.962 -23.788  0.00  0.00    -0.204 F 
ATOM      9  F   UNL     1      34.875 -15.327 -20.890  0.00  0.00    -0.202 F 
ATOM     10  F   UNL     1      35.095 -15.251 -23.614  0.00  0.00    -0.202 F 
ATOM     11  C   UNL     1      34.615 -18.863 -21.684  0.00  0.00    +0.006 C 
ATOM     12  C   UNL     1      34.726 -18.830 -23.071  0.00  0.00    +0.138 C 
ATOM     13  C   UNL     1      34.665 -17.686 -20.945  0.00  0.00    +0.030 C 
ATOM     14  C   UNL     1      34.827 -16.463 -21.597  0.00  0.00    +0.167 C 
ATOM     15  C   UNL     1      34.889 -17.608 -23.724  0.00  0.00    +0.061 C 
ATOM     16  C   UNL     1      34.939 -16.424 -22.987  0.00  0.00    +0.170 C 
ENDBRANCH   3  11
BRANCH   4  17
ATOM     17  N   UNL     1      31.958 -20.194 -21.213  0.00  0.00    +0.383 N 
ATOM     18  H   UNL     1      31.484 -19.312 -21.016  0.00  0.00    -0.089 HD
ATOM     19  H   UNL     1      31.299 -20.966 -21.104  0.00  0.00    -0.089 HD
ATOM     20  H   UNL     1      32.313 -20.182 -22.170  0.00  0.00    -0.089 HD
ENDBRANCH   4  17
BRANCH   2  21
ATOM     21  C   UNL     1      33.976 -23.320 -18.030  0.00  0.00    +0.098 C 
BRANCH  21  22
ATOM     22  C   UNL     1      33.659 -22.933 -16.587  0.00  0.00    +0.048 C 
BRANCH  22  25
ATOM     23  O   UNL     1      28.760 -22.615 -17.115  0.00  0.00    -0.435 OA
ATOM     24  O   UNL     1      28.346 -24.042 -15.218  0.00  0.00    -0.435 OA
ATOM     25  C   UNL     1      32.239 -23.253 -16.190  0.00  0.00    -0.017 C 
ATOM     26  C   UNL     1      31.192 -22.718 -16.928  0.00  0.00    +0.036 C 
ATOM     27  C   UNL     1      32.014 -24.081 -15.087  0.00  0.00    -0.001 C 
ATOM     28  C   UNL     1      29.911 -23.038 -16.527  0.00  0.00    +0.176 C 
ATOM     29  C   UNL     1      29.675 -23.853 -15.442  0.00  0.00    +0.176 C 
ATOM     30  C   UNL     1      30.707 -24.391 -14.701  0.00  0.00    +0.040 C 
ATOM     31  C   UNL     1      27.773 -23.255 -16.281  0.00  0.00    +0.429 C 
ENDBRANCH  22  25
ENDBRANCH  21  22
ENDBRANCH   2  21
TORSDOF 5
ENDMDL
MODEL 3
REMARK VINA RESULT:     -11.7      1.889      2.939
REMARK  Name = 16040279
REMARK  5 active torsions:
REMARK  status: ('A' for Active; 'I' for Inactive)
REMARK    1  A    between atoms: N_2  and  C_21
REMARK    2  A    between atoms: C_3  and  C_11
REMARK    3  A    between atoms: C_4  and  N_17
REMARK    4  A    between atoms: C_21  and  C_22
REMARK    5  A    between atoms: C_22  and  C_25
REMARK                            x       y       z     vdW  Elec       q    Type
REMARK                         _______ _______ _______ _____ _____    ______ ____
ROOT
ATOM      1  O   UNL     1      36.403 -22.014 -18.683  0.00  0.00    -0.275 OA
ATOM      2  N   UNL     1      34.106 -22.072 -19.007  0.00  0.00    -0.281 N 
ATOM      3  C   UNL     1      34.387 -20.087 -21.066  0.00  0.00    +0.015 C 
ATOM      4  C   UNL     1      33.022 -20.269 -20.379  0.00  0.00    -0.041 C 
ATOM      5  C   UNL     1      32.949 -21.685 -19.813  0.00  0.00    +0.072 C 
ATOM      6  C   UNL     1      35.487 -20.279 -20.018  0.00  0.00    +0.088 C 
ATOM      7  C   UNL     1      35.383 -21.553 -19.202  0.00  0.00    +0.226 C 
ENDROOT
BRANCH   3  11
ATOM      8  F   UNL     1      34.621 -19.829 -23.883  0.00  0.00    -0.204 F 
ATOM      9  F   UNL     1      34.831 -15.222 -20.942  0.00  0.00    -0.202 F 
ATOM     10  F   UNL     1      35.043 -15.121 -23.666  0.00  0.00    -0.202 F 
ATOM     11  C   UNL     1      34.564 -18.750 -21.769  0.00  0.00    +0.006 C 
ATOM     12  C   UNL     1      34.672 -18.704 -23.156  0.00  0.00    +0.138 C 
ATOM     13  C   UNL     1      34.618 -17.580 -21.018  0.00  0.00    +0.030 C 
ATOM     14  C   UNL     1      34.779 -16.351 -21.660  0.00  0.00    +0.167 C 
ATOM     15  C   UNL     1      34.835 -17.476 -23.798  0.00  0.00    +0.061 C 
ATOM     16  C   UNL     1      34.888 -16.300 -23.050  0.00  0.00    +0.170 C 
ENDBRANCH   3  11
BRANCH   4  17
ATOM     17  N   UNL     1      31.908 -20.087 -21.312  0.00  0.00    +0.383 N 
ATOM     18  H   UNL     1      31.710 -20.970 -21.782  0.00  0.00    -0.089 HD
ATOM     19  H   UNL     1      32.158 -19.380 -22.006  0.00  0.00    -0.089 HD
ATOM     20  H   UNL     1      31.080 -19.781 -20.799  0.00  0.00    -0.089 HD
ENDBRANCH   4  17
BRANCH   2  21
ATOM     21  C   UNL     1      33.925 -23.240 -18.155  0.00  0.00    +0.098 C 
BRANCH  21  22
ATOM     22  C   UNL     1      32.770 -23.073 -17.170  0.00  0.00    +0.048 C 
BRANCH  22  25
ATOM     23  O   UNL     1      35.997 -23.783 -13.500  0.00  0.00    -0.435 OA
ATOM     24  O   UNL     1      34.273 -24.472 -11.963  0.00  0.00    -0.435 OA
ATOM     25  C   UNL     1      33.140 -23.456 -15.758  0.00  0.00    -0.017 C 
ATOM     26  C   UNL     1      34.471 -23.405 -15.370  0.00  0.00    +0.036 C 
ATOM     27  C   UNL     1      32.130 -23.855 -14.878  0.00  0.00    -0.001 C 
ATOM     28  C   UNL     1      34.760 -23.765 -14.069  0.00  0.00    +0.176 C 
ATOM     29  C   UNL     1      33.776 -24.160 -13.191  0.00  0.00    +0.176 C 
ATOM     30  C   UNL     1      32.449 -24.215 -13.566  0.00  0.00    +0.040 C 
ATOM     31  C   UNL     1      35.680 -24.230 -12.167  0.00  0.00    +0.429 C 
ENDBRANCH  22  25
ENDBRANCH  21  22
ENDBRANCH   2  21
TORSDOF 5
ENDMDL
MODEL 4
REMARK VINA RESULT:     -11.6      4.130      6.681
REMARK  Name = 16040279
REMARK  5 active torsions:
REMARK  status: ('A' for Active; 'I' for Inactive)
REMARK    1  A    between atoms: N_2  and  C_21
REMARK    2  A    between atoms: C_3  and  C_11
REMARK    3  A    between atoms: C_4  and  N_17
REMARK    4  A    between atoms: C_21  and  C_22
REMARK    5  A    between atoms: C_22  and  C_25
REMARK                            x       y       z     vdW  Elec       q    Type
REMARK                         _______ _______ _______ _____ _____    ______ ____
ROOT
ATOM      1  O   UNL     1      34.936 -16.011 -20.142  0.00  0.00    -0.275 OA
ATOM      2  N   UNL     1      34.505 -16.478 -22.375  0.00  0.00    -0.281 N 
ATOM      3  C   UNL     1      33.797 -13.722 -22.773  0.00  0.00    +0.015 C 
ATOM      4  C   UNL     1      33.278 -14.782 -23.761  0.00  0.00    -0.041 C 
ATOM      5  C   UNL     1      34.218 -15.985 -23.720  0.00  0.00    +0.072 C 
ATOM      6  C   UNL     1      33.796 -14.328 -21.367  0.00  0.00    +0.088 C 
ATOM      7  C   UNL     1      34.495 -15.668 -21.242  0.00  0.00    +0.226 C 
ENDROOT
BRANCH   3  11
ATOM      8  F   UNL     1      34.466 -11.515 -24.428  0.00  0.00    -0.204 F 
ATOM      9  F   UNL     1      30.128 -10.935 -21.147  0.00  0.00    -0.202 F 
ATOM     10  F   UNL     1      30.885  -8.888 -22.794  0.00  0.00    -0.202 F 
ATOM     11  C   UNL     1      33.015 -12.418 -22.781  0.00  0.00    +0.006 C 
ATOM     12  C   UNL     1      33.404 -11.380 -23.621  0.00  0.00    +0.138 C 
ATOM     13  C   UNL     1      31.912 -12.273 -21.945  0.00  0.00    +0.030 C 
ATOM     14  C   UNL     1      31.190 -11.079 -21.949  0.00  0.00    +0.167 C 
ATOM     15  C   UNL     1      32.684 -10.184 -23.625  0.00  0.00    +0.061 C 
ATOM     16  C   UNL     1      31.577 -10.035 -22.789  0.00  0.00    +0.170 C 
ENDBRANCH   3  11
BRANCH   4  17
ATOM     17  N   UNL     1      33.233 -14.278 -25.136  0.00  0.00    +0.383 N 
ATOM     18  H   UNL     1      33.089 -13.268 -25.123  0.00  0.00    -0.089 HD
ATOM     19  H   UNL     1      32.464 -14.725 -25.637  0.00  0.00    -0.089 HD
ATOM     20  H   UNL     1      34.114 -14.490 -25.605  0.00  0.00    -0.089 HD
ENDBRANCH   4  17
BRANCH   2  21
ATOM     21  C   UNL     1      35.077 -17.816 -22.297  0.00  0.00    +0.098 C 
BRANCH  21  22
ATOM     22  C   UNL     1      34.011 -18.910 -22.306  0.00  0.00    +0.048 C 
BRANCH  22  25
ATOM     23  O   UNL     1      32.316 -22.055 -18.897  0.00  0.00    -0.435 OA
ATOM     24  O   UNL     1      34.537 -22.652 -18.177  0.00  0.00    -0.435 OA
ATOM     25  C   UNL     1      34.189 -19.916 -21.196  0.00  0.00    -0.017 C 
ATOM     26  C   UNL     1      33.066 -20.481 -20.607  0.00  0.00    +0.036 C 
ATOM     27  C   UNL     1      35.483 -20.252 -20.788  0.00  0.00    -0.001 C 
ATOM     28  C   UNL     1      33.280 -21.395 -19.596  0.00  0.00    +0.176 C 
ATOM     29  C   UNL     1      34.549 -21.736 -19.184  0.00  0.00    +0.176 C 
ATOM     30  C   UNL     1      35.673 -21.181 -19.762  0.00  0.00    +0.040 C 
ATOM     31  C   UNL     1      33.120 -22.849 -18.001  0.00  0.00    +0.429 C 
ENDBRANCH  22  25
ENDBRANCH  21  22
ENDBRANCH   2  21
TORSDOF 5
ENDMDL
MODEL 5
REMARK VINA RESULT:     -11.6      5.213     10.973
REMARK  Name = 16040279
REMARK  5 active torsions:
REMARK  status: ('A' for Active; 'I' for Inactive)
REMARK    1  A    between atoms: N_2  and  C_21
REMARK    2  A    between atoms: C_3  and  C_11
REMARK    3  A    between atoms: C_4  and  N_17
REMARK    4  A    between atoms: C_21  and  C_22
REMARK    5  A    between atoms: C_22  and  C_25
REMARK                            x       y       z     vdW  Elec       q    Type
REMARK                         _______ _______ _______ _____ _____    ______ ____
ROOT
ATOM      1  O   UNL     1      34.191 -19.203 -25.721  0.00  0.00    -0.275 OA
ATOM      2  N   UNL     1      34.442 -17.355 -24.340  0.00  0.00    -0.281 N 
ATOM      3  C   UNL     1      34.894 -19.123 -22.121  0.00  0.00    +0.015 C 
ATOM      4  C   UNL     1      34.431 -17.681 -21.851  0.00  0.00    -0.041 C 
ATOM      5  C   UNL     1      34.831 -16.811 -23.040  0.00  0.00    +0.072 C 
ATOM      6  C   UNL     1      34.194 -19.628 -23.386  0.00  0.00    +0.088 C 
ATOM      7  C   UNL     1      34.308 -18.717 -24.593  0.00  0.00    +0.226 C 
ENDROOT
BRANCH   3  11
ATOM      8  F   UNL     1      32.305 -19.918 -21.273  0.00  0.00    -0.204 F 
ATOM      9  F   UNL     1      36.561 -22.025 -18.560  0.00  0.00    -0.202 F 
ATOM     10  F   UNL     1      34.009 -22.704 -17.849  0.00  0.00    -0.202 F 
ATOM     11  C   UNL     1      34.653 -20.088 -20.971  0.00  0.00    +0.006 C 
ATOM     12  C   UNL     1      33.353 -20.430 -20.613  0.00  0.00    +0.138 C 
ATOM     13  C   UNL     1      35.738 -20.622 -20.282  0.00  0.00    +0.030 C 
ATOM     14  C   UNL     1      35.520 -21.508 -19.226  0.00  0.00    +0.167 C 
ATOM     15  C   UNL     1      33.134 -21.315 -19.556  0.00  0.00    +0.061 C 
ATOM     16  C   UNL     1      34.219 -21.854 -18.863  0.00  0.00    +0.170 C 
ENDBRANCH   3  11
BRANCH   4  17
ATOM     17  N   UNL     1      35.045 -17.123 -20.644  0.00  0.00    +0.383 N 
ATOM     18  H   UNL     1      34.375 -16.517 -20.170  0.00  0.00    -0.089 HD
ATOM     19  H   UNL     1      35.871 -16.580 -20.902  0.00  0.00    -0.089 HD
ATOM     20  H   UNL     1      35.319 -17.881 -20.019  0.00  0.00    -0.089 HD
ENDBRANCH   4  17
BRANCH   2  21
ATOM     21  C   UNL     1      34.463 -16.415 -25.454  0.00  0.00    +0.098 C 
BRANCH  21  22
ATOM     22  C   UNL     1      33.076 -15.864 -25.781  0.00  0.00    +0.048 C 
BRANCH  22  25
ATOM     23  O   UNL     1      33.088 -11.209 -24.136  0.00  0.00    -0.435 OA
ATOM     24  O   UNL     1      33.045 -10.298 -26.366  0.00  0.00    -0.435 OA
ATOM     25  C   UNL     1      33.068 -14.368 -25.976  0.00  0.00    -0.017 C 
ATOM     26  C   UNL     1      33.085 -13.541 -24.861  0.00  0.00    +0.036 C 
ATOM     27  C   UNL     1      33.042 -13.854 -27.275  0.00  0.00    -0.001 C 
ATOM     28  C   UNL     1      33.076 -12.179 -25.089  0.00  0.00    +0.176 C 
ATOM     29  C   UNL     1      33.050 -11.659 -26.364  0.00  0.00    +0.176 C 
ATOM     30  C   UNL     1      33.033 -12.472 -27.479  0.00  0.00    +0.040 C 
ATOM     31  C   UNL     1      33.069 -10.020 -24.952  0.00  0.00    +0.429 C 
ENDBRANCH  22  25
ENDBRANCH  21  22
ENDBRANCH   2  21
TORSDOF 5
ENDMDL
MODEL 6
REMARK VINA RESULT:     -11.5      2.015      2.869
REMARK  Name = 16040279
REMARK  5 active torsions:
REMARK  status: ('A' for Active; 'I' for Inactive)
REMARK    1  A    between atoms: N_2  and  C_21
REMARK    2  A    between atoms: C_3  and  C_11
REMARK    3  A    between atoms: C_4  and  N_17
REMARK    4  A    between atoms: C_21  and  C_22
REMARK    5  A    between atoms: C_22  and  C_25
REMARK                            x       y       z     vdW  Elec       q    Type
REMARK                         _______ _______ _______ _____ _____    ______ ____
ROOT
ATOM      1  O   UNL     1      32.191 -21.070 -19.514  0.00  0.00    -0.275 OA
ATOM      2  N   UNL     1      34.510 -21.162 -19.545  0.00  0.00    -0.281 N 
ATOM      3  C   UNL     1      34.533 -18.956 -21.386  0.00  0.00    +0.015 C 
ATOM      4  C   UNL     1      35.758 -19.884 -21.311  0.00  0.00    -0.041 C 
ATOM      5  C   UNL     1      35.778 -20.550 -19.936  0.00  0.00    +0.072 C 
ATOM      6  C   UNL     1      33.270 -19.803 -21.206  0.00  0.00    +0.088 C 
ATOM      7  C   UNL     1      33.270 -20.710 -19.991  0.00  0.00    +0.226 C 
ENDROOT
BRANCH   3  11
ATOM      8  F   UNL     1      34.956 -16.151 -21.485  0.00  0.00    -0.204 F 
ATOM      9  F   UNL     1      33.746 -18.647 -26.199  0.00  0.00    -0.202 F 
ATOM     10  F   UNL     1      34.179 -15.948 -26.149  0.00  0.00    -0.202 F 
ATOM     11  C   UNL     1      34.438 -18.143 -22.668  0.00  0.00    +0.006 C 
ATOM     12  C   UNL     1      34.659 -16.769 -22.637  0.00  0.00    +0.138 C 
ATOM     13  C   UNL     1      34.129 -18.781 -23.866  0.00  0.00    +0.030 C 
ATOM     14  C   UNL     1      34.042 -18.038 -25.044  0.00  0.00    +0.167 C 
ATOM     15  C   UNL     1      34.571 -16.026 -23.815  0.00  0.00    +0.061 C 
ATOM     16  C   UNL     1      34.263 -16.661 -25.018  0.00  0.00    +0.170 C 
ENDBRANCH   3  11
BRANCH   4  17
ATOM     17  N   UNL     1      37.014 -19.153 -21.488  0.00  0.00    +0.383 N 
ATOM     18  H   UNL     1      37.773 -19.815 -21.652  0.00  0.00    -0.089 HD
ATOM     19  H   UNL     1      37.213 -18.610 -20.647  0.00  0.00    -0.089 HD
ATOM     20  H   UNL     1      36.933 -18.524 -22.287  0.00  0.00    -0.089 HD
ENDBRANCH   4  17
BRANCH   2  21
ATOM     21  C   UNL     1      34.575 -22.110 -18.441  0.00  0.00    +0.098 C 
BRANCH  21  22
ATOM     22  C   UNL     1      33.321 -22.977 -18.338  0.00  0.00    +0.048 C 
BRANCH  22  25
ATOM     23  O   UNL     1      30.147 -23.751 -14.636  0.00  0.00    -0.435 OA
ATOM     24  O   UNL     1      31.907 -24.324 -13.093  0.00  0.00    -0.435 OA
ATOM     25  C   UNL     1      32.976 -23.345 -16.917  0.00  0.00    -0.017 C 
ATOM     26  C   UNL     1      31.645 -23.348 -16.522  0.00  0.00    +0.036 C 
ATOM     27  C   UNL     1      34.007 -23.675 -16.032  0.00  0.00    -0.001 C 
ATOM     28  C   UNL     1      31.378 -23.691 -15.212  0.00  0.00    +0.176 C 
ATOM     29  C   UNL     1      32.384 -24.018 -14.331  0.00  0.00    +0.176 C 
ATOM     30  C   UNL     1      33.710 -24.019 -14.711  0.00  0.00    +0.040 C 
ATOM     31  C   UNL     1      30.489 -24.153 -13.294  0.00  0.00    +0.429 C 
ENDBRANCH  22  25
ENDBRANCH  21  22
ENDBRANCH   2  21
TORSDOF 5
ENDMDL
MODEL 7
REMARK VINA RESULT:     -11.3      3.921      6.508
REMARK  Name = 16040279
REMARK  5 active torsions:
REMARK  status: ('A' for Active; 'I' for Inactive)
REMARK    1  A    between atoms: N_2  and  C_21
REMARK    2  A    between atoms: C_3  and  C_11
REMARK    3  A    between atoms: C_4  and  N_17
REMARK    4  A    between atoms: C_21  and  C_22
REMARK    5  A    between atoms: C_22  and  C_25
REMARK                            x       y       z     vdW  Elec       q    Type
REMARK                         _______ _______ _______ _____ _____    ______ ____
ROOT
ATOM      1  O   UNL     1      34.976 -16.176 -20.502  0.00  0.00    -0.275 OA
ATOM      2  N   UNL     1      34.459 -16.729 -22.697  0.00  0.00    -0.281 N 
ATOM      3  C   UNL     1      34.083 -13.938 -23.269  0.00  0.00    +0.015 C 
ATOM      4  C   UNL     1      33.426 -14.988 -24.182  0.00  0.00    -0.041 C 
ATOM      5  C   UNL     1      34.214 -16.291 -24.069  0.00  0.00    +0.072 C 
ATOM      6  C   UNL     1      34.030 -14.448 -21.826  0.00  0.00    +0.088 C 
ATOM      7  C   UNL     1      34.563 -15.853 -21.619  0.00  0.00    +0.226 C 
ENDROOT
BRANCH   3  11
ATOM      8  F   UNL     1      31.884 -13.115 -21.675  0.00  0.00    -0.204 F 
ATOM      9  F   UNL     1      33.909  -9.450 -25.194  0.00  0.00    -0.202 F 
ATOM     10  F   UNL     1      31.790  -8.792 -23.597  0.00  0.00    -0.202 F 
ATOM     11  C   UNL     1      33.463 -12.552 -23.355  0.00  0.00    +0.006 C 
ATOM     12  C   UNL     1      32.385 -12.222 -22.540  0.00  0.00    +0.138 C 
ATOM     13  C   UNL     1      33.980 -11.622 -24.252  0.00  0.00    +0.030 C 
ATOM     14  C   UNL     1      33.415 -10.349 -24.334  0.00  0.00    +0.167 C 
ATOM     15  C   UNL     1      31.818 -10.950 -22.622  0.00  0.00    +0.061 C 
ATOM     16  C   UNL     1      32.334 -10.013 -23.519  0.00  0.00    +0.170 C 
ENDBRANCH   3  11
BRANCH   4  17
ATOM     17  N   UNL     1      33.422 -14.571 -25.586  0.00  0.00    +0.383 N 
ATOM     18  H   UNL     1      33.341 -15.392 -26.185  0.00  0.00    -0.089 HD
ATOM     19  H   UNL     1      34.292 -14.079 -25.797  0.00  0.00    -0.089 HD
ATOM     20  H   UNL     1      32.631 -13.948 -25.755  0.00  0.00    -0.089 HD
ENDBRANCH   4  17
BRANCH   2  21
ATOM     21  C   UNL     1      34.867 -18.119 -22.536  0.00  0.00    +0.098 C 
BRANCH  21  22
ATOM     22  C   UNL     1      33.682 -19.051 -22.289  0.00  0.00    +0.048 C 
BRANCH  22  25
ATOM     23  O   UNL     1      32.182 -22.116 -18.720  0.00  0.00    -0.435 OA
ATOM     24  O   UNL     1      34.440 -22.668 -18.086  0.00  0.00    -0.435 OA
ATOM     25  C   UNL     1      33.923 -20.023 -21.161  0.00  0.00    -0.017 C 
ATOM     26  C   UNL     1      32.834 -20.583 -20.506  0.00  0.00    +0.036 C 
ATOM     27  C   UNL     1      35.238 -20.333 -20.802  0.00  0.00    -0.001 C 
ATOM     28  C   UNL     1      33.105 -21.466 -19.480  0.00  0.00    +0.176 C 
ATOM     29  C   UNL     1      34.395 -21.781 -19.117  0.00  0.00    +0.176 C 
ATOM     30  C   UNL     1      35.484 -21.230 -19.760  0.00  0.00    +0.040 C 
ATOM     31  C   UNL     1      33.034 -22.875 -17.840  0.00  0.00    +0.429 C 
ENDBRANCH  22  25
ENDBRANCH  21  22
ENDBRANCH   2  21
TORSDOF 5
ENDMDL
MODEL 8
REMARK VINA RESULT:     -11.3      1.385      1.827
REMARK  Name = 16040279
REMARK  5 active torsions:
REMARK  status: ('A' for Active; 'I' for Inactive)
REMARK    1  A    between atoms: N_2  and  C_21
REMARK    2  A    between atoms: C_3  and  C_11
REMARK    3  A    between atoms: C_4  and  N_17
REMARK    4  A    between atoms: C_21  and  C_22
REMARK    5  A    between atoms: C_22  and  C_25
REMARK                            x       y       z     vdW  Elec       q    Type
REMARK                         _______ _______ _______ _____ _____    ______ ____
ROOT
ATOM      1  O   UNL     1      32.270 -21.026 -19.592  0.00  0.00    -0.275 OA
ATOM      2  N   UNL     1      34.588 -21.075 -19.698  0.00  0.00    -0.281 N 
ATOM      3  C   UNL     1      34.513 -18.853 -21.519  0.00  0.00    +0.015 C 
ATOM      4  C   UNL     1      35.756 -19.760 -21.490  0.00  0.00    -0.041 C 
ATOM      5  C   UNL     1      35.832 -20.436 -20.123  0.00  0.00    +0.072 C 
ATOM      6  C   UNL     1      33.272 -19.725 -21.307  0.00  0.00    +0.088 C 
ATOM      7  C   UNL     1      33.328 -20.642 -20.100  0.00  0.00    +0.226 C 
ENDROOT
BRANCH   3  11
ATOM      8  F   UNL     1      34.981 -16.056 -21.629  0.00  0.00    -0.204 F 
ATOM      9  F   UNL     1      33.468 -18.505 -26.280  0.00  0.00    -0.202 F 
ATOM     10  F   UNL     1      33.952 -15.814 -26.241  0.00  0.00    -0.202 F 
ATOM     11  C   UNL     1      34.362 -18.032 -22.790  0.00  0.00    +0.006 C 
ATOM     12  C   UNL     1      34.610 -16.663 -22.765  0.00  0.00    +0.138 C 
ATOM     13  C   UNL     1      33.977 -18.658 -23.972  0.00  0.00    +0.030 C 
ATOM     14  C   UNL     1      33.838 -17.908 -25.140  0.00  0.00    +0.167 C 
ATOM     15  C   UNL     1      34.470 -15.912 -23.933  0.00  0.00    +0.061 C 
ATOM     16  C   UNL     1      34.085 -16.535 -25.120  0.00  0.00    +0.170 C 
ENDBRANCH   3  11
BRANCH   4  17
ATOM     17  N   UNL     1      36.993 -19.004 -21.701  0.00  0.00    +0.383 N 
ATOM     18  H   UNL     1      37.724 -19.633 -22.033  0.00  0.00    -0.089 HD
ATOM     19  H   UNL     1      37.285 -18.578 -20.820  0.00  0.00    -0.089 HD
ATOM     20  H   UNL     1      36.832 -18.273 -22.395  0.00  0.00    -0.089 HD
ENDBRANCH   4  17
BRANCH   2  21
ATOM     21  C   UNL     1      34.706 -22.031 -18.604  0.00  0.00    +0.098 C 
BRANCH  21  22
ATOM     22  C   UNL     1      33.408 -22.795 -18.352  0.00  0.00    +0.048 C 
BRANCH  22  25
ATOM     23  O   UNL     1      35.094 -23.914 -13.848  0.00  0.00    -0.435 OA
ATOM     24  O   UNL     1      32.874 -24.253 -12.975  0.00  0.00    -0.435 OA
ATOM     25  C   UNL     1      33.227 -23.188 -16.907  0.00  0.00    -0.017 C 
ATOM     26  C   UNL     1      34.348 -23.348 -16.104  0.00  0.00    +0.036 C 
ATOM     27  C   UNL     1      31.934 -23.382 -16.414  0.00  0.00    -0.001 C 
ATOM     28  C   UNL     1      34.132 -23.709 -14.789  0.00  0.00    +0.176 C 
ATOM     29  C   UNL     1      32.864 -23.903 -14.290  0.00  0.00    +0.176 C 
ATOM     30  C   UNL     1      31.743 -23.747 -15.079  0.00  0.00    +0.040 C 
ATOM     31  C   UNL     1      34.289 -24.258 -12.702  0.00  0.00    +0.429 C 
ENDBRANCH  22  25
ENDBRANCH  21  22
ENDBRANCH   2  21
TORSDOF 5
ENDMDL
MODEL 9
REMARK VINA RESULT:     -11.1      2.370      3.677
REMARK  Name = 16040279
REMARK  5 active torsions:
REMARK  status: ('A' for Active; 'I' for Inactive)
REMARK    1  A    between atoms: N_2  and  C_21
REMARK    2  A    between atoms: C_3  and  C_11
REMARK    3  A    between atoms: C_4  and  N_17
REMARK    4  A    between atoms: C_21  and  C_22
REMARK    5  A    between atoms: C_22  and  C_25
REMARK                            x       y       z     vdW  Elec       q    Type
REMARK                         _______ _______ _______ _____ _____    ______ ____
ROOT
ATOM      1  O   UNL     1      36.955 -20.964 -19.699  0.00  0.00    -0.275 OA
ATOM      2  N   UNL     1      34.646 -21.160 -19.556  0.00  0.00    -0.281 N 
ATOM      3  C   UNL     1      34.409 -19.696 -22.018  0.00  0.00    +0.015 C 
ATOM      4  C   UNL     1      33.207 -19.753 -21.058  0.00  0.00    -0.041 C 
ATOM      5  C   UNL     1      33.338 -21.002 -20.189  0.00  0.00    +0.072 C 
ATOM      6  C   UNL     1      35.691 -19.610 -21.184  0.00  0.00    +0.088 C 
ATOM      7  C   UNL     1      35.827 -20.664 -20.102  0.00  0.00    +0.226 C 
ENDROOT
BRANCH   3  11
ATOM      8  F   UNL     1      34.045 -20.085 -24.805  0.00  0.00    -0.204 F 
ATOM      9  F   UNL     1      34.586 -14.927 -23.068  0.00  0.00    -0.202 F 
ATOM     10  F   UNL     1      34.229 -15.448 -25.728  0.00  0.00    -0.202 F 
ATOM     11  C   UNL     1      34.360 -18.553 -23.019  0.00  0.00    +0.006 C 
ATOM     12  C   UNL     1      34.178 -18.824 -24.372  0.00  0.00    +0.138 C 
ATOM     13  C   UNL     1      34.499 -17.242 -22.575  0.00  0.00    +0.030 C 
ATOM     14  C   UNL     1      34.454 -16.191 -23.491  0.00  0.00    +0.167 C 
ATOM     15  C   UNL     1      34.135 -17.773 -25.289  0.00  0.00    +0.061 C 
ATOM     16  C   UNL     1      34.272 -16.456 -24.848  0.00  0.00    +0.170 C 
ENDBRANCH   3  11
BRANCH   4  17
ATOM     17  N   UNL     1      31.932 -19.823 -21.777  0.00  0.00    +0.383 N 
ATOM     18  H   UNL     1      32.108 -19.821 -22.782  0.00  0.00    -0.089 HD
ATOM     19  H   UNL     1      31.358 -19.016 -21.530  0.00  0.00    -0.089 HD
ATOM     20  H   UNL     1      31.443 -20.680 -21.519  0.00  0.00    -0.089 HD
ENDBRANCH   4  17
BRANCH   2  21
ATOM     21  C   UNL     1      34.707 -22.104 -18.448  0.00  0.00    +0.098 C 
BRANCH  21  22
ATOM     22  C   UNL     1      33.449 -22.965 -18.343  0.00  0.00    +0.048 C 
BRANCH  22  25
ATOM     23  O   UNL     1      30.179 -23.684 -14.714  0.00  0.00    -0.435 OA
ATOM     24  O   UNL     1      31.904 -24.119 -13.089  0.00  0.00    -0.435 OA
ATOM     25  C   UNL     1      33.068 -23.280 -16.918  0.00  0.00    -0.017 C 
ATOM     26  C   UNL     1      31.725 -23.314 -16.568  0.00  0.00    +0.036 C 
ATOM     27  C   UNL     1      34.079 -23.529 -15.985  0.00  0.00    -0.001 C 
ATOM     28  C   UNL     1      31.427 -23.606 -15.252  0.00  0.00    +0.176 C 
ATOM     29  C   UNL     1      32.412 -23.853 -14.323  0.00  0.00    +0.176 C 
ATOM     30  C   UNL     1      33.750 -23.823 -14.660  0.00  0.00    +0.040 C 
ATOM     31  C   UNL     1      30.490 -24.011 -13.344  0.00  0.00    +0.429 C 
ENDBRANCH  22  25
ENDBRANCH  21  22
ENDBRANCH   2  21
TORSDOF 5
ENDMDL
