MODEL 1
REMARK VINA RESULT:     -12.8      0.000      0.000
REMARK  Name = 24755471
REMARK  13 active torsions:
REMARK  status: ('A' for Active; 'I' for Inactive)
REMARK    1  A    between atoms: C_1  and  S_11
REMARK    2  A    between atoms: C_9  and  O_27
REMARK    3  A    between atoms: S_11  and  N_14
REMARK    4  A    between atoms: N_14  and  C_16
REMARK    5  A    between atoms: C_16  and  C_18
REMARK    6  A    between atoms: C_16  and  C_21
REMARK    7  A    between atoms: C_18  and  O_19
REMARK    8  A    between atoms: C_21  and  C_22
REMARK    9  A    between atoms: C_22  and  C_24
REMARK   10  A    between atoms: C_24  and  O_25
REMARK   11  A    between atoms: O_27  and  C_28
REMARK   12  A    between atoms: C_28  and  C_29
REMARK   13  A    between atoms: C_34  and  C_36
REMARK                            x       y       z     vdW  Elec       q    Type
REMARK                         _______ _______ _______ _____ _____    ______ ____
ROOT
ATOM      1  C   UNL     1      35.360 -23.268 -15.672  0.00  0.00    +0.122 C 
ATOM      2  C   UNL     1      34.502 -22.354 -17.757  0.00  0.00    +0.002 C 
ATOM      3  C   UNL     1      34.309 -23.078 -16.570  0.00  0.00    +0.020 C 
ATOM      4  C   UNL     1      35.780 -21.814 -18.038  0.00  0.00    +0.003 C 
ATOM      5  C   UNL     1      36.616 -22.737 -15.949  0.00  0.00    +0.020 C 
ATOM      6  C   UNL     1      36.826 -22.015 -17.123  0.00  0.00    +0.001 C 
ATOM      7  C   UNL     1      35.973 -21.089 -19.225  0.00  0.00    +0.037 C 
ATOM      8  C   UNL     1      33.455 -22.154 -18.673  0.00  0.00    +0.003 C 
ATOM      9  C   UNL     1      34.922 -20.900 -20.123  0.00  0.00    +0.139 C 
ATOM     10  C   UNL     1      33.666 -21.431 -19.847  0.00  0.00    +0.037 C 
ENDROOT
BRANCH   1  11
ATOM     11  S   UNL     1      35.095 -24.184 -14.183  0.00  0.00    +0.061 S 
ATOM     12  O   UNL     1      33.708 -24.013 -13.795  0.00  0.00    -0.153 OA
ATOM     13  O   UNL     1      35.634 -25.512 -14.402  0.00  0.00    -0.153 OA
BRANCH  11  14
ATOM     14  N   UNL     1      36.094 -23.358 -13.083  0.00  0.00    -0.170 NA
ATOM     15  H   UNL     1      35.508 -22.670 -12.612  0.00  0.00    +0.149 HD
BRANCH  14  16
ATOM     16  C   UNL     1      36.807 -24.110 -12.026  0.00  0.00    +0.174 C 
BRANCH  16  18
ATOM     17  O   UNL     1      35.853 -24.198  -9.790  0.00  0.00    -0.249 OA
ATOM     18  C   UNL     1      35.798 -24.507 -10.974  0.00  0.00    +0.330 C 
BRANCH  18  19
ATOM     19  O   UNL     1      34.784 -25.247 -11.492  0.00  0.00    -0.479 OA
ATOM     20  H   UNL     1      34.299 -25.828 -10.940  0.00  0.00    +0.295 HD
ENDBRANCH  18  19
ENDBRANCH  16  18
BRANCH  16  21
ATOM     21  C   UNL     1      37.588 -25.280 -12.636  0.00  0.00    +0.040 C 
BRANCH  21  22
ATOM     22  C   UNL     1      38.887 -24.925 -13.365  0.00  0.00    +0.111 C 
BRANCH  22  24
ATOM     23  O   UNL     1      40.505 -26.071 -14.744  0.00  0.00    -0.250 OA
ATOM     24  C   UNL     1      39.358 -25.988 -14.326  0.00  0.00    +0.314 C 
BRANCH  24  25
ATOM     25  O   UNL     1      38.367 -26.838 -14.694  0.00  0.00    -0.480 OA
ATOM     26  H   UNL     1      38.497 -27.764 -14.630  0.00  0.00    +0.295 HD
ENDBRANCH  24  25
ENDBRANCH  22  24
ENDBRANCH  21  22
ENDBRANCH  16  21
ENDBRANCH  14  16
ENDBRANCH  11  14
ENDBRANCH   1  11
BRANCH   9  27
ATOM     27  O   UNL     1      35.125 -20.193 -21.268  0.00  0.00    -0.471 OA
BRANCH  27  28
ATOM     28  C   UNL     1      35.174 -18.772 -21.155  0.00  0.00    +0.232 C 
BRANCH  28  29
ATOM     29  C   UNL     1      34.760 -18.162 -22.462  0.00  0.00    +0.021 C 
ATOM     30  C   UNL     1      34.962 -16.800 -22.690  0.00  0.00    -0.000 C 
ATOM     31  C   UNL     1      34.174 -18.955 -23.448  0.00  0.00    -0.000 C 
ATOM     32  C   UNL     1      34.577 -16.233 -23.904  0.00  0.00    +0.010 C 
ATOM     33  C   UNL     1      33.789 -18.388 -24.662  0.00  0.00    +0.010 C 
ATOM     34  C   UNL     1      33.990 -17.026 -24.890  0.00  0.00    +0.068 C 
BRANCH  34  36
ATOM     35  N   UNL     1      33.278 -15.972 -27.146  0.00  0.00    -0.191 NA
ATOM     36  C   UNL     1      33.597 -16.444 -26.135  0.00  0.00    +0.100 C 
ENDBRANCH  34  36
ENDBRANCH  28  29
ENDBRANCH  27  28
ENDBRANCH   9  27
TORSDOF 13
ENDMDL
MODEL 2
REMARK VINA RESULT:     -12.6      0.970      2.895
REMARK  Name = 24755471
REMARK  13 active torsions:
REMARK  status: ('A' for Active; 'I' for Inactive)
REMARK    1  A    between atoms: C_1  and  S_11
REMARK    2  A    between atoms: C_9  and  O_27
REMARK    3  A    between atoms: S_11  and  N_14
REMARK    4  A    between atoms: N_14  and  C_16
REMARK    5  A    between atoms: C_16  and  C_18
REMARK    6  A    between atoms: C_16  and  C_21
REMARK    7  A    between atoms: C_18  and  O_19
REMARK    8  A    between atoms: C_21  and  C_22
REMARK    9  A    between atoms: C_22  and  C_24
REMARK   10  A    between atoms: C_24  and  O_25
REMARK   11  A    between atoms: O_27  and  C_28
REMARK   12  A    between atoms: C_28  and  C_29
REMARK   13  A    between atoms: C_34  and  C_36
REMARK                            x       y       z     vdW  Elec       q    Type
REMARK                         _______ _______ _______ _____ _____    ______ ____
ROOT
ATOM      1  C   UNL     1      34.372 -23.503 -16.421  0.00  0.00    +0.122 C 
ATOM      2  C   UNL     1      35.128 -22.053 -18.223  0.00  0.00    +0.002 C 
ATOM      3  C   UNL     1      35.396 -22.815 -17.074  0.00  0.00    +0.020 C 
ATOM      4  C   UNL     1      33.803 -21.989 -18.718  0.00  0.00    +0.003 C 
ATOM      5  C   UNL     1      33.070 -23.439 -16.907  0.00  0.00    +0.020 C 
ATOM      6  C   UNL     1      32.785 -22.687 -18.048  0.00  0.00    +0.001 C 
ATOM      7  C   UNL     1      33.535 -21.227 -19.867  0.00  0.00    +0.037 C 
ATOM      8  C   UNL     1      36.146 -21.354 -18.893  0.00  0.00    +0.003 C 
ATOM      9  C   UNL     1      34.559 -20.539 -20.519  0.00  0.00    +0.139 C 
ATOM     10  C   UNL     1      35.862 -20.602 -20.034  0.00  0.00    +0.037 C 
ENDROOT
BRANCH   1  11
ATOM     11  S   UNL     1      34.731 -24.456 -14.976  0.00  0.00    +0.061 S 
ATOM     12  O   UNL     1      33.747 -24.121 -13.965  0.00  0.00    -0.153 OA
ATOM     13  O   UNL     1      34.897 -25.830 -15.407  0.00  0.00    -0.153 OA
BRANCH  11  14
ATOM     14  N   UNL     1      36.246 -23.836 -14.516  0.00  0.00    -0.170 NA
ATOM     15  H   UNL     1      36.065 -23.002 -13.959  0.00  0.00    +0.149 HD
BRANCH  14  16
ATOM     16  C   UNL     1      37.182 -24.677 -13.739  0.00  0.00    +0.174 C 
BRANCH  16  18
ATOM     17  O   UNL     1      39.427 -24.524 -14.663  0.00  0.00    -0.249 OA
ATOM     18  C   UNL     1      38.327 -25.063 -14.644  0.00  0.00    +0.330 C 
BRANCH  18  19
ATOM     19  O   UNL     1      38.014 -26.113 -15.447  0.00  0.00    -0.479 OA
ATOM     20  H   UNL     1      38.685 -26.548 -15.933  0.00  0.00    +0.295 HD
ENDBRANCH  18  19
ENDBRANCH  16  18
BRANCH  16  21
ATOM     21  C   UNL     1      37.602 -23.960 -12.450  0.00  0.00    +0.040 C 
BRANCH  21  22
ATOM     22  C   UNL     1      36.481 -23.298 -11.643  0.00  0.00    +0.111 C 
BRANCH  22  24
ATOM     23  O   UNL     1      35.646 -24.348  -9.634  0.00  0.00    -0.250 OA
ATOM     24  C   UNL     1      35.639 -24.271 -10.856  0.00  0.00    +0.314 C 
BRANCH  24  25
ATOM     25  O   UNL     1      34.880 -25.070 -11.648  0.00  0.00    -0.480 OA
ATOM     26  H   UNL     1      34.111 -25.478 -11.301  0.00  0.00    +0.295 HD
ENDBRANCH  24  25
ENDBRANCH  22  24
ENDBRANCH  21  22
ENDBRANCH  16  21
ENDBRANCH  14  16
ENDBRANCH  11  14
ENDBRANCH   1  11
BRANCH   9  27
ATOM     27  O   UNL     1      34.283 -19.807 -21.633  0.00  0.00    -0.471 OA
BRANCH  27  28
ATOM     28  C   UNL     1      34.912 -18.531 -21.743  0.00  0.00    +0.232 C 
BRANCH  28  29
ATOM     29  C   UNL     1      34.481 -17.881 -23.025  0.00  0.00    +0.021 C 
ATOM     30  C   UNL     1      34.646 -16.507 -23.200  0.00  0.00    -0.000 C 
ATOM     31  C   UNL     1      33.914 -18.651 -24.041  0.00  0.00    -0.000 C 
ATOM     32  C   UNL     1      34.246 -15.903 -24.391  0.00  0.00    +0.010 C 
ATOM     33  C   UNL     1      33.513 -18.047 -25.232  0.00  0.00    +0.010 C 
ATOM     34  C   UNL     1      33.678 -16.673 -25.407  0.00  0.00    +0.068 C 
BRANCH  34  36
ATOM     35  N   UNL     1      32.936 -15.550 -27.620  0.00  0.00    -0.191 NA
ATOM     36  C   UNL     1      33.268 -16.053 -26.629  0.00  0.00    +0.100 C 
ENDBRANCH  34  36
ENDBRANCH  28  29
ENDBRANCH  27  28
ENDBRANCH   9  27
TORSDOF 13
ENDMDL
MODEL 3
REMARK VINA RESULT:     -12.4      1.242      1.939
REMARK  Name = 24755471
REMARK  13 active torsions:
REMARK  status: ('A' for Active; 'I' for Inactive)
REMARK    1  A    between atoms: C_1  and  S_11
REMARK    2  A    between atoms: C_9  and  O_27
REMARK    3  A    between atoms: S_11  and  N_14
REMARK    4  A    between atoms: N_14  and  C_16
REMARK    5  A    between atoms: C_16  and  C_18
REMARK    6  A    between atoms: C_16  and  C_21
REMARK    7  A    between atoms: C_18  and  O_19
REMARK    8  A    between atoms: C_21  and  C_22
REMARK    9  A    between atoms: C_22  and  C_24
REMARK   10  A    between atoms: C_24  and  O_25
REMARK   11  A    between atoms: O_27  and  C_28
REMARK   12  A    between atoms: C_28  and  C_29
REMARK   13  A    between atoms: C_34  and  C_36
REMARK                            x       y       z     vdW  Elec       q    Type
REMARK                         _______ _______ _______ _____ _____    ______ ____
ROOT
ATOM      1  C   UNL     1      33.251 -23.572 -15.611  0.00  0.00    +0.122 C 
ATOM      2  C   UNL     1      34.661 -22.488 -17.272  0.00  0.00    +0.002 C 
ATOM      3  C   UNL     1      34.503 -23.114 -16.025  0.00  0.00    +0.020 C 
ATOM      4  C   UNL     1      33.535 -22.324 -18.112  0.00  0.00    +0.003 C 
ATOM      5  C   UNL     1      32.143 -23.410 -16.438  0.00  0.00    +0.020 C 
ATOM      6  C   UNL     1      32.282 -22.790 -17.680  0.00  0.00    +0.001 C 
ATOM      7  C   UNL     1      33.693 -21.698 -19.359  0.00  0.00    +0.037 C 
ATOM      8  C   UNL     1      35.914 -22.021 -17.704  0.00  0.00    +0.003 C 
ATOM      9  C   UNL     1      34.945 -21.241 -19.772  0.00  0.00    +0.139 C 
ATOM     10  C   UNL     1      36.053 -21.402 -18.946  0.00  0.00    +0.037 C 
ENDROOT
BRANCH   1  11
ATOM     11  S   UNL     1      33.073 -24.357 -14.038  0.00  0.00    +0.061 S 
ATOM     12  O   UNL     1      32.782 -23.330 -13.057  0.00  0.00    -0.153 OA
ATOM     13  O   UNL     1      32.163 -25.471 -14.222  0.00  0.00    -0.153 OA
BRANCH  11  14
ATOM     14  N   UNL     1      34.639 -24.964 -13.772  0.00  0.00    -0.170 NA
ATOM     15  H   UNL     1      35.120 -24.941 -14.670  0.00  0.00    +0.149 HD
BRANCH  14  16
ATOM     16  C   UNL     1      35.530 -24.304 -12.792  0.00  0.00    +0.174 C 
BRANCH  16  18
ATOM     17  O   UNL     1      36.556 -26.217 -11.695  0.00  0.00    -0.249 OA
ATOM     18  C   UNL     1      35.778 -25.271 -11.659  0.00  0.00    +0.330 C 
BRANCH  18  19
ATOM     19  O   UNL     1      35.045 -24.968 -10.557  0.00  0.00    -0.479 OA
ATOM     20  H   UNL     1      34.220 -25.387 -10.413  0.00  0.00    +0.295 HD
ENDBRANCH  18  19
ENDBRANCH  16  18
BRANCH  16  21
ATOM     21  C   UNL     1      36.799 -23.791 -13.483  0.00  0.00    +0.040 C 
BRANCH  21  22
ATOM     22  C   UNL     1      37.313 -24.620 -14.664  0.00  0.00    +0.111 C 
BRANCH  22  24
ATOM     23  O   UNL     1      39.702 -24.772 -14.985  0.00  0.00    -0.250 OA
ATOM     24  C   UNL     1      38.688 -25.200 -14.450  0.00  0.00    +0.314 C 
BRANCH  24  25
ATOM     25  O   UNL     1      38.684 -26.266 -13.609  0.00  0.00    -0.480 OA
ATOM     26  H   UNL     1      38.647 -26.130 -12.683  0.00  0.00    +0.295 HD
ENDBRANCH  24  25
ENDBRANCH  22  24
ENDBRANCH  21  22
ENDBRANCH  16  21
ENDBRANCH  14  16
ENDBRANCH  11  14
ENDBRANCH   1  11
BRANCH   9  27
ATOM     27  O   UNL     1      35.082 -20.638 -20.985  0.00  0.00    -0.471 OA
BRANCH  27  28
ATOM     28  C   UNL     1      35.537 -19.286 -20.990  0.00  0.00    +0.232 C 
BRANCH  28  29
ATOM     29  C   UNL     1      35.099 -18.626 -22.264  0.00  0.00    +0.021 C 
ATOM     30  C   UNL     1      35.148 -17.237 -22.381  0.00  0.00    -0.000 C 
ATOM     31  C   UNL     1      34.641 -19.401 -23.329  0.00  0.00    -0.000 C 
ATOM     32  C   UNL     1      34.739 -16.623 -23.565  0.00  0.00    +0.010 C 
ATOM     33  C   UNL     1      34.232 -18.787 -24.513  0.00  0.00    +0.010 C 
ATOM     34  C   UNL     1      34.281 -17.398 -24.631  0.00  0.00    +0.068 C 
BRANCH  34  36
ATOM     35  N   UNL     1      33.525 -16.256 -26.829  0.00  0.00    -0.191 NA
ATOM     36  C   UNL     1      33.863 -16.768 -25.844  0.00  0.00    +0.100 C 
ENDBRANCH  34  36
ENDBRANCH  28  29
ENDBRANCH  27  28
ENDBRANCH   9  27
TORSDOF 13
ENDMDL
MODEL 4
REMARK VINA RESULT:     -12.0      0.937      1.881
REMARK  Name = 24755471
REMARK  13 active torsions:
REMARK  status: ('A' for Active; 'I' for Inactive)
REMARK    1  A    between atoms: C_1  and  S_11
REMARK    2  A    between atoms: C_9  and  O_27
REMARK    3  A    between atoms: S_11  and  N_14
REMARK    4  A    between atoms: N_14  and  C_16
REMARK    5  A    between atoms: C_16  and  C_18
REMARK    6  A    between atoms: C_16  and  C_21
REMARK    7  A    between atoms: C_18  and  O_19
REMARK    8  A    between atoms: C_21  and  C_22
REMARK    9  A    between atoms: C_22  and  C_24
REMARK   10  A    between atoms: C_24  and  O_25
REMARK   11  A    between atoms: O_27  and  C_28
REMARK   12  A    between atoms: C_28  and  C_29
REMARK   13  A    between atoms: C_34  and  C_36
REMARK                            x       y       z     vdW  Elec       q    Type
REMARK                         _______ _______ _______ _____ _____    ______ ____
ROOT
ATOM      1  C   UNL     1      34.123 -23.433 -16.331  0.00  0.00    +0.122 C 
ATOM      2  C   UNL     1      34.906 -22.068 -18.187  0.00  0.00    +0.002 C 
ATOM      3  C   UNL     1      35.164 -22.814 -17.025  0.00  0.00    +0.020 C 
ATOM      4  C   UNL     1      33.575 -21.949 -18.653  0.00  0.00    +0.003 C 
ATOM      5  C   UNL     1      32.814 -23.315 -16.789  0.00  0.00    +0.020 C 
ATOM      6  C   UNL     1      32.540 -22.579 -17.942  0.00  0.00    +0.001 C 
ATOM      7  C   UNL     1      33.318 -21.203 -19.814  0.00  0.00    +0.037 C 
ATOM      8  C   UNL     1      35.942 -21.437 -18.897  0.00  0.00    +0.003 C 
ATOM      9  C   UNL     1      34.359 -20.584 -20.507  0.00  0.00    +0.139 C 
ATOM     10  C   UNL     1      35.668 -20.700 -20.050  0.00  0.00    +0.037 C 
ENDROOT
BRANCH   1  11
ATOM     11  S   UNL     1      34.469 -24.367 -14.871  0.00  0.00    +0.061 S 
ATOM     12  O   UNL     1      33.203 -24.723 -14.259  0.00  0.00    -0.153 OA
ATOM     13  O   UNL     1      35.415 -25.400 -15.245  0.00  0.00    -0.153 OA
BRANCH  11  14
ATOM     14  N   UNL     1      35.262 -23.218 -13.901  0.00  0.00    -0.170 NA
ATOM     15  H   UNL     1      34.600 -22.936 -13.179  0.00  0.00    +0.149 HD
BRANCH  14  16
ATOM     16  C   UNL     1      36.520 -23.578 -13.211  0.00  0.00    +0.174 C 
BRANCH  16  18
ATOM     17  O   UNL     1      36.522 -24.092 -10.834  0.00  0.00    -0.249 OA
ATOM     18  C   UNL     1      36.166 -24.367 -11.974  0.00  0.00    +0.330 C 
BRANCH  18  19
ATOM     19  O   UNL     1      35.375 -25.434 -12.256  0.00  0.00    -0.479 OA
ATOM     20  H   UNL     1      35.091 -25.587 -13.135  0.00  0.00    +0.295 HD
ENDBRANCH  18  19
ENDBRANCH  16  18
BRANCH  16  21
ATOM     21  C   UNL     1      37.473 -24.295 -14.175  0.00  0.00    +0.040 C 
BRANCH  21  22
ATOM     22  C   UNL     1      38.699 -24.965 -13.548  0.00  0.00    +0.111 C 
BRANCH  22  24
ATOM     23  O   UNL     1      38.655 -27.016 -14.824  0.00  0.00    -0.250 OA
ATOM     24  C   UNL     1      39.293 -26.064 -14.393  0.00  0.00    +0.314 C 
BRANCH  24  25
ATOM     25  O   UNL     1      40.621 -25.896 -14.616  0.00  0.00    -0.480 OA
ATOM     26  H   UNL     1      41.003 -25.043 -14.543  0.00  0.00    +0.295 HD
ENDBRANCH  24  25
ENDBRANCH  22  24
ENDBRANCH  21  22
ENDBRANCH  16  21
ENDBRANCH  14  16
ENDBRANCH  11  14
ENDBRANCH   1  11
BRANCH   9  27
ATOM     27  O   UNL     1      34.093 -19.866 -21.633  0.00  0.00    -0.471 OA
BRANCH  27  28
ATOM     28  C   UNL     1      35.158 -19.085 -22.172  0.00  0.00    +0.232 C 
BRANCH  28  29
ATOM     29  C   UNL     1      34.654 -18.322 -23.361  0.00  0.00    +0.021 C 
ATOM     30  C   UNL     1      34.205 -19.009 -24.489  0.00  0.00    -0.000 C 
ATOM     31  C   UNL     1      34.637 -16.928 -23.340  0.00  0.00    -0.000 C 
ATOM     32  C   UNL     1      33.737 -18.300 -25.595  0.00  0.00    +0.010 C 
ATOM     33  C   UNL     1      34.169 -16.219 -24.446  0.00  0.00    +0.010 C 
ATOM     34  C   UNL     1      33.720 -16.906 -25.574  0.00  0.00    +0.068 C 
BRANCH  34  36
ATOM     35  N   UNL     1      32.849 -15.590 -27.629  0.00  0.00    -0.191 NA
ATOM     36  C   UNL     1      33.239 -16.180 -26.708  0.00  0.00    +0.100 C 
ENDBRANCH  34  36
ENDBRANCH  28  29
ENDBRANCH  27  28
ENDBRANCH   9  27
TORSDOF 13
ENDMDL
MODEL 5
REMARK VINA RESULT:     -11.8      4.013      6.096
REMARK  Name = 24755471
REMARK  13 active torsions:
REMARK  status: ('A' for Active; 'I' for Inactive)
REMARK    1  A    between atoms: C_1  and  S_11
REMARK    2  A    between atoms: C_9  and  O_27
REMARK    3  A    between atoms: S_11  and  N_14
REMARK    4  A    between atoms: N_14  and  C_16
REMARK    5  A    between atoms: C_16  and  C_18
REMARK    6  A    between atoms: C_16  and  C_21
REMARK    7  A    between atoms: C_18  and  O_19
REMARK    8  A    between atoms: C_21  and  C_22
REMARK    9  A    between atoms: C_22  and  C_24
REMARK   10  A    between atoms: C_24  and  O_25
REMARK   11  A    between atoms: O_27  and  C_28
REMARK   12  A    between atoms: C_28  and  C_29
REMARK   13  A    between atoms: C_34  and  C_36
REMARK                            x       y       z     vdW  Elec       q    Type
REMARK                         _______ _______ _______ _____ _____    ______ ____
ROOT
ATOM      1  C   UNL     1      33.583 -22.105 -18.789  0.00  0.00    +0.122 C 
ATOM      2  C   UNL     1      35.082 -20.662 -20.051  0.00  0.00    +0.002 C 
ATOM      3  C   UNL     1      34.875 -21.701 -19.130  0.00  0.00    +0.020 C 
ATOM      4  C   UNL     1      33.963 -20.023 -20.637  0.00  0.00    +0.003 C 
ATOM      5  C   UNL     1      32.483 -21.476 -19.365  0.00  0.00    +0.020 C 
ATOM      6  C   UNL     1      32.670 -20.442 -20.283  0.00  0.00    +0.001 C 
ATOM      7  C   UNL     1      34.170 -18.984 -21.559  0.00  0.00    +0.037 C 
ATOM      8  C   UNL     1      36.375 -20.242 -20.405  0.00  0.00    +0.003 C 
ATOM      9  C   UNL     1      35.461 -18.580 -21.898  0.00  0.00    +0.139 C 
ATOM     10  C   UNL     1      36.562 -19.208 -21.323  0.00  0.00    +0.037 C 
ENDROOT
BRANCH   1  11
ATOM     11  S   UNL     1      33.345 -23.415 -17.627  0.00  0.00    +0.061 S 
ATOM     12  O   UNL     1      33.096 -24.633 -18.372  0.00  0.00    -0.153 OA
ATOM     13  O   UNL     1      34.445 -23.347 -16.684  0.00  0.00    -0.153 OA
BRANCH  11  14
ATOM     14  N   UNL     1      31.916 -22.931 -16.843  0.00  0.00    -0.170 NA
ATOM     15  H   UNL     1      31.229 -22.746 -17.572  0.00  0.00    +0.149 HD
BRANCH  14  16
ATOM     16  C   UNL     1      31.271 -23.832 -15.863  0.00  0.00    +0.174 C 
BRANCH  16  18
ATOM     17  O   UNL     1      30.779 -23.346 -13.531  0.00  0.00    -0.249 OA
ATOM     18  C   UNL     1      31.553 -23.297 -14.479  0.00  0.00    +0.330 C 
BRANCH  18  19
ATOM     19  O   UNL     1      32.796 -22.758 -14.382  0.00  0.00    -0.479 OA
ATOM     20  H   UNL     1      33.401 -23.087 -13.748  0.00  0.00    +0.295 HD
ENDBRANCH  18  19
ENDBRANCH  16  18
BRANCH  16  21
ATOM     21  C   UNL     1      29.783 -24.000 -16.191  0.00  0.00    +0.040 C 
BRANCH  21  22
ATOM     22  C   UNL     1      28.995 -22.715 -16.460  0.00  0.00    +0.111 C 
BRANCH  22  24
ATOM     23  O   UNL     1      27.300 -24.030 -17.571  0.00  0.00    -0.250 OA
ATOM     24  C   UNL     1      27.674 -22.942 -17.152  0.00  0.00    +0.314 C 
BRANCH  24  25
ATOM     25  O   UNL     1      26.945 -21.804 -17.279  0.00  0.00    -0.480 OA
ATOM     26  H   UNL     1      26.024 -21.855 -17.440  0.00  0.00    +0.295 HD
ENDBRANCH  24  25
ENDBRANCH  22  24
ENDBRANCH  21  22
ENDBRANCH  16  21
ENDBRANCH  14  16
ENDBRANCH  11  14
ENDBRANCH   1  11
BRANCH   9  27
ATOM     27  O   UNL     1      35.645 -17.573 -22.795  0.00  0.00    -0.471 OA
BRANCH  27  28
ATOM     28  C   UNL     1      34.632 -17.390 -23.783  0.00  0.00    +0.232 C 
BRANCH  28  29
ATOM     29  C   UNL     1      34.218 -15.949 -23.800  0.00  0.00    +0.021 C 
ATOM     30  C   UNL     1      33.556 -15.427 -24.912  0.00  0.00    -0.000 C 
ATOM     31  C   UNL     1      34.495 -15.130 -22.706  0.00  0.00    -0.000 C 
ATOM     32  C   UNL     1      33.172 -14.087 -24.928  0.00  0.00    +0.010 C 
ATOM     33  C   UNL     1      34.110 -13.790 -22.722  0.00  0.00    +0.010 C 
ATOM     34  C   UNL     1      33.449 -13.268 -23.834  0.00  0.00    +0.068 C 
BRANCH  34  36
ATOM     35  N   UNL     1      32.732 -10.779 -23.863  0.00  0.00    -0.191 NA
ATOM     36  C   UNL     1      33.053 -11.894 -23.850  0.00  0.00    +0.100 C 
ENDBRANCH  34  36
ENDBRANCH  28  29
ENDBRANCH  27  28
ENDBRANCH   9  27
TORSDOF 13
ENDMDL
MODEL 6
REMARK VINA RESULT:     -11.6      3.773     12.155
REMARK  Name = 24755471
REMARK  13 active torsions:
REMARK  status: ('A' for Active; 'I' for Inactive)
REMARK    1  A    between atoms: C_1  and  S_11
REMARK    2  A    between atoms: C_9  and  O_27
REMARK    3  A    between atoms: S_11  and  N_14
REMARK    4  A    between atoms: N_14  and  C_16
REMARK    5  A    between atoms: C_16  and  C_18
REMARK    6  A    between atoms: C_16  and  C_21
REMARK    7  A    between atoms: C_18  and  O_19
REMARK    8  A    between atoms: C_21  and  C_22
REMARK    9  A    between atoms: C_22  and  C_24
REMARK   10  A    between atoms: C_24  and  O_25
REMARK   11  A    between atoms: O_27  and  C_28
REMARK   12  A    between atoms: C_28  and  C_29
REMARK   13  A    between atoms: C_34  and  C_36
REMARK                            x       y       z     vdW  Elec       q    Type
REMARK                         _______ _______ _______ _____ _____    ______ ____
ROOT
ATOM      1  C   UNL     1      34.133 -19.335 -21.719  0.00  0.00    +0.122 C 
ATOM      2  C   UNL     1      34.736 -20.847 -19.911  0.00  0.00    +0.002 C 
ATOM      3  C   UNL     1      35.102 -19.932 -20.911  0.00  0.00    +0.020 C 
ATOM      4  C   UNL     1      33.368 -21.160 -19.726  0.00  0.00    +0.003 C 
ATOM      5  C   UNL     1      32.789 -19.644 -21.538  0.00  0.00    +0.020 C 
ATOM      6  C   UNL     1      32.407 -20.550 -20.548  0.00  0.00    +0.001 C 
ATOM      7  C   UNL     1      33.002 -22.075 -18.725  0.00  0.00    +0.037 C 
ATOM      8  C   UNL     1      35.698 -21.458 -19.089  0.00  0.00    +0.003 C 
ATOM      9  C   UNL     1      33.971 -22.672 -17.918  0.00  0.00    +0.139 C 
ATOM     10  C   UNL     1      35.316 -22.365 -18.100  0.00  0.00    +0.037 C 
ENDROOT
BRANCH   1  11
ATOM     11  S   UNL     1      34.615 -18.186 -22.973  0.00  0.00    +0.061 S 
ATOM     12  O   UNL     1      34.690 -16.870 -22.369  0.00  0.00    -0.153 OA
ATOM     13  O   UNL     1      35.773 -18.750 -23.640  0.00  0.00    -0.153 OA
BRANCH  11  14
ATOM     14  N   UNL     1      33.286 -18.247 -24.032  0.00  0.00    -0.170 NA
ATOM     15  H   UNL     1      32.652 -17.501 -23.750  0.00  0.00    +0.149 HD
BRANCH  14  16
ATOM     16  C   UNL     1      33.497 -18.102 -25.489  0.00  0.00    +0.174 C 
BRANCH  16  18
ATOM     17  O   UNL     1      31.954 -18.126 -27.369  0.00  0.00    -0.249 OA
ATOM     18  C   UNL     1      32.167 -18.305 -26.176  0.00  0.00    +0.330 C 
BRANCH  18  19
ATOM     19  O   UNL     1      31.208 -18.737 -25.318  0.00  0.00    -0.479 OA
ATOM     20  H   UNL     1      30.820 -19.581 -25.436  0.00  0.00    +0.295 HD
ENDBRANCH  18  19
ENDBRANCH  16  18
BRANCH  16  21
ATOM     21  C   UNL     1      34.179 -16.765 -25.801  0.00  0.00    +0.040 C 
BRANCH  21  22
ATOM     22  C   UNL     1      33.360 -15.501 -25.523  0.00  0.00    +0.111 C 
BRANCH  22  24
ATOM     23  O   UNL     1      32.698 -13.526 -26.745  0.00  0.00    -0.250 OA
ATOM     24  C   UNL     1      33.029 -14.704 -26.760  0.00  0.00    +0.314 C 
BRANCH  24  25
ATOM     25  O   UNL     1      33.120 -15.438 -27.898  0.00  0.00    -0.480 OA
ATOM     26  H   UNL     1      32.469 -15.348 -28.565  0.00  0.00    +0.295 HD
ENDBRANCH  24  25
ENDBRANCH  22  24
ENDBRANCH  21  22
ENDBRANCH  16  21
ENDBRANCH  14  16
ENDBRANCH  11  14
ENDBRANCH   1  11
BRANCH   9  27
ATOM     27  O   UNL     1      33.600 -23.555 -16.951  0.00  0.00    -0.471 OA
BRANCH  27  28
ATOM     28  C   UNL     1      34.028 -23.278 -15.619  0.00  0.00    +0.232 C 
BRANCH  28  29
ATOM     29  C   UNL     1      35.305 -24.018 -15.350  0.00  0.00    +0.021 C 
ATOM     30  C   UNL     1      35.293 -25.408 -15.230  0.00  0.00    -0.000 C 
ATOM     31  C   UNL     1      36.504 -23.317 -15.217  0.00  0.00    -0.000 C 
ATOM     32  C   UNL     1      36.480 -26.096 -14.980  0.00  0.00    +0.010 C 
ATOM     33  C   UNL     1      37.690 -24.004 -14.967  0.00  0.00    +0.010 C 
ATOM     34  C   UNL     1      37.678 -25.394 -14.847  0.00  0.00    +0.068 C 
BRANCH  34  36
ATOM     35  N   UNL     1      39.883 -26.673 -14.382  0.00  0.00    -0.191 NA
ATOM     36  C   UNL     1      38.895 -26.100 -14.591  0.00  0.00    +0.100 C 
ENDBRANCH  34  36
ENDBRANCH  28  29
ENDBRANCH  27  28
ENDBRANCH   9  27
TORSDOF 13
ENDMDL
MODEL 7
REMARK VINA RESULT:     -11.4      4.186     12.642
REMARK  Name = 24755471
REMARK  13 active torsions:
REMARK  status: ('A' for Active; 'I' for Inactive)
REMARK    1  A    between atoms: C_1  and  S_11
REMARK    2  A    between atoms: C_9  and  O_27
REMARK    3  A    between atoms: S_11  and  N_14
REMARK    4  A    between atoms: N_14  and  C_16
REMARK    5  A    between atoms: C_16  and  C_18
REMARK    6  A    between atoms: C_16  and  C_21
REMARK    7  A    between atoms: C_18  and  O_19
REMARK    8  A    between atoms: C_21  and  C_22
REMARK    9  A    between atoms: C_22  and  C_24
REMARK   10  A    between atoms: C_24  and  O_25
REMARK   11  A    between atoms: O_27  and  C_28
REMARK   12  A    between atoms: C_28  and  C_29
REMARK   13  A    between atoms: C_34  and  C_36
REMARK                            x       y       z     vdW  Elec       q    Type
REMARK                         _______ _______ _______ _____ _____    ______ ____
ROOT
ATOM      1  C   UNL     1      34.773 -18.157 -22.257  0.00  0.00    +0.122 C 
ATOM      2  C   UNL     1      33.806 -19.878 -20.834  0.00  0.00    +0.002 C 
ATOM      3  C   UNL     1      33.658 -18.837 -21.764  0.00  0.00    +0.020 C 
ATOM      4  C   UNL     1      35.104 -20.237 -20.397  0.00  0.00    +0.003 C 
ATOM      5  C   UNL     1      36.048 -18.510 -21.828  0.00  0.00    +0.020 C 
ATOM      6  C   UNL     1      36.215 -19.542 -20.904  0.00  0.00    +0.001 C 
ATOM      7  C   UNL     1      35.252 -21.278 -19.467  0.00  0.00    +0.037 C 
ATOM      8  C   UNL     1      32.695 -20.572 -20.326  0.00  0.00    +0.003 C 
ATOM      9  C   UNL     1      34.137 -21.957 -18.974  0.00  0.00    +0.139 C 
ATOM     10  C   UNL     1      32.861 -21.604 -19.403  0.00  0.00    +0.037 C 
ENDROOT
BRANCH   1  11
ATOM     11  S   UNL     1      34.563 -16.849 -23.428  0.00  0.00    +0.061 S 
ATOM     12  O   UNL     1      34.216 -15.647 -22.696  0.00  0.00    -0.153 OA
ATOM     13  O   UNL     1      35.727 -16.867 -24.293  0.00  0.00    -0.153 OA
BRANCH  11  14
ATOM     14  N   UNL     1      33.212 -17.383 -24.310  0.00  0.00    -0.170 NA
ATOM     15  H   UNL     1      32.387 -17.017 -23.836  0.00  0.00    +0.149 HD
BRANCH  14  16
ATOM     16  C   UNL     1      33.077 -17.028 -25.740  0.00  0.00    +0.174 C 
BRANCH  16  18
ATOM     17  O   UNL     1      31.961 -18.751 -27.045  0.00  0.00    -0.249 OA
ATOM     18  C   UNL     1      31.894 -17.781 -26.299  0.00  0.00    +0.330 C 
BRANCH  18  19
ATOM     19  O   UNL     1      30.712 -17.273 -25.865  0.00  0.00    -0.479 OA
ATOM     20  H   UNL     1      30.515 -17.262 -24.950  0.00  0.00    +0.295 HD
ENDBRANCH  18  19
ENDBRANCH  16  18
BRANCH  16  21
ATOM     21  C   UNL     1      33.002 -15.506 -25.908  0.00  0.00    +0.040 C 
BRANCH  21  22
ATOM     22  C   UNL     1      33.021 -14.978 -27.345  0.00  0.00    +0.111 C 
BRANCH  22  24
ATOM     23  O   UNL     1      30.652 -14.866 -27.806  0.00  0.00    -0.250 OA
ATOM     24  C   UNL     1      31.739 -14.304 -27.765  0.00  0.00    +0.314 C 
BRANCH  24  25
ATOM     25  O   UNL     1      31.918 -13.004 -28.111  0.00  0.00    -0.480 OA
ATOM     26  H   UNL     1      32.698 -12.742 -28.557  0.00  0.00    +0.295 HD
ENDBRANCH  24  25
ENDBRANCH  22  24
ENDBRANCH  21  22
ENDBRANCH  16  21
ENDBRANCH  14  16
ENDBRANCH  11  14
ENDBRANCH   1  11
BRANCH   9  27
ATOM     27  O   UNL     1      34.298 -22.965 -18.074  0.00  0.00    -0.471 OA
BRANCH  27  28
ATOM     28  C   UNL     1      33.176 -23.290 -17.255  0.00  0.00    +0.232 C 
BRANCH  28  29
ATOM     29  C   UNL     1      33.658 -23.625 -15.874  0.00  0.00    +0.021 C 
ATOM     30  C   UNL     1      35.017 -23.546 -15.572  0.00  0.00    -0.000 C 
ATOM     31  C   UNL     1      32.747 -24.017 -14.894  0.00  0.00    -0.000 C 
ATOM     32  C   UNL     1      35.465 -23.857 -14.289  0.00  0.00    +0.010 C 
ATOM     33  C   UNL     1      33.195 -24.328 -13.611  0.00  0.00    +0.010 C 
ATOM     34  C   UNL     1      34.554 -24.249 -13.308  0.00  0.00    +0.068 C 
BRANCH  34  36
ATOM     35  N   UNL     1      35.386 -24.827 -10.924  0.00  0.00    -0.191 NA
ATOM     36  C   UNL     1      35.014 -24.568 -11.993  0.00  0.00    +0.100 C 
ENDBRANCH  34  36
ENDBRANCH  28  29
ENDBRANCH  27  28
ENDBRANCH   9  27
TORSDOF 13
ENDMDL
MODEL 8
REMARK VINA RESULT:     -11.4      2.423      3.850
REMARK  Name = 24755471
REMARK  13 active torsions:
REMARK  status: ('A' for Active; 'I' for Inactive)
REMARK    1  A    between atoms: C_1  and  S_11
REMARK    2  A    between atoms: C_9  and  O_27
REMARK    3  A    between atoms: S_11  and  N_14
REMARK    4  A    between atoms: N_14  and  C_16
REMARK    5  A    between atoms: C_16  and  C_18
REMARK    6  A    between atoms: C_16  and  C_21
REMARK    7  A    between atoms: C_18  and  O_19
REMARK    8  A    between atoms: C_21  and  C_22
REMARK    9  A    between atoms: C_22  and  C_24
REMARK   10  A    between atoms: C_24  and  O_25
REMARK   11  A    between atoms: O_27  and  C_28
REMARK   12  A    between atoms: C_28  and  C_29
REMARK   13  A    between atoms: C_34  and  C_36
REMARK                            x       y       z     vdW  Elec       q    Type
REMARK                         _______ _______ _______ _____ _____    ______ ____
ROOT
ATOM      1  C   UNL     1      33.657 -21.987 -18.786  0.00  0.00    +0.122 C 
ATOM      2  C   UNL     1      35.135 -20.560 -20.090  0.00  0.00    +0.002 C 
ATOM      3  C   UNL     1      34.942 -21.552 -19.115  0.00  0.00    +0.020 C 
ATOM      4  C   UNL     1      34.010 -20.001 -20.742  0.00  0.00    +0.003 C 
ATOM      5  C   UNL     1      32.551 -21.436 -19.426  0.00  0.00    +0.020 C 
ATOM      6  C   UNL     1      32.724 -20.450 -20.398  0.00  0.00    +0.001 C 
ATOM      7  C   UNL     1      34.203 -19.010 -21.717  0.00  0.00    +0.037 C 
ATOM      8  C   UNL     1      36.421 -20.111 -20.434  0.00  0.00    +0.003 C 
ATOM      9  C   UNL     1      35.488 -18.575 -22.046  0.00  0.00    +0.139 C 
ATOM     10  C   UNL     1      36.594 -19.125 -21.405  0.00  0.00    +0.037 C 
ENDROOT
BRANCH   1  11
ATOM     11  S   UNL     1      33.436 -23.236 -17.555  0.00  0.00    +0.061 S 
ATOM     12  O   UNL     1      32.445 -22.761 -16.609  0.00  0.00    -0.153 OA
ATOM     13  O   UNL     1      33.234 -24.489 -18.257  0.00  0.00    -0.153 OA
BRANCH  11  14
ATOM     14  N   UNL     1      34.963 -23.264 -16.807  0.00  0.00    -0.170 NA
ATOM     15  H   UNL     1      35.393 -22.356 -16.983  0.00  0.00    +0.149 HD
BRANCH  14  16
ATOM     16  C   UNL     1      35.068 -23.514 -15.353  0.00  0.00    +0.174 C 
BRANCH  16  18
ATOM     17  O   UNL     1      35.188 -25.925 -15.648  0.00  0.00    -0.249 OA
ATOM     18  C   UNL     1      34.687 -24.953 -15.097  0.00  0.00    +0.330 C 
BRANCH  18  19
ATOM     19  O   UNL     1      33.719 -25.065 -14.152  0.00  0.00    -0.479 OA
ATOM     20  H   UNL     1      33.758 -25.756 -13.521  0.00  0.00    +0.295 HD
ENDBRANCH  18  19
ENDBRANCH  16  18
BRANCH  16  21
ATOM     21  C   UNL     1      36.459 -23.121 -14.842  0.00  0.00    +0.040 C 
BRANCH  21  22
ATOM     22  C   UNL     1      37.092 -24.053 -13.804  0.00  0.00    +0.111 C 
BRANCH  22  24
ATOM     23  O   UNL     1      39.207 -24.487 -14.888  0.00  0.00    -0.250 OA
ATOM     24  C   UNL     1      38.194 -24.922 -14.356  0.00  0.00    +0.314 C 
BRANCH  24  25
ATOM     25  O   UNL     1      37.937 -26.248 -14.218  0.00  0.00    -0.480 OA
ATOM     26  H   UNL     1      37.762 -26.604 -13.369  0.00  0.00    +0.295 HD
ENDBRANCH  24  25
ENDBRANCH  22  24
ENDBRANCH  21  22
ENDBRANCH  16  21
ENDBRANCH  14  16
ENDBRANCH  11  14
ENDBRANCH   1  11
BRANCH   9  27
ATOM     27  O   UNL     1      35.658 -17.615 -22.995  0.00  0.00    -0.471 OA
BRANCH  27  28
ATOM     28  C   UNL     1      34.588 -17.415 -23.917  0.00  0.00    +0.232 C 
BRANCH  28  29
ATOM     29  C   UNL     1      34.186 -15.970 -23.896  0.00  0.00    +0.021 C 
ATOM     30  C   UNL     1      33.505 -15.421 -24.983  0.00  0.00    -0.000 C 
ATOM     31  C   UNL     1      34.494 -15.175 -22.792  0.00  0.00    -0.000 C 
ATOM     32  C   UNL     1      33.132 -14.078 -24.965  0.00  0.00    +0.010 C 
ATOM     33  C   UNL     1      34.121 -13.832 -22.774  0.00  0.00    +0.010 C 
ATOM     34  C   UNL     1      33.440 -13.283 -23.860  0.00  0.00    +0.068 C 
BRANCH  34  36
ATOM     35  N   UNL     1      32.746 -10.788 -23.826  0.00  0.00    -0.191 NA
ATOM     36  C   UNL     1      33.057 -11.906 -23.842  0.00  0.00    +0.100 C 
ENDBRANCH  34  36
ENDBRANCH  28  29
ENDBRANCH  27  28
ENDBRANCH   9  27
TORSDOF 13
ENDMDL
MODEL 9
REMARK VINA RESULT:     -11.3      2.885      4.983
REMARK  Name = 24755471
REMARK  13 active torsions:
REMARK  status: ('A' for Active; 'I' for Inactive)
REMARK    1  A    between atoms: C_1  and  S_11
REMARK    2  A    between atoms: C_9  and  O_27
REMARK    3  A    between atoms: S_11  and  N_14
REMARK    4  A    between atoms: N_14  and  C_16
REMARK    5  A    between atoms: C_16  and  C_18
REMARK    6  A    between atoms: C_16  and  C_21
REMARK    7  A    between atoms: C_18  and  O_19
REMARK    8  A    between atoms: C_21  and  C_22
REMARK    9  A    between atoms: C_22  and  C_24
REMARK   10  A    between atoms: C_24  and  O_25
REMARK   11  A    between atoms: O_27  and  C_28
REMARK   12  A    between atoms: C_28  and  C_29
REMARK   13  A    between atoms: C_34  and  C_36
REMARK                            x       y       z     vdW  Elec       q    Type
REMARK                         _______ _______ _______ _____ _____    ______ ____
ROOT
ATOM      1  C   UNL     1      33.363 -21.910 -19.018  0.00  0.00    +0.122 C 
ATOM      2  C   UNL     1      34.957 -20.520 -20.221  0.00  0.00    +0.002 C 
ATOM      3  C   UNL     1      34.680 -21.546 -19.304  0.00  0.00    +0.020 C 
ATOM      4  C   UNL     1      33.884 -19.853 -20.860  0.00  0.00    +0.003 C 
ATOM      5  C   UNL     1      32.308 -21.254 -19.646  0.00  0.00    +0.020 C 
ATOM      6  C   UNL     1      32.565 -20.233 -20.561  0.00  0.00    +0.001 C 
ATOM      7  C   UNL     1      34.161 -18.827 -21.777  0.00  0.00    +0.037 C 
ATOM      8  C   UNL     1      36.277 -20.140 -20.520  0.00  0.00    +0.003 C 
ATOM      9  C   UNL     1      35.478 -18.464 -22.062  0.00  0.00    +0.139 C 
ATOM     10  C   UNL     1      36.533 -19.118 -21.434  0.00  0.00    +0.037 C 
ENDROOT
BRANCH   1  11
ATOM     11  S   UNL     1      33.036 -23.205 -17.860  0.00  0.00    +0.061 S 
ATOM     12  O   UNL     1      31.765 -22.922 -17.222  0.00  0.00    -0.153 OA
ATOM     13  O   UNL     1      33.240 -24.458 -18.559  0.00  0.00    -0.153 OA
BRANCH  11  14
ATOM     14  N   UNL     1      34.293 -22.992 -16.734  0.00  0.00    -0.170 NA
ATOM     15  H   UNL     1      34.229 -22.030 -16.401  0.00  0.00    +0.149 HD
BRANCH  14  16
ATOM     16  C   UNL     1      34.365 -23.857 -15.537  0.00  0.00    +0.174 C 
BRANCH  16  18
ATOM     17  O   UNL     1      36.061 -23.192 -13.925  0.00  0.00    -0.249 OA
ATOM     18  C   UNL     1      35.762 -23.755 -14.970  0.00  0.00    +0.330 C 
BRANCH  18  19
ATOM     19  O   UNL     1      36.677 -24.388 -15.749  0.00  0.00    -0.479 OA
ATOM     20  H   UNL     1      37.491 -24.670 -15.380  0.00  0.00    +0.295 HD
ENDBRANCH  18  19
ENDBRANCH  16  18
BRANCH  16  21
ATOM     21  C   UNL     1      33.248 -23.499 -14.549  0.00  0.00    +0.040 C 
BRANCH  21  22
ATOM     22  C   UNL     1      32.260 -24.616 -14.204  0.00  0.00    +0.111 C 
BRANCH  22  24
ATOM     23  O   UNL     1      30.367 -23.117 -14.201  0.00  0.00    -0.250 OA
ATOM     24  C   UNL     1      30.909 -24.119 -13.755  0.00  0.00    +0.314 C 
BRANCH  24  25
ATOM     25  O   UNL     1      30.360 -24.895 -12.786  0.00  0.00    -0.480 OA
ATOM     26  H   UNL     1      29.445 -25.096 -12.810  0.00  0.00    +0.295 HD
ENDBRANCH  24  25
ENDBRANCH  22  24
ENDBRANCH  21  22
ENDBRANCH  16  21
ENDBRANCH  14  16
ENDBRANCH  11  14
ENDBRANCH   1  11
BRANCH   9  27
ATOM     27  O   UNL     1      35.730 -17.468 -22.955  0.00  0.00    -0.471 OA
BRANCH  27  28
ATOM     28  C   UNL     1      34.749 -17.238 -23.965  0.00  0.00    +0.232 C 
BRANCH  28  29
ATOM     29  C   UNL     1      34.263 -15.822 -23.864  0.00  0.00    +0.021 C 
ATOM     30  C   UNL     1      34.516 -15.080 -22.710  0.00  0.00    -0.000 C 
ATOM     31  C   UNL     1      33.558 -15.248 -24.922  0.00  0.00    -0.000 C 
ATOM     32  C   UNL     1      34.064 -13.764 -22.615  0.00  0.00    +0.010 C 
ATOM     33  C   UNL     1      33.107 -13.933 -24.827  0.00  0.00    +0.010 C 
ATOM     34  C   UNL     1      33.359 -13.190 -23.673  0.00  0.00    +0.068 C 
BRANCH  34  36
ATOM     35  N   UNL     1      32.522 -10.746 -23.497  0.00  0.00    -0.191 NA
ATOM     36  C   UNL     1      32.897 -11.841 -23.576  0.00  0.00    +0.100 C 
ENDBRANCH  34  36
ENDBRANCH  28  29
ENDBRANCH  27  28
ENDBRANCH   9  27
TORSDOF 13
ENDMDL
