MODEL 1
REMARK VINA RESULT:     -11.8      0.000      0.000
REMARK  Name = 445481
REMARK  5 active torsions:
REMARK  status: ('A' for Active; 'I' for Inactive)
REMARK    1  A    between atoms: N_2  and  C_21
REMARK    2  A    between atoms: C_3  and  N_7
REMARK    3  A    between atoms: N_7  and  S_9
REMARK    4  A    between atoms: S_9  and  C_14
REMARK    5  A    between atoms: C_21  and  C_24
REMARK                            x       y       z     vdW  Elec       q    Type
REMARK                         _______ _______ _______ _____ _____    ______ ____
ROOT
ATOM      1  O   UNL     1      35.166 -15.906 -23.335  0.00  0.00    -0.273 OA
ATOM      2  N   UNL     1      35.142 -18.255 -23.197  0.00  0.00    -0.273 N 
ATOM      3  C   UNL     1      33.857 -17.263 -24.869  0.00  0.00    +0.153 C 
ATOM      4  C   UNL     1      34.094 -18.730 -25.211  0.00  0.00    +0.048 C 
ATOM      5  C   UNL     1      34.488 -19.345 -23.882  0.00  0.00    +0.096 C 
ATOM      6  C   UNL     1      34.805 -17.008 -23.724  0.00  0.00    +0.242 C 
ENDROOT
BRANCH   3   7
ATOM      7  N   UNL     1      34.210 -16.394 -25.998  0.00  0.00    -0.171 NA
ATOM      8  H   UNL     1      34.897 -15.720 -25.658  0.00  0.00    +0.149 HD
BRANCH   7   9
ATOM      9  S   UNL     1      32.956 -15.504 -26.755  0.00  0.00    +0.066 S 
ATOM     10  O   UNL     1      31.676 -16.082 -26.395  0.00  0.00    -0.152 OA
ATOM     11  O   UNL     1      33.312 -15.267 -28.141  0.00  0.00    -0.152 OA
BRANCH   9  14
ATOM     12  S   UNL     1      32.935 -12.616 -27.175  0.00  0.00    -0.066 S 
ATOM     13  N   UNL     1      32.997 -11.289 -23.519  0.00  0.00    -0.243 NA
ATOM     14  C   UNL     1      32.961 -13.865 -26.031  0.00  0.00    +0.153 C 
ATOM     15  C   UNL     1      32.983 -13.442 -24.747  0.00  0.00    +0.046 C 
ATOM     16  C   UNL     1      32.978 -12.016 -24.669  0.00  0.00    +0.089 C 
ATOM     17  C   UNL     1      32.953 -11.427 -25.934  0.00  0.00    +0.048 C 
ATOM     18  C   UNL     1      32.944 -10.030 -26.057  0.00  0.00    +0.010 C 
ATOM     19  C   UNL     1      32.962  -9.282 -24.887  0.00  0.00    +0.021 C 
ATOM     20  C   UNL     1      32.988  -9.949 -23.676  0.00  0.00    +0.099 C 
ENDBRANCH   9  14
ENDBRANCH   7   9
ENDBRANCH   3   7
BRANCH   2  21
ATOM     21  C   UNL     1      35.948 -18.476 -22.016  0.00  0.00    +0.135 C 
BRANCH  21  24
ATOM     22  N   UNL     1      36.039 -20.212 -20.247  0.00  0.00    -0.313 N 
ATOM     23  N   UNL     1      34.488 -22.692 -17.997  0.00  0.00    -0.241 NA
ATOM     24  C   UNL     1      35.292 -19.480 -21.110  0.00  0.00    +0.046 C 
ATOM     25  C   UNL     1      33.983 -19.816 -20.987  0.00  0.00    +0.013 C 
ATOM     26  C   UNL     1      33.908 -20.822 -19.983  0.00  0.00    +0.017 C 
ATOM     27  C   UNL     1      35.211 -21.050 -19.537  0.00  0.00    +0.068 C 
ATOM     28  C   UNL     1      32.863 -21.560 -19.410  0.00  0.00    +0.022 C 
ATOM     29  C   UNL     1      35.500 -21.981 -18.548  0.00  0.00    +0.113 C 
ATOM     30  C   UNL     1      33.225 -22.473 -18.428  0.00  0.00    +0.099 C 
ATOM     31  H   UNL     1      37.016 -20.153 -20.146  0.00  0.00    +0.152 HD
ENDBRANCH  21  24
ENDBRANCH   2  21
TORSDOF 5
ENDMDL
MODEL 2
REMARK VINA RESULT:     -11.7      5.051     11.144
REMARK  Name = 445481
REMARK  5 active torsions:
REMARK  status: ('A' for Active; 'I' for Inactive)
REMARK    1  A    between atoms: N_2  and  C_21
REMARK    2  A    between atoms: C_3  and  N_7
REMARK    3  A    between atoms: N_7  and  S_9
REMARK    4  A    between atoms: S_9  and  C_14
REMARK    5  A    between atoms: C_21  and  C_24
REMARK                            x       y       z     vdW  Elec       q    Type
REMARK                         _______ _______ _______ _____ _____    ______ ____
ROOT
ATOM      1  O   UNL     1      36.433 -20.792 -20.081  0.00  0.00    -0.273 OA
ATOM      2  N   UNL     1      34.978 -19.521 -21.424  0.00  0.00    -0.273 N 
ATOM      3  C   UNL     1      34.044 -21.234 -20.150  0.00  0.00    +0.153 C 
ATOM      4  C   UNL     1      32.952 -20.255 -20.566  0.00  0.00    +0.048 C 
ATOM      5  C   UNL     1      33.568 -19.512 -21.736  0.00  0.00    +0.096 C 
ATOM      6  C   UNL     1      35.321 -20.514 -20.506  0.00  0.00    +0.242 C 
ENDROOT
BRANCH   3   7
ATOM      7  N   UNL     1      34.010 -21.481 -18.704  0.00  0.00    -0.171 NA
ATOM      8  H   UNL     1      34.975 -21.595 -18.393  0.00  0.00    +0.149 HD
BRANCH   7   9
ATOM      9  S   UNL     1      33.129 -22.837 -18.136  0.00  0.00    +0.066 S 
ATOM     10  O   UNL     1      33.474 -23.998 -18.933  0.00  0.00    -0.152 OA
ATOM     11  O   UNL     1      31.747 -22.451 -17.926  0.00  0.00    -0.152 OA
BRANCH   9  14
ATOM     12  S   UNL     1      35.366 -22.854 -16.262  0.00  0.00    -0.066 S 
ATOM     13  N   UNL     1      33.690 -24.264 -13.047  0.00  0.00    -0.243 NA
ATOM     14  C   UNL     1      33.722 -23.197 -16.484  0.00  0.00    +0.153 C 
ATOM     15  C   UNL     1      33.104 -23.690 -15.386  0.00  0.00    +0.046 C 
ATOM     16  C   UNL     1      34.008 -23.802 -14.287  0.00  0.00    +0.089 C 
ATOM     17  C   UNL     1      35.294 -23.377 -14.626  0.00  0.00    +0.048 C 
ATOM     18  C   UNL     1      36.320 -23.414 -13.671  0.00  0.00    +0.010 C 
ATOM     19  C   UNL     1      36.000 -23.884 -12.403  0.00  0.00    +0.021 C 
ATOM     20  C   UNL     1      34.701 -24.286 -12.155  0.00  0.00    +0.099 C 
ENDBRANCH   9  14
ENDBRANCH   7   9
ENDBRANCH   3   7
BRANCH   2  21
ATOM     21  C   UNL     1      35.911 -18.656 -22.112  0.00  0.00    +0.135 C 
BRANCH  21  24
ATOM     22  N   UNL     1      34.840 -17.177 -23.790  0.00  0.00    -0.313 N 
ATOM     23  N   UNL     1      33.197 -14.040 -24.830  0.00  0.00    -0.241 NA
ATOM     24  C   UNL     1      35.244 -17.369 -22.510  0.00  0.00    +0.046 C 
ATOM     25  C   UNL     1      34.948 -16.275 -21.763  0.00  0.00    +0.013 C 
ATOM     26  C   UNL     1      34.319 -15.340 -22.633  0.00  0.00    +0.017 C 
ATOM     27  C   UNL     1      34.265 -15.932 -23.896  0.00  0.00    +0.068 C 
ATOM     28  C   UNL     1      33.791 -14.052 -22.471  0.00  0.00    +0.022 C 
ATOM     29  C   UNL     1      33.706 -15.284 -24.990  0.00  0.00    +0.113 C 
ATOM     30  C   UNL     1      33.249 -13.465 -23.607  0.00  0.00    +0.099 C 
ATOM     31  H   UNL     1      34.943 -17.823 -24.525  0.00  0.00    +0.152 HD
ENDBRANCH  21  24
ENDBRANCH   2  21
TORSDOF 5
ENDMDL
MODEL 3
REMARK VINA RESULT:     -11.6      5.186     11.274
REMARK  Name = 445481
REMARK  5 active torsions:
REMARK  status: ('A' for Active; 'I' for Inactive)
REMARK    1  A    between atoms: N_2  and  C_21
REMARK    2  A    between atoms: C_3  and  N_7
REMARK    3  A    between atoms: N_7  and  S_9
REMARK    4  A    between atoms: S_9  and  C_14
REMARK    5  A    between atoms: C_21  and  C_24
REMARK                            x       y       z     vdW  Elec       q    Type
REMARK                         _______ _______ _______ _____ _____    ______ ____
ROOT
ATOM      1  O   UNL     1      36.227 -21.058 -19.926  0.00  0.00    -0.273 OA
ATOM      2  N   UNL     1      34.790 -19.721 -21.223  0.00  0.00    -0.273 N 
ATOM      3  C   UNL     1      33.818 -21.379 -19.906  0.00  0.00    +0.153 C 
ATOM      4  C   UNL     1      32.762 -20.347 -20.289  0.00  0.00    +0.048 C 
ATOM      5  C   UNL     1      33.372 -19.641 -21.484  0.00  0.00    +0.096 C 
ATOM      6  C   UNL     1      35.115 -20.726 -20.312  0.00  0.00    +0.242 C 
ENDROOT
BRANCH   3   7
ATOM      7  N   UNL     1      33.823 -21.617 -18.458  0.00  0.00    -0.171 NA
ATOM      8  H   UNL     1      34.798 -21.690 -18.167  0.00  0.00    +0.149 HD
BRANCH   7   9
ATOM      9  S   UNL     1      33.010 -23.005 -17.864  0.00  0.00    +0.066 S 
ATOM     10  O   UNL     1      33.371 -24.152 -18.674  0.00  0.00    -0.152 OA
ATOM     11  O   UNL     1      31.623 -22.669 -17.609  0.00  0.00    -0.152 OA
BRANCH   9  14
ATOM     12  S   UNL     1      35.302 -22.927 -16.059  0.00  0.00    -0.066 S 
ATOM     13  N   UNL     1      33.791 -24.426 -12.803  0.00  0.00    -0.243 NA
ATOM     14  C   UNL     1      33.670 -23.344 -16.233  0.00  0.00    +0.153 C 
ATOM     15  C   UNL     1      33.108 -23.869 -15.120  0.00  0.00    +0.046 C 
ATOM     16  C   UNL     1      34.050 -23.945 -14.049  0.00  0.00    +0.089 C 
ATOM     17  C   UNL     1      35.304 -23.459 -14.425  0.00  0.00    +0.048 C 
ATOM     18  C   UNL     1      36.359 -23.453 -13.501  0.00  0.00    +0.010 C 
ATOM     19  C   UNL     1      36.100 -23.943 -12.227  0.00  0.00    +0.021 C 
ATOM     20  C   UNL     1      34.829 -24.405 -11.942  0.00  0.00    +0.099 C 
ENDBRANCH   9  14
ENDBRANCH   7   9
ENDBRANCH   3   7
BRANCH   2  21
ATOM     21  C   UNL     1      35.741 -18.908 -21.949  0.00  0.00    +0.135 C 
BRANCH  21  24
ATOM     22  N   UNL     1      34.642 -18.797 -24.170  0.00  0.00    -0.313 N 
ATOM     23  N   UNL     1      32.951 -16.995 -26.912  0.00  0.00    -0.241 NA
ATOM     24  C   UNL     1      35.055 -18.151 -23.052  0.00  0.00    +0.046 C 
ATOM     25  C   UNL     1      34.749 -16.831 -23.142  0.00  0.00    +0.013 C 
ATOM     26  C   UNL     1      34.103 -16.643 -24.396  0.00  0.00    +0.017 C 
ATOM     27  C   UNL     1      34.049 -17.891 -25.018  0.00  0.00    +0.068 C 
ATOM     28  C   UNL     1      33.558 -15.536 -25.062  0.00  0.00    +0.022 C 
ATOM     29  C   UNL     1      33.476 -18.066 -26.271  0.00  0.00    +0.113 C 
ATOM     30  C   UNL     1      33.003 -15.785 -26.310  0.00  0.00    +0.099 C 
ATOM     31  H   UNL     1      34.749 -19.759 -24.346  0.00  0.00    +0.152 HD
ENDBRANCH  21  24
ENDBRANCH   2  21
TORSDOF 5
ENDMDL
MODEL 4
REMARK VINA RESULT:     -11.3      3.104      5.431
REMARK  Name = 445481
REMARK  5 active torsions:
REMARK  status: ('A' for Active; 'I' for Inactive)
REMARK    1  A    between atoms: N_2  and  C_21
REMARK    2  A    between atoms: C_3  and  N_7
REMARK    3  A    between atoms: N_7  and  S_9
REMARK    4  A    between atoms: S_9  and  C_14
REMARK    5  A    between atoms: C_21  and  C_24
REMARK                            x       y       z     vdW  Elec       q    Type
REMARK                         _______ _______ _______ _____ _____    ______ ____
ROOT
ATOM      1  O   UNL     1      35.807 -21.028 -20.379  0.00  0.00    -0.273 OA
ATOM      2  N   UNL     1      33.707 -21.668 -19.530  0.00  0.00    -0.273 N 
ATOM      3  C   UNL     1      33.825 -19.661 -20.709  0.00  0.00    +0.153 C 
ATOM      4  C   UNL     1      32.376 -20.134 -20.650  0.00  0.00    +0.048 C 
ATOM      5  C   UNL     1      32.371 -21.121 -19.499  0.00  0.00    +0.096 C 
ATOM      6  C   UNL     1      34.607 -20.853 -20.218  0.00  0.00    +0.242 C 
ENDROOT
BRANCH   3   7
ATOM      7  N   UNL     1      34.223 -19.349 -22.086  0.00  0.00    -0.171 NA
ATOM      8  H   UNL     1      34.746 -20.151 -22.439  0.00  0.00    +0.149 HD
BRANCH   7   9
ATOM      9  S   UNL     1      35.188 -17.956 -22.352  0.00  0.00    +0.066 S 
ATOM     10  O   UNL     1      36.505 -18.366 -22.798  0.00  0.00    -0.152 OA
ATOM     11  O   UNL     1      35.020 -17.042 -21.239  0.00  0.00    -0.152 OA
BRANCH   9  14
ATOM     12  S   UNL     1      34.225 -15.424 -23.437  0.00  0.00    -0.066 S 
ATOM     13  N   UNL     1      33.088 -16.477 -27.004  0.00  0.00    -0.243 NA
ATOM     14  C   UNL     1      34.468 -17.073 -23.735  0.00  0.00    +0.153 C 
ATOM     15  C   UNL     1      34.084 -17.478 -24.967  0.00  0.00    +0.046 C 
ATOM     16  C   UNL     1      33.557 -16.392 -25.730  0.00  0.00    +0.089 C 
ATOM     17  C   UNL     1      33.573 -15.195 -25.010  0.00  0.00    +0.048 C 
ATOM     18  C   UNL     1      33.093 -14.016 -25.599  0.00  0.00    +0.010 C 
ATOM     19  C   UNL     1      32.613 -14.097 -26.900  0.00  0.00    +0.021 C 
ATOM     20  C   UNL     1      32.634 -15.324 -27.537  0.00  0.00    +0.099 C 
ENDBRANCH   9  14
ENDBRANCH   7   9
ENDBRANCH   3   7
BRANCH   2  21
ATOM     21  C   UNL     1      34.052 -22.870 -18.803  0.00  0.00    +0.135 C 
BRANCH  21  24
ATOM     22  N   UNL     1      31.826 -22.954 -17.712  0.00  0.00    -0.313 N 
ATOM     23  N   UNL     1      29.619 -23.322 -14.776  0.00  0.00    -0.241 NA
ATOM     24  C   UNL     1      33.174 -23.023 -17.592  0.00  0.00    +0.046 C 
ATOM     25  C   UNL     1      33.512 -23.234 -16.294  0.00  0.00    +0.013 C 
ATOM     26  C   UNL     1      32.296 -23.302 -15.557  0.00  0.00    +0.017 C 
ATOM     27  C   UNL     1      31.256 -23.123 -16.471  0.00  0.00    +0.068 C 
ATOM     28  C   UNL     1      31.977 -23.497 -14.207  0.00  0.00    +0.022 C 
ATOM     29  C   UNL     1      29.923 -23.133 -16.082  0.00  0.00    +0.113 C 
ATOM     30  C   UNL     1      30.625 -23.495 -13.890  0.00  0.00    +0.099 C 
ATOM     31  H   UNL     1      31.334 -22.806 -18.551  0.00  0.00    +0.152 HD
ENDBRANCH  21  24
ENDBRANCH   2  21
TORSDOF 5
ENDMDL
MODEL 5
REMARK VINA RESULT:     -11.2      4.871     10.934
REMARK  Name = 445481
REMARK  5 active torsions:
REMARK  status: ('A' for Active; 'I' for Inactive)
REMARK    1  A    between atoms: N_2  and  C_21
REMARK    2  A    between atoms: C_3  and  N_7
REMARK    3  A    between atoms: N_7  and  S_9
REMARK    4  A    between atoms: S_9  and  C_14
REMARK    5  A    between atoms: C_21  and  C_24
REMARK                            x       y       z     vdW  Elec       q    Type
REMARK                         _______ _______ _______ _____ _____    ______ ____
ROOT
ATOM      1  O   UNL     1      36.109 -20.308 -20.164  0.00  0.00    -0.273 OA
ATOM      2  N   UNL     1      34.790 -19.094 -21.689  0.00  0.00    -0.273 N 
ATOM      3  C   UNL     1      33.787 -20.887 -20.588  0.00  0.00    +0.153 C 
ATOM      4  C   UNL     1      32.709 -19.964 -21.148  0.00  0.00    +0.048 C 
ATOM      5  C   UNL     1      33.443 -19.160 -22.204  0.00  0.00    +0.096 C 
ATOM      6  C   UNL     1      35.055 -20.086 -20.744  0.00  0.00    +0.242 C 
ENDROOT
BRANCH   3   7
ATOM      7  N   UNL     1      33.557 -21.167 -19.167  0.00  0.00    -0.171 NA
ATOM      8  H   UNL     1      34.029 -20.435 -18.634  0.00  0.00    +0.149 HD
BRANCH   7   9
ATOM      9  S   UNL     1      34.088 -22.673 -18.544  0.00  0.00    +0.066 S 
ATOM     10  O   UNL     1      35.377 -22.497 -17.903  0.00  0.00    -0.152 OA
ATOM     11  O   UNL     1      33.879 -23.702 -19.544  0.00  0.00    -0.152 OA
BRANCH   9  14
ATOM     12  S   UNL     1      33.733 -23.648 -15.816  0.00  0.00    -0.066 S 
ATOM     13  N   UNL     1      29.856 -23.701 -15.497  0.00  0.00    -0.243 NA
ATOM     14  C   UNL     1      32.958 -23.127 -17.229  0.00  0.00    +0.153 C 
ATOM     15  C   UNL     1      31.607 -23.131 -17.156  0.00  0.00    +0.046 C 
ATOM     16  C   UNL     1      31.157 -23.584 -15.879  0.00  0.00    +0.089 C 
ATOM     17  C   UNL     1      32.223 -23.905 -15.036  0.00  0.00    +0.048 C 
ATOM     18  C   UNL     1      31.974 -24.368 -13.736  0.00  0.00    +0.010 C 
ATOM     19  C   UNL     1      30.648 -24.489 -13.340  0.00  0.00    +0.021 C 
ATOM     20  C   UNL     1      29.655 -24.149 -14.241  0.00  0.00    +0.099 C 
ENDBRANCH   9  14
ENDBRANCH   7   9
ENDBRANCH   3   7
BRANCH   2  21
ATOM     21  C   UNL     1      35.760 -18.162 -22.221  0.00  0.00    +0.135 C 
BRANCH  21  24
ATOM     22  N   UNL     1      34.742 -16.844 -24.058  0.00  0.00    -0.313 N 
ATOM     23  N   UNL     1      33.061 -13.849 -25.411  0.00  0.00    -0.241 NA
ATOM     24  C   UNL     1      35.075 -16.931 -22.747  0.00  0.00    +0.046 C 
ATOM     25  C   UNL     1      34.701 -15.800 -22.098  0.00  0.00    +0.013 C 
ATOM     26  C   UNL     1      34.094 -14.951 -23.067  0.00  0.00    +0.017 C 
ATOM     27  C   UNL     1      34.133 -15.631 -24.285  0.00  0.00    +0.068 C 
ATOM     28  C   UNL     1      33.515 -13.675 -23.028  0.00  0.00    +0.022 C 
ATOM     29  C   UNL     1      33.619 -15.082 -25.453  0.00  0.00    +0.113 C 
ATOM     30  C   UNL     1      33.022 -13.189 -24.232  0.00  0.00    +0.099 C 
ATOM     31  H   UNL     1      34.909 -17.536 -24.738  0.00  0.00    +0.152 HD
ENDBRANCH  21  24
ENDBRANCH   2  21
TORSDOF 5
ENDMDL
MODEL 6
REMARK VINA RESULT:     -11.0      2.395      9.309
REMARK  Name = 445481
REMARK  5 active torsions:
REMARK  status: ('A' for Active; 'I' for Inactive)
REMARK    1  A    between atoms: N_2  and  C_21
REMARK    2  A    between atoms: C_3  and  N_7
REMARK    3  A    between atoms: N_7  and  S_9
REMARK    4  A    between atoms: S_9  and  C_14
REMARK    5  A    between atoms: C_21  and  C_24
REMARK                            x       y       z     vdW  Elec       q    Type
REMARK                         _______ _______ _______ _____ _____    ______ ____
ROOT
ATOM      1  O   UNL     1      34.518 -16.089 -25.455  0.00  0.00    -0.273 OA
ATOM      2  N   UNL     1      32.672 -16.461 -26.867  0.00  0.00    -0.273 N 
ATOM      3  C   UNL     1      33.133 -18.076 -25.251  0.00  0.00    +0.153 C 
ATOM      4  C   UNL     1      31.695 -18.233 -25.735  0.00  0.00    +0.048 C 
ATOM      5  C   UNL     1      31.682 -17.494 -27.059  0.00  0.00    +0.096 C 
ATOM      6  C   UNL     1      33.557 -16.748 -25.828  0.00  0.00    +0.242 C 
ENDROOT
BRANCH   3   7
ATOM      7  N   UNL     1      33.195 -18.015 -23.787  0.00  0.00    -0.171 NA
ATOM      8  H   UNL     1      32.954 -17.062 -23.513  0.00  0.00    +0.149 HD
BRANCH   7   9
ATOM      9  S   UNL     1      34.680 -18.403 -23.024  0.00  0.00    +0.066 S 
ATOM     10  O   UNL     1      35.216 -17.214 -22.390  0.00  0.00    -0.152 OA
ATOM     11  O   UNL     1      35.484 -19.202 -23.928  0.00  0.00    -0.152 OA
BRANCH   9  14
ATOM     12  S   UNL     1      35.678 -20.124 -20.889  0.00  0.00    -0.066 S 
ATOM     13  N   UNL     1      32.371 -21.525 -19.395  0.00  0.00    -0.243 NA
ATOM     14  C   UNL     1      34.305 -19.532 -21.684  0.00  0.00    +0.153 C 
ATOM     15  C   UNL     1      33.134 -19.997 -21.192  0.00  0.00    +0.046 C 
ATOM     16  C   UNL     1      33.348 -20.892 -20.100  0.00  0.00    +0.089 C 
ATOM     17  C   UNL     1      34.706 -21.057 -19.822  0.00  0.00    +0.048 C 
ATOM     18  C   UNL     1      35.110 -21.902 -18.778  0.00  0.00    +0.010 C 
ATOM     19  C   UNL     1      34.117 -22.551 -18.055  0.00  0.00    +0.021 C 
ATOM     20  C   UNL     1      32.797 -22.329 -18.400  0.00  0.00    +0.099 C 
ENDBRANCH   9  14
ENDBRANCH   7   9
ENDBRANCH   3   7
BRANCH   2  21
ATOM     21  C   UNL     1      32.772 -15.331 -27.765  0.00  0.00    +0.135 C 
BRANCH  21  24
ATOM     22  N   UNL     1      32.632 -14.004 -25.674  0.00  0.00    -0.313 N 
ATOM     23  N   UNL     1      33.056 -10.903 -23.718  0.00  0.00    -0.241 NA
ATOM     24  C   UNL     1      32.955 -14.056 -26.990  0.00  0.00    +0.046 C 
ATOM     25  C   UNL     1      33.421 -12.848 -27.399  0.00  0.00    +0.013 C 
ATOM     26  C   UNL     1      33.387 -11.988 -26.266  0.00  0.00    +0.017 C 
ATOM     27  C   UNL     1      32.888 -12.739 -25.200  0.00  0.00    +0.068 C 
ATOM     28  C   UNL     1      33.730 -10.648 -26.041  0.00  0.00    +0.022 C 
ATOM     29  C   UNL     1      32.724 -12.198 -23.931  0.00  0.00    +0.113 C 
ATOM     30  C   UNL     1      33.539 -10.175 -24.750  0.00  0.00    +0.099 C 
ATOM     31  H   UNL     1      32.271 -14.751 -25.145  0.00  0.00    +0.152 HD
ENDBRANCH  21  24
ENDBRANCH   2  21
TORSDOF 5
ENDMDL
MODEL 7
REMARK VINA RESULT:     -10.9      4.146      7.264
REMARK  Name = 445481
REMARK  5 active torsions:
REMARK  status: ('A' for Active; 'I' for Inactive)
REMARK    1  A    between atoms: N_2  and  C_21
REMARK    2  A    between atoms: C_3  and  N_7
REMARK    3  A    between atoms: N_7  and  S_9
REMARK    4  A    between atoms: S_9  and  C_14
REMARK    5  A    between atoms: C_21  and  C_24
REMARK                            x       y       z     vdW  Elec       q    Type
REMARK                         _______ _______ _______ _____ _____    ______ ____
ROOT
ATOM      1  O   UNL     1      32.727 -22.330 -19.128  0.00  0.00    -0.273 OA
ATOM      2  N   UNL     1      34.431 -22.582 -17.526  0.00  0.00    -0.273 N 
ATOM      3  C   UNL     1      34.993 -21.553 -19.540  0.00  0.00    +0.153 C 
ATOM      4  C   UNL     1      36.042 -21.218 -18.486  0.00  0.00    +0.048 C 
ATOM      5  C   UNL     1      35.842 -22.289 -17.431  0.00  0.00    +0.096 C 
ATOM      6  C   UNL     1      33.878 -22.183 -18.742  0.00  0.00    +0.242 C 
ENDROOT
BRANCH   3   7
ATOM      7  N   UNL     1      34.498 -20.339 -20.198  0.00  0.00    -0.171 NA
ATOM      8  H   UNL     1      33.825 -20.632 -20.907  0.00  0.00    +0.149 HD
BRANCH   7   9
ATOM      9  S   UNL     1      35.637 -19.316 -20.969  0.00  0.00    +0.066 S 
ATOM     10  O   UNL     1      36.773 -20.106 -21.400  0.00  0.00    -0.152 OA
ATOM     11  O   UNL     1      35.812 -18.116 -20.174  0.00  0.00    -0.152 OA
BRANCH   9  14
ATOM     12  S   UNL     1      34.916 -17.031 -22.635  0.00  0.00    -0.066 S 
ATOM     13  N   UNL     1      33.162 -18.771 -25.640  0.00  0.00    -0.243 NA
ATOM     14  C   UNL     1      34.872 -18.716 -22.475  0.00  0.00    +0.153 C 
ATOM     15  C   UNL     1      34.269 -19.358 -23.502  0.00  0.00    +0.046 C 
ATOM     16  C   UNL     1      33.808 -18.436 -24.490  0.00  0.00    +0.089 C 
ATOM     17  C   UNL     1      34.096 -17.115 -24.144  0.00  0.00    +0.048 C 
ATOM     18  C   UNL     1      33.718 -16.068 -24.997  0.00  0.00    +0.010 C 
ATOM     19  C   UNL     1      33.059 -16.403 -26.172  0.00  0.00    +0.021 C 
ATOM     20  C   UNL     1      32.814 -17.738 -26.435  0.00  0.00    +0.099 C 
ENDBRANCH   9  14
ENDBRANCH   7   9
ENDBRANCH   3   7
BRANCH   2  21
ATOM     21  C   UNL     1      33.741 -23.326 -16.495  0.00  0.00    +0.135 C 
BRANCH  21  24
ATOM     22  N   UNL     1      34.960 -22.981 -14.363  0.00  0.00    -0.313 N 
ATOM     23  N   UNL     1      37.317 -24.024 -11.721  0.00  0.00    -0.241 NA
ATOM     24  C   UNL     1      34.705 -23.774 -15.432  0.00  0.00    +0.046 C 
ATOM     25  C   UNL     1      35.427 -24.920 -15.340  0.00  0.00    +0.013 C 
ATOM     26  C   UNL     1      36.180 -24.836 -14.135  0.00  0.00    +0.017 C 
ATOM     27  C   UNL     1      35.867 -23.611 -13.543  0.00  0.00    +0.068 C 
ATOM     28  C   UNL     1      37.095 -25.680 -13.489  0.00  0.00    +0.022 C 
ATOM     29  C   UNL     1      36.434 -23.207 -12.341  0.00  0.00    +0.113 C 
ATOM     30  C   UNL     1      37.621 -25.211 -12.293  0.00  0.00    +0.099 C 
ATOM     31  H   UNL     1      34.560 -22.097 -14.200  0.00  0.00    +0.152 HD
ENDBRANCH  21  24
ENDBRANCH   2  21
TORSDOF 5
ENDMDL
MODEL 8
REMARK VINA RESULT:     -10.8      2.709      3.879
REMARK  Name = 445481
REMARK  5 active torsions:
REMARK  status: ('A' for Active; 'I' for Inactive)
REMARK    1  A    between atoms: N_2  and  C_21
REMARK    2  A    between atoms: C_3  and  N_7
REMARK    3  A    between atoms: N_7  and  S_9
REMARK    4  A    between atoms: S_9  and  C_14
REMARK    5  A    between atoms: C_21  and  C_24
REMARK                            x       y       z     vdW  Elec       q    Type
REMARK                         _______ _______ _______ _____ _____    ______ ____
ROOT
ATOM      1  O   UNL     1      33.399 -15.296 -25.880  0.00  0.00    -0.273 OA
ATOM      2  N   UNL     1      34.156 -16.316 -23.899  0.00  0.00    -0.273 N 
ATOM      3  C   UNL     1      34.002 -13.991 -23.920  0.00  0.00    +0.153 C 
ATOM      4  C   UNL     1      34.046 -14.486 -22.479  0.00  0.00    +0.048 C 
ATOM      5  C   UNL     1      34.617 -15.886 -22.600  0.00  0.00    +0.096 C 
ATOM      6  C   UNL     1      33.789 -15.251 -24.722  0.00  0.00    +0.242 C 
ENDROOT
BRANCH   3   7
ATOM      7  N   UNL     1      32.872 -13.080 -24.132  0.00  0.00    -0.171 NA
ATOM      8  H   UNL     1      32.238 -13.533 -24.791  0.00  0.00    +0.149 HD
BRANCH   7   9
ATOM      9  S   UNL     1      33.202 -11.511 -24.740  0.00  0.00    +0.066 S 
ATOM     10  O   UNL     1      32.300 -11.226 -25.839  0.00  0.00    -0.152 OA
ATOM     11  O   UNL     1      34.636 -11.348 -24.881  0.00  0.00    -0.152 OA
BRANCH   9  14
ATOM     12  S   UNL     1      33.486  -8.822 -23.642  0.00  0.00    -0.066 S 
ATOM     13  N   UNL     1      31.242  -9.026 -20.471  0.00  0.00    -0.243 NA
ATOM     14  C   UNL     1      32.769 -10.345 -23.450  0.00  0.00    +0.153 C 
ATOM     15  C   UNL     1      31.980 -10.454 -22.357  0.00  0.00    +0.046 C 
ATOM     16  C   UNL     1      31.945  -9.234 -21.618  0.00  0.00    +0.089 C 
ATOM     17  C   UNL     1      32.731  -8.244 -22.211  0.00  0.00    +0.048 C 
ATOM     18  C   UNL     1      32.819  -6.973 -21.624  0.00  0.00    +0.010 C 
ATOM     19  C   UNL     1      32.103  -6.755 -20.453  0.00  0.00    +0.021 C 
ATOM     20  C   UNL     1      31.350  -7.793 -19.936  0.00  0.00    +0.099 C 
ENDBRANCH   9  14
ENDBRANCH   7   9
ENDBRANCH   3   7
BRANCH   2  21
ATOM     21  C   UNL     1      34.208 -17.705 -24.299  0.00  0.00    +0.135 C 
BRANCH  21  24
ATOM     22  N   UNL     1      33.183 -19.049 -22.484  0.00  0.00    -0.313 N 
ATOM     23  N   UNL     1      33.359 -21.244 -19.522  0.00  0.00    -0.241 NA
ATOM     24  C   UNL     1      34.307 -18.599 -23.094  0.00  0.00    +0.046 C 
ATOM     25  C   UNL     1      35.404 -19.075 -22.452  0.00  0.00    +0.013 C 
ATOM     26  C   UNL     1      34.934 -19.874 -21.372  0.00  0.00    +0.017 C 
ATOM     27  C   UNL     1      33.539 -19.840 -21.417  0.00  0.00    +0.068 C 
ATOM     28  C   UNL     1      35.555 -20.623 -20.363  0.00  0.00    +0.022 C 
ATOM     29  C   UNL     1      32.755 -20.523 -20.495  0.00  0.00    +0.113 C 
ATOM     30  C   UNL     1      34.710 -21.278 -19.477  0.00  0.00    +0.099 C 
ATOM     31  H   UNL     1      32.261 -18.843 -22.760  0.00  0.00    +0.152 HD
ENDBRANCH  21  24
ENDBRANCH   2  21
TORSDOF 5
ENDMDL
MODEL 9
REMARK VINA RESULT:     -10.8      2.760     10.202
REMARK  Name = 445481
REMARK  5 active torsions:
REMARK  status: ('A' for Active; 'I' for Inactive)
REMARK    1  A    between atoms: N_2  and  C_21
REMARK    2  A    between atoms: C_3  and  N_7
REMARK    3  A    between atoms: N_7  and  S_9
REMARK    4  A    between atoms: S_9  and  C_14
REMARK    5  A    between atoms: C_21  and  C_24
REMARK                            x       y       z     vdW  Elec       q    Type
REMARK                         _______ _______ _______ _____ _____    ______ ____
ROOT
ATOM      1  O   UNL     1      34.013 -14.121 -21.033  0.00  0.00    -0.273 OA
ATOM      2  N   UNL     1      33.182 -13.805 -23.211  0.00  0.00    -0.273 N 
ATOM      3  C   UNL     1      34.680 -15.558 -22.875  0.00  0.00    +0.153 C 
ATOM      4  C   UNL     1      33.912 -15.785 -24.173  0.00  0.00    +0.048 C 
ATOM      5  C   UNL     1      33.367 -14.410 -24.509  0.00  0.00    +0.096 C 
ATOM      6  C   UNL     1      33.932 -14.428 -22.213  0.00  0.00    +0.242 C 
ENDROOT
BRANCH   3   7
ATOM      7  N   UNL     1      34.630 -16.746 -22.017  0.00  0.00    -0.171 NA
ATOM      8  H   UNL     1      35.464 -16.730 -21.428  0.00  0.00    +0.149 HD
BRANCH   7   9
ATOM      9  S   UNL     1      34.569 -18.285 -22.769  0.00  0.00    +0.066 S 
ATOM     10  O   UNL     1      35.885 -18.622 -23.275  0.00  0.00    -0.152 OA
ATOM     11  O   UNL     1      33.395 -18.352 -23.619  0.00  0.00    -0.152 OA
BRANCH   9  14
ATOM     12  S   UNL     1      35.620 -20.101 -20.740  0.00  0.00    -0.066 S 
ATOM     13  N   UNL     1      32.352 -21.621 -19.275  0.00  0.00    -0.243 NA
ATOM     14  C   UNL     1      34.228 -19.487 -21.484  0.00  0.00    +0.153 C 
ATOM     15  C   UNL     1      33.070 -19.993 -21.001  0.00  0.00    +0.046 C 
ATOM     16  C   UNL     1      33.311 -20.940 -19.960  0.00  0.00    +0.089 C 
ATOM     17  C   UNL     1      34.675 -21.101 -19.710  0.00  0.00    +0.048 C 
ATOM     18  C   UNL     1      35.106 -21.993 -18.717  0.00  0.00    +0.010 C 
ATOM     19  C   UNL     1      34.131 -22.691 -18.015  0.00  0.00    +0.021 C 
ATOM     20  C   UNL     1      32.803 -22.470 -18.329  0.00  0.00    +0.099 C 
ENDBRANCH   9  14
ENDBRANCH   7   9
ENDBRANCH   3   7
BRANCH   2  21
ATOM     21  C   UNL     1      32.393 -12.605 -23.040  0.00  0.00    +0.135 C 
BRANCH  21  24
ATOM     22  N   UNL     1      32.428 -10.234 -23.768  0.00  0.00    -0.313 N 
ATOM     23  N   UNL     1      33.958  -7.348 -25.487  0.00  0.00    -0.241 NA
ATOM     24  C   UNL     1      33.037 -11.445 -23.748  0.00  0.00    +0.046 C 
ATOM     25  C   UNL     1      34.212 -11.383 -24.425  0.00  0.00    +0.013 C 
ATOM     26  C   UNL     1      34.344 -10.047 -24.898  0.00  0.00    +0.017 C 
ATOM     27  C   UNL     1      33.212  -9.350 -24.471  0.00  0.00    +0.068 C 
ATOM     28  C   UNL     1      35.313  -9.362 -25.645  0.00  0.00    +0.022 C 
ATOM     29  C   UNL     1      33.020  -8.006 -24.765  0.00  0.00    +0.113 C 
ATOM     30  C   UNL     1      35.055  -8.022 -25.901  0.00  0.00    +0.099 C 
ATOM     31  H   UNL     1      31.563 -10.022 -23.348  0.00  0.00    +0.152 HD
ENDBRANCH  21  24
ENDBRANCH   2  21
TORSDOF 5
ENDMDL
