MODEL 1
REMARK VINA RESULT:     -12.9      0.000      0.000
REMARK  Name = 118598754
REMARK  1 active torsions:
REMARK  status: ('A' for Active; 'I' for Inactive)
REMARK    1  A    between atoms: C_15  and  N_19
REMARK                            x       y       z     vdW  Elec       q    Type
REMARK                         _______ _______ _______ _____ _____    ______ ____
ROOT
ATOM      1  O   UNL     1      31.710 -24.638 -13.129  0.00  0.00    -0.269 OA
ATOM      2  O   UNL     1      36.291 -23.216 -16.454  0.00  0.00    -0.268 OA
ATOM      3  N   UNL     1      34.467 -23.783 -15.132  0.00  0.00    -0.238 N 
ATOM      4  N   UNL     1      34.048 -24.632 -13.039  0.00  0.00    -0.288 N 
ATOM      5  C   UNL     1      35.158 -24.263 -13.909  0.00  0.00    +0.124 C 
ATOM      6  C   UNL     1      36.026 -25.502 -14.203  0.00  0.00    +0.038 C 
ATOM      7  C   UNL     1      35.984 -23.138 -13.252  0.00  0.00    +0.038 C 
ATOM      8  C   UNL     1      36.776 -23.625 -12.038  0.00  0.00    +0.003 C 
ATOM      9  C   UNL     1      36.818 -25.968 -12.981  0.00  0.00    +0.003 C 
ATOM     10  C   UNL     1      37.641 -24.834 -12.377  0.00  0.00    +0.000 C 
ATOM     11  C   UNL     1      33.095 -23.873 -14.969  0.00  0.00    +0.105 C 
ATOM     12  C   UNL     1      32.803 -24.421 -13.618  0.00  0.00    +0.260 C 
ATOM     13  C   UNL     1      35.077 -23.307 -16.286  0.00  0.00    +0.267 C 
ATOM     14  C   UNL     1      32.241 -23.501 -15.934  0.00  0.00    -0.002 C 
ATOM     15  C   UNL     1      34.134 -22.884 -17.383  0.00  0.00    +0.104 C 
ATOM     16  C   UNL     1      32.811 -22.994 -17.171  0.00  0.00    +0.016 C 
ATOM     17  C   UNL     1      30.744 -23.547 -15.886  0.00  0.00    +0.033 C 
ATOM     18  H   UNL     1      34.167 -24.995 -12.131  0.00  0.00    +0.151 HD
ENDROOT
BRANCH  15  19
ATOM     19  N   UNL     1      34.707 -22.414 -18.529  0.00  0.00    -0.298 N 
ATOM     20  N   UNL     1      32.861 -21.375 -19.585  0.00  0.00    -0.233 NA
ATOM     21  N   UNL     1      33.241 -19.628 -21.200  0.00  0.00    -0.234 NA
ATOM     22  C   UNL     1      34.199 -21.473 -19.431  0.00  0.00    +0.113 C 
ATOM     23  C   UNL     1      35.108 -20.694 -20.117  0.00  0.00    +0.121 C 
ATOM     24  C   UNL     1      34.567 -19.779 -20.998  0.00  0.00    +0.107 C 
ATOM     25  C   UNL     1      32.457 -20.445 -20.472  0.00  0.00    +0.252 C 
ATOM     26  H   UNL     1      35.592 -22.784 -18.748  0.00  0.00    +0.153 HD
ATOM     27  N   UNL     1      35.468 -18.963 -21.724  0.00  0.00    -0.346 N 
ATOM     28  H   UNL     1      35.124 -18.296 -22.362  0.00  0.00    +0.143 HD
ATOM     29  H   UNL     1      36.439 -19.059 -21.589  0.00  0.00    +0.143 HD
ENDBRANCH  15  19
TORSDOF 1
ENDMDL
MODEL 2
REMARK VINA RESULT:     -10.7      8.275     13.751
REMARK  Name = 118598754
REMARK  1 active torsions:
REMARK  status: ('A' for Active; 'I' for Inactive)
REMARK    1  A    between atoms: C_15  and  N_19
REMARK                            x       y       z     vdW  Elec       q    Type
REMARK                         _______ _______ _______ _____ _____    ______ ____
ROOT
ATOM      1  O   UNL     1      32.475 -12.284 -28.122  0.00  0.00    -0.269 OA
ATOM      2  O   UNL     1      34.296 -12.905 -22.611  0.00  0.00    -0.268 OA
ATOM      3  N   UNL     1      33.570 -12.659 -24.804  0.00  0.00    -0.238 N 
ATOM      4  N   UNL     1      33.133 -10.971 -26.300  0.00  0.00    -0.288 N 
ATOM      5  C   UNL     1      33.583 -11.179 -24.929  0.00  0.00    +0.124 C 
ATOM      6  C   UNL     1      32.592 -10.524 -23.948  0.00  0.00    +0.038 C 
ATOM      7  C   UNL     1      35.007 -10.614 -24.755  0.00  0.00    +0.038 C 
ATOM      8  C   UNL     1      35.039  -9.085 -24.793  0.00  0.00    +0.003 C 
ATOM      9  C   UNL     1      32.646  -8.996 -23.992  0.00  0.00    +0.003 C 
ATOM     10  C   UNL     1      34.065  -8.476 -23.791  0.00  0.00    +0.000 C 
ATOM     11  C   UNL     1      33.151 -13.232 -25.993  0.00  0.00    +0.105 C 
ATOM     12  C   UNL     1      32.863 -12.154 -26.975  0.00  0.00    +0.260 C 
ATOM     13  C   UNL     1      33.919 -13.391 -23.676  0.00  0.00    +0.267 C 
ATOM     14  C   UNL     1      33.050 -14.561 -26.141  0.00  0.00    -0.002 C 
ATOM     15  C   UNL     1      33.813 -14.887 -23.823  0.00  0.00    +0.104 C 
ATOM     16  C   UNL     1      33.401 -15.389 -24.999  0.00  0.00    +0.016 C 
ATOM     17  C   UNL     1      32.613 -15.306 -27.366  0.00  0.00    +0.033 C 
ATOM     18  H   UNL     1      33.030 -10.080 -26.708  0.00  0.00    +0.151 HD
ENDROOT
BRANCH  15  19
ATOM     19  N   UNL     1      34.150 -15.630 -22.729  0.00  0.00    -0.298 N 
ATOM     20  N   UNL     1      33.766 -17.828 -23.517  0.00  0.00    -0.233 NA
ATOM     21  N   UNL     1      34.912 -19.680 -22.486  0.00  0.00    -0.234 NA
ATOM     22  C   UNL     1      34.401 -17.004 -22.656  0.00  0.00    +0.113 C 
ATOM     23  C   UNL     1      35.291 -17.438 -21.696  0.00  0.00    +0.121 C 
ATOM     24  C   UNL     1      35.511 -18.801 -21.656  0.00  0.00    +0.107 C 
ATOM     25  C   UNL     1      34.064 -19.134 -23.379  0.00  0.00    +0.252 C 
ATOM     26  H   UNL     1      34.228 -15.134 -21.882  0.00  0.00    +0.153 HD
ATOM     27  N   UNL     1      36.416 -19.287 -20.682  0.00  0.00    -0.346 N 
ATOM     28  H   UNL     1      36.602 -20.252 -20.619  0.00  0.00    +0.143 HD
ATOM     29  H   UNL     1      36.863 -18.659 -20.067  0.00  0.00    +0.143 HD
ENDBRANCH  15  19
TORSDOF 1
ENDMDL
MODEL 3
REMARK VINA RESULT:     -10.6     10.475     14.741
REMARK  Name = 118598754
REMARK  1 active torsions:
REMARK  status: ('A' for Active; 'I' for Inactive)
REMARK    1  A    between atoms: C_15  and  N_19
REMARK                            x       y       z     vdW  Elec       q    Type
REMARK                         _______ _______ _______ _____ _____    ______ ____
ROOT
ATOM      1  O   UNL     1      31.826  -8.945 -21.435  0.00  0.00    -0.269 OA
ATOM      2  O   UNL     1      33.782 -11.979 -26.022  0.00  0.00    -0.268 OA
ATOM      3  N   UNL     1      33.004 -10.773 -24.195  0.00  0.00    -0.238 N 
ATOM      4  N   UNL     1      32.806  -8.583 -23.529  0.00  0.00    -0.288 N 
ATOM      5  C   UNL     1      33.281  -9.386 -24.649  0.00  0.00    +0.124 C 
ATOM      6  C   UNL     1      34.791  -9.153 -24.855  0.00  0.00    +0.038 C 
ATOM      7  C   UNL     1      32.478  -9.040 -25.918  0.00  0.00    +0.038 C 
ATOM      8  C   UNL     1      32.808  -7.647 -26.459  0.00  0.00    +0.003 C 
ATOM      9  C   UNL     1      35.101  -7.761 -25.405  0.00  0.00    +0.003 C 
ATOM     10  C   UNL     1      34.306  -7.466 -26.674  0.00  0.00    +0.000 C 
ATOM     11  C   UNL     1      32.427 -10.754 -22.937  0.00  0.00    +0.105 C 
ATOM     12  C   UNL     1      32.290  -9.344 -22.488  0.00  0.00    +0.260 C 
ATOM     13  C   UNL     1      33.273 -11.937 -24.904  0.00  0.00    +0.267 C 
ATOM     14  C   UNL     1      32.080 -11.882 -22.301  0.00  0.00    -0.002 C 
ATOM     15  C   UNL     1      32.890 -13.216 -24.205  0.00  0.00    +0.104 C 
ATOM     16  C   UNL     1      32.333 -13.140 -22.984  0.00  0.00    +0.016 C 
ATOM     17  C   UNL     1      31.451 -12.002 -20.945  0.00  0.00    +0.033 C 
ATOM     18  H   UNL     1      32.846  -7.599 -23.511  0.00  0.00    +0.151 HD
ENDROOT
BRANCH  15  19
ATOM     19  N   UNL     1      33.143 -14.376 -24.879  0.00  0.00    -0.298 N 
ATOM     20  N   UNL     1      34.706 -15.422 -23.443  0.00  0.00    -0.233 NA
ATOM     21  N   UNL     1      34.972 -17.817 -23.514  0.00  0.00    -0.234 NA
ATOM     22  C   UNL     1      33.769 -15.535 -24.408  0.00  0.00    +0.113 C 
ATOM     23  C   UNL     1      33.386 -16.737 -24.968  0.00  0.00    +0.121 C 
ATOM     24  C   UNL     1      34.028 -17.856 -24.477  0.00  0.00    +0.107 C 
ATOM     25  C   UNL     1      35.258 -16.586 -23.048  0.00  0.00    +0.252 C 
ATOM     26  H   UNL     1      32.846 -14.399 -25.817  0.00  0.00    +0.153 HD
ATOM     27  N   UNL     1      33.664 -19.109 -25.028  0.00  0.00    -0.346 N 
ATOM     28  H   UNL     1      34.097 -19.933 -24.706  0.00  0.00    +0.143 HD
ATOM     29  H   UNL     1      32.978 -19.157 -25.733  0.00  0.00    +0.143 HD
ENDBRANCH  15  19
TORSDOF 1
ENDMDL
MODEL 4
REMARK VINA RESULT:     -10.5      7.572     11.174
REMARK  Name = 118598754
REMARK  1 active torsions:
REMARK  status: ('A' for Active; 'I' for Inactive)
REMARK    1  A    between atoms: C_15  and  N_19
REMARK                            x       y       z     vdW  Elec       q    Type
REMARK                         _______ _______ _______ _____ _____    ______ ____
ROOT
ATOM      1  O   UNL     1      33.730 -19.153 -26.111  0.00  0.00    -0.269 OA
ATOM      2  O   UNL     1      34.600 -15.333 -21.784  0.00  0.00    -0.268 OA
ATOM      3  N   UNL     1      34.254 -16.852 -23.508  0.00  0.00    -0.238 N 
ATOM      4  N   UNL     1      34.614 -19.078 -23.946  0.00  0.00    -0.288 N 
ATOM      5  C   UNL     1      34.810 -18.086 -22.896  0.00  0.00    +0.124 C 
ATOM      6  C   UNL     1      36.313 -17.935 -22.593  0.00  0.00    +0.038 C 
ATOM      7  C   UNL     1      34.019 -18.493 -21.637  0.00  0.00    +0.038 C 
ATOM      8  C   UNL     1      34.620 -19.713 -20.936  0.00  0.00    +0.003 C 
ATOM      9  C   UNL     1      36.895 -19.158 -21.883  0.00  0.00    +0.003 C 
ATOM     10  C   UNL     1      36.101 -19.514 -20.630  0.00  0.00    +0.000 C 
ATOM     11  C   UNL     1      33.789 -17.122 -24.783  0.00  0.00    +0.105 C 
ATOM     12  C   UNL     1      34.013 -18.560 -25.086  0.00  0.00    +0.260 C 
ATOM     13  C   UNL     1      34.195 -15.597 -22.915  0.00  0.00    +0.267 C 
ATOM     14  C   UNL     1      33.239 -16.172 -25.552  0.00  0.00    -0.002 C 
ATOM     15  C   UNL     1      33.580 -14.514 -23.764  0.00  0.00    +0.104 C 
ATOM     16  C   UNL     1      33.145 -14.833 -24.995  0.00  0.00    +0.016 C 
ATOM     17  C   UNL     1      32.698 -16.330 -26.942  0.00  0.00    +0.033 C 
ATOM     18  H   UNL     1      34.881 -20.022 -23.856  0.00  0.00    +0.151 HD
ENDROOT
BRANCH  15  19
ATOM     19  N   UNL     1      33.510 -13.271 -23.206  0.00  0.00    -0.298 N 
ATOM     20  N   UNL     1      33.770 -11.887 -25.108  0.00  0.00    -0.233 NA
ATOM     21  N   UNL     1      32.927  -9.630 -25.063  0.00  0.00    -0.234 NA
ATOM     22  C   UNL     1      33.318 -12.041 -23.845  0.00  0.00    +0.113 C 
ATOM     23  C   UNL     1      32.671 -11.050 -23.136  0.00  0.00    +0.121 C 
ATOM     24  C   UNL     1      32.502  -9.853 -23.802  0.00  0.00    +0.107 C 
ATOM     25  C   UNL     1      33.544 -10.674 -25.648  0.00  0.00    +0.252 C 
ATOM     26  H   UNL     1      33.606 -13.235 -22.227  0.00  0.00    +0.153 HD
ATOM     27  N   UNL     1      31.844  -8.808 -23.107  0.00  0.00    -0.346 N 
ATOM     28  H   UNL     1      31.702  -7.938 -23.545  0.00  0.00    +0.143 HD
ATOM     29  H   UNL     1      31.527  -8.953 -22.186  0.00  0.00    +0.143 HD
ENDBRANCH  15  19
TORSDOF 1
ENDMDL
MODEL 5
REMARK VINA RESULT:     -10.1      2.778      4.970
REMARK  Name = 118598754
REMARK  1 active torsions:
REMARK  status: ('A' for Active; 'I' for Inactive)
REMARK    1  A    between atoms: C_15  and  N_19
REMARK                            x       y       z     vdW  Elec       q    Type
REMARK                         _______ _______ _______ _____ _____    ______ ____
ROOT
ATOM      1  O   UNL     1      37.998 -22.157 -16.502  0.00  0.00    -0.269 OA
ATOM      2  O   UNL     1      33.144 -24.752 -14.562  0.00  0.00    -0.268 OA
ATOM      3  N   UNL     1      35.075 -23.717 -15.335  0.00  0.00    -0.238 N 
ATOM      4  N   UNL     1      37.266 -23.453 -14.697  0.00  0.00    -0.288 N 
ATOM      5  C   UNL     1      36.027 -24.083 -14.256  0.00  0.00    +0.124 C 
ATOM      6  C   UNL     1      35.594 -23.491 -12.900  0.00  0.00    +0.038 C 
ATOM      7  C   UNL     1      36.219 -25.610 -14.169  0.00  0.00    +0.038 C 
ATOM      8  C   UNL     1      37.129 -26.022 -13.010  0.00  0.00    +0.003 C 
ATOM      9  C   UNL     1      36.509 -23.921 -11.753  0.00  0.00    +0.003 C 
ATOM     10  C   UNL     1      36.652 -25.438 -11.685  0.00  0.00    +0.000 C 
ATOM     11  C   UNL     1      35.715 -22.953 -16.296  0.00  0.00    +0.105 C 
ATOM     12  C   UNL     1      37.137 -22.771 -15.900  0.00  0.00    +0.260 C 
ATOM     13  C   UNL     1      33.733 -24.073 -15.401  0.00  0.00    +0.267 C 
ATOM     14  C   UNL     1      35.073 -22.493 -17.378  0.00  0.00    -0.002 C 
ATOM     15  C   UNL     1      32.993 -23.566 -16.611  0.00  0.00    +0.104 C 
ATOM     16  C   UNL     1      33.665 -22.828 -17.512  0.00  0.00    +0.016 C 
ATOM     17  C   UNL     1      35.645 -21.661 -18.487  0.00  0.00    +0.033 C 
ATOM     18  H   UNL     1      38.111 -23.506 -14.194  0.00  0.00    +0.151 HD
ENDROOT
BRANCH  15  19
ATOM     19  N   UNL     1      31.673 -23.900 -16.701  0.00  0.00    -0.298 N 
ATOM     20  N   UNL     1      30.739 -22.603 -14.956  0.00  0.00    -0.233 NA
ATOM     21  N   UNL     1      28.404 -22.012 -15.030  0.00  0.00    -0.234 NA
ATOM     22  C   UNL     1      30.572 -23.256 -16.126  0.00  0.00    +0.113 C 
ATOM     23  C   UNL     1      29.369 -23.331 -16.797  0.00  0.00    +0.121 C 
ATOM     24  C   UNL     1      28.309 -22.684 -16.196  0.00  0.00    +0.107 C 
ATOM     25  C   UNL     1      29.630 -22.012 -14.472  0.00  0.00    +0.252 C 
ATOM     26  H   UNL     1      31.470 -24.697 -17.242  0.00  0.00    +0.153 HD
ATOM     27  N   UNL     1      27.055 -22.740 -16.853  0.00  0.00    -0.346 N 
ATOM     28  H   UNL     1      26.272 -22.291 -16.460  0.00  0.00    +0.143 HD
ATOM     29  H   UNL     1      26.966 -23.226 -17.705  0.00  0.00    +0.143 HD
ENDBRANCH  15  19
TORSDOF 1
ENDMDL
MODEL 6
REMARK VINA RESULT:     -10.0     10.727     14.344
REMARK  Name = 118598754
REMARK  1 active torsions:
REMARK  status: ('A' for Active; 'I' for Inactive)
REMARK    1  A    between atoms: C_15  and  N_19
REMARK                            x       y       z     vdW  Elec       q    Type
REMARK                         _______ _______ _______ _____ _____    ______ ____
ROOT
ATOM      1  O   UNL     1      30.730  -9.944 -18.980  0.00  0.00    -0.269 OA
ATOM      2  O   UNL     1      32.683 -10.600 -24.441  0.00  0.00    -0.268 OA
ATOM      3  N   UNL     1      31.907 -10.341 -22.267  0.00  0.00    -0.238 N 
ATOM      4  N   UNL     1      31.210  -8.653 -20.872  0.00  0.00    -0.288 N 
ATOM      5  C   UNL     1      31.702  -8.870 -22.227  0.00  0.00    +0.124 C 
ATOM      6  C   UNL     1      33.030  -8.113 -22.428  0.00  0.00    +0.038 C 
ATOM      7  C   UNL     1      30.637  -8.423 -23.248  0.00  0.00    +0.038 C 
ATOM      8  C   UNL     1      30.466  -6.903 -23.290  0.00  0.00    +0.003 C 
ATOM      9  C   UNL     1      32.839  -6.596 -22.478  0.00  0.00    +0.003 C 
ATOM     10  C   UNL     1      31.796  -6.193 -23.517  0.00  0.00    +0.000 C 
ATOM     11  C   UNL     1      31.563 -10.901 -21.049  0.00  0.00    +0.105 C 
ATOM     12  C   UNL     1      31.108  -9.824 -20.131  0.00  0.00    +0.260 C 
ATOM     13  C   UNL     1      32.373 -11.075 -23.350  0.00  0.00    +0.267 C 
ATOM     14  C   UNL     1      31.658 -12.220 -20.825  0.00  0.00    -0.002 C 
ATOM     15  C   UNL     1      32.487 -12.560 -23.118  0.00  0.00    +0.104 C 
ATOM     16  C   UNL     1      32.140 -13.050 -21.916  0.00  0.00    +0.016 C 
ATOM     17  C   UNL     1      31.320 -12.951 -19.560  0.00  0.00    +0.033 C 
ATOM     18  H   UNL     1      30.973  -7.766 -20.516  0.00  0.00    +0.151 HD
ENDROOT
BRANCH  15  19
ATOM     19  N   UNL     1      32.944 -13.305 -24.166  0.00  0.00    -0.298 N 
ATOM     20  N   UNL     1      34.318 -14.881 -23.058  0.00  0.00    -0.233 NA
ATOM     21  N   UNL     1      34.783 -17.001 -24.106  0.00  0.00    -0.234 NA
ATOM     22  C   UNL     1      33.571 -14.555 -24.135  0.00  0.00    +0.113 C 
ATOM     23  C   UNL     1      33.387 -15.387 -25.220  0.00  0.00    +0.121 C 
ATOM     24  C   UNL     1      34.023 -16.610 -25.150  0.00  0.00    +0.107 C 
ATOM     25  C   UNL     1      34.887 -16.102 -23.109  0.00  0.00    +0.252 C 
ATOM     26  H   UNL     1      32.813 -12.913 -25.059  0.00  0.00    +0.153 HD
ATOM     27  N   UNL     1      33.860 -17.492 -26.246  0.00  0.00    -0.346 N 
ATOM     28  H   UNL     1      34.296 -18.375 -26.238  0.00  0.00    +0.143 HD
ATOM     29  H   UNL     1      33.310 -17.223 -27.018  0.00  0.00    +0.143 HD
ENDBRANCH  15  19
TORSDOF 1
ENDMDL
