MODEL 1
REMARK VINA RESULT:     -12.6      0.000      0.000
REMARK  Name = 42627755
REMARK  2 active torsions:
REMARK  status: ('A' for Active; 'I' for Inactive)
REMARK    1  A    between atoms: N_5  and  C_20
REMARK    2  A    between atoms: C_7  and  C_28
REMARK                            x       y       z     vdW  Elec       q    Type
REMARK                         _______ _______ _______ _____ _____    ______ ____
ROOT
ATOM      1  N   UNL     1      36.996 -23.989 -15.466  0.00  0.00    -0.239 N 
ATOM      2  N   UNL     1      35.667 -23.879 -15.628  0.00  0.00    -0.166 NA
ATOM      3  N   UNL     1      33.816 -24.746 -14.293  0.00  0.00    -0.271 N 
ATOM      4  N   UNL     1      32.731 -23.582 -16.065  0.00  0.00    -0.322 NA
ATOM      5  N   UNL     1      31.622 -22.451 -17.789  0.00  0.00    -0.247 N 
ATOM      6  N   UNL     1      30.324 -23.514 -16.156  0.00  0.00    -0.170 NA
ATOM      7  C   UNL     1      37.359 -24.710 -14.367  0.00  0.00    +0.045 C 
ATOM      8  C   UNL     1      36.185 -25.098 -13.768  0.00  0.00    +0.048 C 
ATOM      9  C   UNL     1      35.176 -24.559 -14.588  0.00  0.00    +0.152 C 
ATOM     10  C   UNL     1      32.630 -24.319 -14.939  0.00  0.00    +0.199 C 
ATOM     11  C   UNL     1      31.429 -24.687 -14.370  0.00  0.00    +0.070 C 
ATOM     12  C   UNL     1      31.555 -23.219 -16.613  0.00  0.00    +0.150 C 
ATOM     13  C   UNL     1      30.297 -24.253 -15.028  0.00  0.00    +0.116 C 
ATOM     14  H   UNL     1      37.648 -23.585 -16.084  0.00  0.00    +0.174 HD
ATOM     15  H   UNL     1      33.656 -25.276 -13.480  0.00  0.00    +0.156 HD
ATOM     16  H   UNL     1      30.741 -22.208 -18.154  0.00  0.00    +0.165 HD
ENDROOT
BRANCH   5  20
ATOM     17  N   UNL     1      33.719 -19.626 -21.260  0.00  0.00    -0.315 N 
ATOM     18  N   UNL     1      35.769 -20.394 -20.876  0.00  0.00    -0.315 N 
ATOM     19  C   UNL     1      33.583 -20.542 -20.250  0.00  0.00    +0.060 C 
ATOM     20  C   UNL     1      32.709 -21.957 -18.548  0.00  0.00    +0.059 C 
ATOM     21  C   UNL     1      34.876 -21.008 -20.028  0.00  0.00    +0.059 C 
ATOM     22  C   UNL     1      32.473 -20.992 -19.533  0.00  0.00    +0.031 C 
ATOM     23  C   UNL     1      33.994 -22.443 -18.302  0.00  0.00    +0.017 C 
ATOM     24  C   UNL     1      35.093 -21.978 -19.035  0.00  0.00    +0.017 C 
ATOM     25  C   UNL     1      35.043 -19.573 -21.600  0.00  0.00    +0.182 C 
ATOM     26  H   UNL     1      32.994 -19.101 -21.669  0.00  0.00    +0.148 HD
ATOM     27  H   UNL     1      36.742 -20.538 -20.928  0.00  0.00    +0.148 HD
ENDBRANCH   5  20
BRANCH   7  28
ATOM     28  C   UNL     1      38.777 -25.017 -13.907  0.00  0.00    +0.037 C 
ATOM     29  C   UNL     1      39.871 -25.076 -14.931  0.00  0.00    +0.006 C 
ATOM     30  C   UNL     1      39.386 -26.338 -14.280  0.00  0.00    +0.006 C 
ENDBRANCH   7  28
TORSDOF 2
ENDMDL
MODEL 2
REMARK VINA RESULT:     -12.5      1.380      6.648
REMARK  Name = 42627755
REMARK  2 active torsions:
REMARK  status: ('A' for Active; 'I' for Inactive)
REMARK    1  A    between atoms: N_5  and  C_20
REMARK    2  A    between atoms: C_7  and  C_28
REMARK                            x       y       z     vdW  Elec       q    Type
REMARK                         _______ _______ _______ _____ _____    ______ ____
ROOT
ATOM      1  N   UNL     1      35.130 -21.654 -19.199  0.00  0.00    -0.239 N 
ATOM      2  N   UNL     1      34.450 -22.283 -18.226  0.00  0.00    -0.166 NA
ATOM      3  N   UNL     1      32.051 -22.453 -17.806  0.00  0.00    -0.271 N 
ATOM      4  N   UNL     1      33.020 -23.708 -16.030  0.00  0.00    -0.322 NA
ATOM      5  N   UNL     1      33.931 -24.952 -14.267  0.00  0.00    -0.247 N 
ATOM      6  N   UNL     1      31.600 -24.757 -14.390  0.00  0.00    -0.170 NA
ATOM      7  C   UNL     1      34.335 -21.004 -20.096  0.00  0.00    +0.045 C 
ATOM      8  C   UNL     1      33.044 -21.225 -19.681  0.00  0.00    +0.048 C 
ATOM      9  C   UNL     1      33.175 -22.016 -18.525  0.00  0.00    +0.152 C 
ATOM     10  C   UNL     1      31.910 -23.241 -16.638  0.00  0.00    +0.199 C 
ATOM     11  C   UNL     1      30.629 -23.486 -16.188  0.00  0.00    +0.070 C 
ATOM     12  C   UNL     1      32.795 -24.448 -14.927  0.00  0.00    +0.150 C 
ATOM     13  C   UNL     1      30.533 -24.257 -15.048  0.00  0.00    +0.116 C 
ATOM     14  H   UNL     1      36.113 -21.662 -19.259  0.00  0.00    +0.174 HD
ATOM     15  H   UNL     1      31.195 -22.153 -18.188  0.00  0.00    +0.156 HD
ATOM     16  H   UNL     1      33.719 -25.486 -13.468  0.00  0.00    +0.165 HD
ENDROOT
BRANCH   5  20
ATOM     17  N   UNL     1      38.604 -26.558 -14.305  0.00  0.00    -0.315 N 
ATOM     18  N   UNL     1      39.406 -24.698 -15.219  0.00  0.00    -0.315 N 
ATOM     19  C   UNL     1      37.518 -25.742 -14.484  0.00  0.00    +0.060 C 
ATOM     20  C   UNL     1      35.316 -24.841 -14.528  0.00  0.00    +0.059 C 
ATOM     21  C   UNL     1      38.044 -24.587 -15.056  0.00  0.00    +0.059 C 
ATOM     22  C   UNL     1      36.161 -25.908 -14.204  0.00  0.00    +0.031 C 
ATOM     23  C   UNL     1      35.814 -23.670 -15.102  0.00  0.00    +0.017 C 
ATOM     24  C   UNL     1      37.180 -23.525 -15.375  0.00  0.00    +0.017 C 
ATOM     25  C   UNL     1      39.708 -25.891 -14.758  0.00  0.00    +0.182 C 
ATOM     26  H   UNL     1      38.592 -27.464 -13.918  0.00  0.00    +0.148 HD
ATOM     27  H   UNL     1      40.021 -24.029 -15.599  0.00  0.00    +0.148 HD
ENDBRANCH   5  20
BRANCH   7  28
ATOM     28  C   UNL     1      34.793 -20.202 -21.307  0.00  0.00    +0.037 C 
ATOM     29  C   UNL     1      35.905 -19.210 -21.135  0.00  0.00    +0.006 C 
ATOM     30  C   UNL     1      34.499 -18.731 -21.349  0.00  0.00    +0.006 C 
ENDBRANCH   7  28
TORSDOF 2
ENDMDL
MODEL 3
REMARK VINA RESULT:     -12.2      1.741      5.741
REMARK  Name = 42627755
REMARK  2 active torsions:
REMARK  status: ('A' for Active; 'I' for Inactive)
REMARK    1  A    between atoms: N_5  and  C_20
REMARK    2  A    between atoms: C_7  and  C_28
REMARK                            x       y       z     vdW  Elec       q    Type
REMARK                         _______ _______ _______ _____ _____    ______ ____
ROOT
ATOM      1  N   UNL     1      30.543 -22.778 -17.082  0.00  0.00    -0.239 N 
ATOM      2  N   UNL     1      31.879 -22.760 -16.947  0.00  0.00    -0.166 NA
ATOM      3  N   UNL     1      33.323 -23.698 -15.215  0.00  0.00    -0.271 N 
ATOM      4  N   UNL     1      34.853 -22.674 -16.725  0.00  0.00    -0.322 NA
ATOM      5  N   UNL     1      36.393 -21.680 -18.183  0.00  0.00    -0.247 N 
ATOM      6  N   UNL     1      37.219 -22.767 -16.281  0.00  0.00    -0.170 NA
ATOM      7  C   UNL     1      29.895 -23.433 -16.076  0.00  0.00    +0.045 C 
ATOM      8  C   UNL     1      30.878 -23.874 -15.223  0.00  0.00    +0.048 C 
ATOM      9  C   UNL     1      32.078 -23.431 -15.808  0.00  0.00    +0.152 C 
ATOM     10  C   UNL     1      34.649 -23.373 -15.590  0.00  0.00    +0.199 C 
ATOM     11  C   UNL     1      35.666 -23.799 -14.760  0.00  0.00    +0.070 C 
ATOM     12  C   UNL     1      36.143 -22.408 -17.006  0.00  0.00    +0.150 C 
ATOM     13  C   UNL     1      36.943 -23.463 -15.158  0.00  0.00    +0.116 C 
ATOM     14  H   UNL     1      30.073 -22.358 -17.839  0.00  0.00    +0.174 HD
ATOM     15  H   UNL     1      33.261 -24.209 -14.377  0.00  0.00    +0.156 HD
ATOM     16  H   UNL     1      37.348 -21.510 -18.348  0.00  0.00    +0.165 HD
ENDROOT
BRANCH   5  20
ATOM     17  N   UNL     1      35.326 -18.868 -22.104  0.00  0.00    -0.315 N 
ATOM     18  N   UNL     1      33.187 -19.470 -22.157  0.00  0.00    -0.315 N 
ATOM     19  C   UNL     1      35.168 -19.746 -21.064  0.00  0.00    +0.060 C 
ATOM     20  C   UNL     1      35.539 -21.145 -19.175  0.00  0.00    +0.059 C 
ATOM     21  C   UNL     1      33.825 -20.108 -21.118  0.00  0.00    +0.059 C 
ATOM     22  C   UNL     1      36.057 -20.241 -20.109  0.00  0.00    +0.031 C 
ATOM     23  C   UNL     1      34.197 -21.526 -19.203  0.00  0.00    +0.017 C 
ATOM     24  C   UNL     1      33.322 -21.017 -20.171  0.00  0.00    +0.017 C 
ATOM     25  C   UNL     1      34.115 -18.734 -22.726  0.00  0.00    +0.182 C 
ATOM     26  H   UNL     1      36.161 -18.413 -22.358  0.00  0.00    +0.148 HD
ATOM     27  H   UNL     1      32.241 -19.547 -22.417  0.00  0.00    +0.148 HD
ENDBRANCH   5  20
BRANCH   7  28
ATOM     28  C   UNL     1      28.392 -23.628 -15.936  0.00  0.00    +0.037 C 
ATOM     29  C   UNL     1      27.495 -23.139 -17.034  0.00  0.00    +0.006 C 
ATOM     30  C   UNL     1      27.526 -22.422 -15.717  0.00  0.00    +0.006 C 
ENDBRANCH   7  28
TORSDOF 2
ENDMDL
MODEL 4
REMARK VINA RESULT:     -11.9      1.875      6.539
REMARK  Name = 42627755
REMARK  2 active torsions:
REMARK  status: ('A' for Active; 'I' for Inactive)
REMARK    1  A    between atoms: N_5  and  C_20
REMARK    2  A    between atoms: C_7  and  C_28
REMARK                            x       y       z     vdW  Elec       q    Type
REMARK                         _______ _______ _______ _____ _____    ______ ____
ROOT
ATOM      1  N   UNL     1      33.843 -21.846 -18.832  0.00  0.00    -0.239 N 
ATOM      2  N   UNL     1      34.181 -22.389 -17.651  0.00  0.00    -0.166 NA
ATOM      3  N   UNL     1      36.356 -22.644 -16.572  0.00  0.00    -0.271 N 
ATOM      4  N   UNL     1      34.841 -23.613 -15.012  0.00  0.00    -0.322 NA
ATOM      5  N   UNL     1      33.388 -24.577 -13.449  0.00  0.00    -0.247 N 
ATOM      6  N   UNL     1      35.674 -24.531 -12.946  0.00  0.00    -0.170 NA
ATOM      7  C   UNL     1      34.903 -21.360 -19.539  0.00  0.00    +0.045 C 
ATOM      8  C   UNL     1      36.012 -21.601 -18.764  0.00  0.00    +0.048 C 
ATOM      9  C   UNL     1      35.508 -22.237 -17.615  0.00  0.00    +0.152 C 
ATOM     10  C   UNL     1      36.110 -23.289 -15.336  0.00  0.00    +0.199 C 
ATOM     11  C   UNL     1      37.198 -23.550 -14.528  0.00  0.00    +0.070 C 
ATOM     12  C   UNL     1      34.698 -24.224 -13.820  0.00  0.00    +0.150 C 
ATOM     13  C   UNL     1      36.918 -24.179 -13.333  0.00  0.00    +0.116 C 
ATOM     14  H   UNL     1      32.914 -21.803 -19.158  0.00  0.00    +0.174 HD
ATOM     15  H   UNL     1      37.306 -22.441 -16.732  0.00  0.00    +0.156 HD
ATOM     16  H   UNL     1      33.330 -25.019 -12.572  0.00  0.00    +0.165 HD
ENDROOT
BRANCH   5  20
ATOM     17  N   UNL     1      30.288 -22.599 -16.750  0.00  0.00    -0.315 N 
ATOM     18  N   UNL     1      28.550 -23.818 -16.090  0.00  0.00    -0.315 N 
ATOM     19  C   UNL     1      30.758 -23.382 -15.729  0.00  0.00    +0.060 C 
ATOM     20  C   UNL     1      32.137 -24.419 -14.091  0.00  0.00    +0.059 C 
ATOM     21  C   UNL     1      29.655 -24.134 -15.333  0.00  0.00    +0.059 C 
ATOM     22  C   UNL     1      32.014 -23.494 -15.133  0.00  0.00    +0.031 C 
ATOM     23  C   UNL     1      31.050 -25.188 -13.672  0.00  0.00    +0.017 C 
ATOM     24  C   UNL     1      29.797 -25.058 -14.284  0.00  0.00    +0.017 C 
ATOM     25  C   UNL     1      28.964 -22.895 -16.928  0.00  0.00    +0.182 C 
ATOM     26  H   UNL     1      30.808 -21.940 -17.264  0.00  0.00    +0.148 HD
ATOM     27  H   UNL     1      27.646 -24.200 -16.019  0.00  0.00    +0.148 HD
ENDBRANCH   5  20
BRANCH   7  28
ATOM     28  C   UNL     1      34.857 -20.689 -20.905  0.00  0.00    +0.037 C 
ATOM     29  C   UNL     1      35.539 -19.364 -21.081  0.00  0.00    +0.006 C 
ATOM     30  C   UNL     1      34.040 -19.440 -21.066  0.00  0.00    +0.006 C 
ENDBRANCH   7  28
TORSDOF 2
ENDMDL
MODEL 5
REMARK VINA RESULT:     -11.0      1.883      7.567
REMARK  Name = 42627755
REMARK  2 active torsions:
REMARK  status: ('A' for Active; 'I' for Inactive)
REMARK    1  A    between atoms: N_5  and  C_20
REMARK    2  A    between atoms: C_7  and  C_28
REMARK                            x       y       z     vdW  Elec       q    Type
REMARK                         _______ _______ _______ _____ _____    ______ ____
ROOT
ATOM      1  N   UNL     1      31.396 -23.883 -15.298  0.00  0.00    -0.239 N 
ATOM      2  N   UNL     1      32.480 -23.448 -15.961  0.00  0.00    -0.166 NA
ATOM      3  N   UNL     1      32.691 -22.329 -18.120  0.00  0.00    -0.271 N 
ATOM      4  N   UNL     1      34.941 -22.510 -17.362  0.00  0.00    -0.322 NA
ATOM      5  N   UNL     1      37.168 -22.667 -16.656  0.00  0.00    -0.247 N 
ATOM      6  N   UNL     1      36.736 -21.654 -18.723  0.00  0.00    -0.170 NA
ATOM      7  C   UNL     1      30.221 -23.658 -15.953  0.00  0.00    +0.045 C 
ATOM      8  C   UNL     1      30.562 -23.029 -17.126  0.00  0.00    +0.048 C 
ATOM      9  C   UNL     1      31.965 -22.927 -17.078  0.00  0.00    +0.152 C 
ATOM     10  C   UNL     1      34.075 -22.104 -18.315  0.00  0.00    +0.199 C 
ATOM     11  C   UNL     1      34.459 -21.475 -19.481  0.00  0.00    +0.070 C 
ATOM     12  C   UNL     1      36.237 -22.257 -17.627  0.00  0.00    +0.150 C 
ATOM     13  C   UNL     1      35.816 -21.275 -19.634  0.00  0.00    +0.116 C 
ATOM     14  H   UNL     1      31.445 -24.325 -14.418  0.00  0.00    +0.174 HD
ATOM     15  H   UNL     1      32.128 -22.003 -18.859  0.00  0.00    +0.156 HD
ATOM     16  H   UNL     1      38.101 -22.461 -16.891  0.00  0.00    +0.165 HD
ENDROOT
BRANCH   5  20
ATOM     17  N   UNL     1      34.998 -23.521 -12.299  0.00  0.00    -0.315 N 
ATOM     18  N   UNL     1      36.443 -25.103 -11.707  0.00  0.00    -0.315 N 
ATOM     19  C   UNL     1      35.880 -23.620 -13.344  0.00  0.00    +0.060 C 
ATOM     20  C   UNL     1      37.024 -23.315 -15.408  0.00  0.00    +0.059 C 
ATOM     21  C   UNL     1      36.772 -24.614 -12.951  0.00  0.00    +0.059 C 
ATOM     22  C   UNL     1      35.972 -22.947 -14.562  0.00  0.00    +0.031 C 
ATOM     23  C   UNL     1      37.935 -24.307 -15.041  0.00  0.00    +0.017 C 
ATOM     24  C   UNL     1      37.823 -24.971 -13.813  0.00  0.00    +0.017 C 
ATOM     25  C   UNL     1      35.377 -24.425 -11.346  0.00  0.00    +0.182 C 
ATOM     26  H   UNL     1      34.230 -22.907 -12.244  0.00  0.00    +0.148 HD
ATOM     27  H   UNL     1      36.906 -25.807 -11.199  0.00  0.00    +0.148 HD
ENDBRANCH   5  20
BRANCH   7  28
ATOM     28  C   UNL     1      28.825 -24.029 -15.474  0.00  0.00    +0.037 C 
ATOM     29  C   UNL     1      27.764 -24.314 -16.496  0.00  0.00    +0.006 C 
ATOM     30  C   UNL     1      27.706 -23.051 -15.686  0.00  0.00    +0.006 C 
ENDBRANCH   7  28
TORSDOF 2
ENDMDL
MODEL 6
REMARK VINA RESULT:     -10.9      1.904      7.192
REMARK  Name = 42627755
REMARK  2 active torsions:
REMARK  status: ('A' for Active; 'I' for Inactive)
REMARK    1  A    between atoms: N_5  and  C_20
REMARK    2  A    between atoms: C_7  and  C_28
REMARK                            x       y       z     vdW  Elec       q    Type
REMARK                         _______ _______ _______ _____ _____    ______ ____
ROOT
ATOM      1  N   UNL     1      33.531 -20.850 -20.172  0.00  0.00    -0.239 N 
ATOM      2  N   UNL     1      34.019 -21.429 -19.062  0.00  0.00    -0.166 NA
ATOM      3  N   UNL     1      36.309 -21.635 -18.242  0.00  0.00    -0.271 N 
ATOM      4  N   UNL     1      35.016 -22.737 -16.574  0.00  0.00    -0.322 NA
ATOM      5  N   UNL     1      33.784 -23.831 -14.910  0.00  0.00    -0.247 N 
ATOM      6  N   UNL     1      36.109 -23.707 -14.658  0.00  0.00    -0.170 NA
ATOM      7  C   UNL     1      34.486 -20.287 -20.966  0.00  0.00    +0.045 C 
ATOM      8  C   UNL     1      35.683 -20.513 -20.330  0.00  0.00    +0.048 C 
ATOM      9  C   UNL     1      35.335 -21.221 -19.165  0.00  0.00    +0.152 C 
ATOM     10  C   UNL     1      36.228 -22.344 -17.019  0.00  0.00    +0.199 C 
ATOM     11  C   UNL     1      37.407 -22.591 -16.348  0.00  0.00    +0.070 C 
ATOM     12  C   UNL     1      35.030 -23.405 -15.404  0.00  0.00    +0.150 C 
ATOM     13  C   UNL     1      37.287 -23.284 -15.161  0.00  0.00    +0.116 C 
ATOM     14  H   UNL     1      32.571 -20.834 -20.392  0.00  0.00    +0.174 HD
ATOM     15  H   UNL     1      37.226 -21.384 -18.495  0.00  0.00    +0.156 HD
ATOM     16  H   UNL     1      33.842 -24.313 -14.053  0.00  0.00    +0.165 HD
ENDROOT
BRANCH   5  20
ATOM     17  N   UNL     1      28.917 -24.687 -14.904  0.00  0.00    -0.315 N 
ATOM     18  N   UNL     1      28.532 -23.439 -16.702  0.00  0.00    -0.315 N 
ATOM     19  C   UNL     1      30.141 -24.198 -15.279  0.00  0.00    +0.060 C 
ATOM     20  C   UNL     1      32.465 -23.701 -15.402  0.00  0.00    +0.059 C 
ATOM     21  C   UNL     1      29.875 -23.423 -16.403  0.00  0.00    +0.059 C 
ATOM     22  C   UNL     1      31.421 -24.363 -14.748  0.00  0.00    +0.031 C 
ATOM     23  C   UNL     1      32.230 -22.916 -16.532  0.00  0.00    +0.017 C 
ATOM     24  C   UNL     1      30.936 -22.764 -17.048  0.00  0.00    +0.017 C 
ATOM     25  C   UNL     1      27.988 -24.206 -15.785  0.00  0.00    +0.182 C 
ATOM     26  H   UNL     1      28.738 -25.279 -14.138  0.00  0.00    +0.148 HD
ATOM     27  H   UNL     1      28.078 -22.976 -17.443  0.00  0.00    +0.148 HD
ENDBRANCH   5  20
BRANCH   7  28
ATOM     28  C   UNL     1      34.262 -19.560 -22.284  0.00  0.00    +0.037 C 
ATOM     29  C   UNL     1      35.442 -18.949 -22.981  0.00  0.00    +0.006 C 
ATOM     30  C   UNL     1      34.422 -18.068 -22.320  0.00  0.00    +0.006 C 
ENDBRANCH   7  28
TORSDOF 2
ENDMDL
MODEL 7
REMARK VINA RESULT:     -10.9      6.392     12.319
REMARK  Name = 42627755
REMARK  2 active torsions:
REMARK  status: ('A' for Active; 'I' for Inactive)
REMARK    1  A    between atoms: N_5  and  C_20
REMARK    2  A    between atoms: C_7  and  C_28
REMARK                            x       y       z     vdW  Elec       q    Type
REMARK                         _______ _______ _______ _____ _____    ______ ____
ROOT
ATOM      1  N   UNL     1      32.513 -13.283 -20.874  0.00  0.00    -0.239 N 
ATOM      2  N   UNL     1      32.751 -13.732 -22.118  0.00  0.00    -0.166 NA
ATOM      3  N   UNL     1      32.377 -12.689 -24.293  0.00  0.00    -0.271 N 
ATOM      4  N   UNL     1      33.314 -14.808 -24.842  0.00  0.00    -0.322 NA
ATOM      5  N   UNL     1      34.233 -16.881 -25.428  0.00  0.00    -0.247 N 
ATOM      6  N   UNL     1      33.655 -15.405 -27.152  0.00  0.00    -0.170 NA
ATOM      7  C   UNL     1      31.969 -12.033 -20.834  0.00  0.00    +0.045 C 
ATOM      8  C   UNL     1      31.844 -11.637 -22.144  0.00  0.00    +0.048 C 
ATOM      9  C   UNL     1      32.340 -12.722 -22.889  0.00  0.00    +0.152 C 
ATOM     10  C   UNL     1      32.816 -13.625 -25.260  0.00  0.00    +0.199 C 
ATOM     11  C   UNL     1      32.709 -13.266 -26.587  0.00  0.00    +0.070 C 
ATOM     12  C   UNL     1      33.709 -15.638 -25.827  0.00  0.00    +0.150 C 
ATOM     13  C   UNL     1      33.147 -14.204 -27.499  0.00  0.00    +0.116 C 
ATOM     14  H   UNL     1      32.713 -13.808 -20.065  0.00  0.00    +0.174 HD
ATOM     15  H   UNL     1      32.030 -11.853 -24.679  0.00  0.00    +0.156 HD
ATOM     16  H   UNL     1      34.508 -17.454 -26.180  0.00  0.00    +0.165 HD
ENDROOT
BRANCH   5  20
ATOM     17  N   UNL     1      33.216 -20.006 -21.738  0.00  0.00    -0.315 N 
ATOM     18  N   UNL     1      34.897 -19.303 -20.464  0.00  0.00    -0.315 N 
ATOM     19  C   UNL     1      33.837 -19.023 -22.462  0.00  0.00    +0.060 C 
ATOM     20  C   UNL     1      34.442 -17.467 -24.158  0.00  0.00    +0.059 C 
ATOM     21  C   UNL     1      34.883 -18.599 -21.646  0.00  0.00    +0.059 C 
ATOM     22  C   UNL     1      33.583 -18.482 -23.723  0.00  0.00    +0.031 C 
ATOM     23  C   UNL     1      35.499 -17.021 -23.363  0.00  0.00    +0.017 C 
ATOM     24  C   UNL     1      35.736 -17.578 -22.100  0.00  0.00    +0.017 C 
ATOM     25  C   UNL     1      33.885 -20.136 -20.551  0.00  0.00    +0.182 C 
ATOM     26  H   UNL     1      32.429 -20.525 -22.019  0.00  0.00    +0.148 HD
ATOM     27  H   UNL     1      35.528 -19.204 -19.715  0.00  0.00    +0.148 HD
ENDBRANCH   5  20
BRANCH   7  28
ATOM     28  C   UNL     1      31.584 -11.247 -19.589  0.00  0.00    +0.037 C 
ATOM     29  C   UNL     1      30.562 -10.155 -19.712  0.00  0.00    +0.006 C 
ATOM     30  C   UNL     1      32.004  -9.809 -19.485  0.00  0.00    +0.006 C 
ENDBRANCH   7  28
TORSDOF 2
ENDMDL
MODEL 8
REMARK VINA RESULT:      -9.7      8.501     13.301
REMARK  Name = 42627755
REMARK  2 active torsions:
REMARK  status: ('A' for Active; 'I' for Inactive)
REMARK    1  A    between atoms: N_5  and  C_20
REMARK    2  A    between atoms: C_7  and  C_28
REMARK                            x       y       z     vdW  Elec       q    Type
REMARK                         _______ _______ _______ _____ _____    ______ ____
ROOT
ATOM      1  N   UNL     1      34.137 -14.727 -21.495  0.00  0.00    -0.239 N 
ATOM      2  N   UNL     1      33.811 -13.907 -22.508  0.00  0.00    -0.166 NA
ATOM      3  N   UNL     1      33.866 -14.249 -24.924  0.00  0.00    -0.271 N 
ATOM      4  N   UNL     1      33.064 -12.019 -24.693  0.00  0.00    -0.322 NA
ATOM      5  N   UNL     1      32.273  -9.822 -24.512  0.00  0.00    -0.247 N 
ATOM      6  N   UNL     1      32.539 -10.725 -26.657  0.00  0.00    -0.170 NA
ATOM      7  C   UNL     1      34.571 -15.956 -21.899  0.00  0.00    +0.045 C 
ATOM      8  C   UNL     1      34.525 -15.936 -23.272  0.00  0.00    +0.048 C 
ATOM      9  C   UNL     1      34.051 -14.650 -23.591  0.00  0.00    +0.152 C 
ATOM     10  C   UNL     1      33.412 -13.040 -25.504  0.00  0.00    +0.199 C 
ATOM     11  C   UNL     1      33.350 -12.979 -26.881  0.00  0.00    +0.070 C 
ATOM     12  C   UNL     1      32.643 -10.907 -25.327  0.00  0.00    +0.150 C 
ATOM     13  C   UNL     1      32.903 -11.785 -27.408  0.00  0.00    +0.116 C 
ATOM     14  H   UNL     1      34.068 -14.467 -20.548  0.00  0.00    +0.174 HD
ATOM     15  H   UNL     1      34.098 -14.942 -25.583  0.00  0.00    +0.156 HD
ATOM     16  H   UNL     1      31.972  -9.033 -25.018  0.00  0.00    +0.165 HD
ENDROOT
BRANCH   5  20
ATOM     17  N   UNL     1      31.224 -11.145 -19.868  0.00  0.00    -0.315 N 
ATOM     18  N   UNL     1      32.083  -9.299 -18.977  0.00  0.00    -0.315 N 
ATOM     19  C   UNL     1      31.683 -10.407 -20.928  0.00  0.00    +0.060 C 
ATOM     20  C   UNL     1      32.248  -9.645 -23.110  0.00  0.00    +0.059 C 
ATOM     21  C   UNL     1      32.215  -9.260 -20.346  0.00  0.00    +0.059 C 
ATOM     22  C   UNL     1      31.680 -10.637 -22.304  0.00  0.00    +0.031 C 
ATOM     23  C   UNL     1      32.790  -8.483 -22.556  0.00  0.00    +0.017 C 
ATOM     24  C   UNL     1      32.782  -8.274 -21.171  0.00  0.00    +0.017 C 
ATOM     25  C   UNL     1      31.485 -10.441 -18.725  0.00  0.00    +0.182 C 
ATOM     26  H   UNL     1      30.784 -12.024 -19.920  0.00  0.00    +0.148 HD
ATOM     27  H   UNL     1      32.374  -8.619 -18.327  0.00  0.00    +0.148 HD
ENDBRANCH   5  20
BRANCH   7  28
ATOM     28  C   UNL     1      35.014 -17.105 -21.005  0.00  0.00    +0.037 C 
ATOM     29  C   UNL     1      35.752 -18.256 -21.622  0.00  0.00    +0.006 C 
ATOM     30  C   UNL     1      34.337 -18.436 -21.154  0.00  0.00    +0.006 C 
ENDBRANCH   7  28
TORSDOF 2
ENDMDL
MODEL 9
REMARK VINA RESULT:      -9.6      6.586     12.734
REMARK  Name = 42627755
REMARK  2 active torsions:
REMARK  status: ('A' for Active; 'I' for Inactive)
REMARK    1  A    between atoms: N_5  and  C_20
REMARK    2  A    between atoms: C_7  and  C_28
REMARK                            x       y       z     vdW  Elec       q    Type
REMARK                         _______ _______ _______ _____ _____    ______ ____
ROOT
ATOM      1  N   UNL     1      34.204 -12.661 -23.713  0.00  0.00    -0.239 N 
ATOM      2  N   UNL     1      33.719 -13.720 -24.384  0.00  0.00    -0.166 NA
ATOM      3  N   UNL     1      32.380 -13.844 -26.421  0.00  0.00    -0.271 N 
ATOM      4  N   UNL     1      32.683 -16.125 -25.810  0.00  0.00    -0.322 NA
ATOM      5  N   UNL     1      32.955 -18.382 -25.246  0.00  0.00    -0.247 N 
ATOM      6  N   UNL     1      31.719 -17.868 -27.168  0.00  0.00    -0.170 NA
ATOM      7  C   UNL     1      33.887 -11.460 -24.275  0.00  0.00    +0.045 C 
ATOM      8  C   UNL     1      33.143 -11.754 -25.392  0.00  0.00    +0.048 C 
ATOM      9  C   UNL     1      33.071 -13.159 -25.409  0.00  0.00    +0.152 C 
ATOM     10  C   UNL     1      32.161 -15.222 -26.665  0.00  0.00    +0.199 C 
ATOM     11  C   UNL     1      31.419 -15.560 -27.778  0.00  0.00    +0.070 C 
ATOM     12  C   UNL     1      32.427 -17.412 -26.117  0.00  0.00    +0.150 C 
ATOM     13  C   UNL     1      31.227 -16.910 -27.982  0.00  0.00    +0.116 C 
ATOM     14  H   UNL     1      34.740 -12.745 -22.891  0.00  0.00    +0.174 HD
ATOM     15  H   UNL     1      31.968 -13.252 -27.091  0.00  0.00    +0.156 HD
ATOM     16  H   UNL     1      32.744 -19.307 -25.510  0.00  0.00    +0.165 HD
ENDROOT
BRANCH   5  20
ATOM     17  N   UNL     1      35.093 -20.160 -21.161  0.00  0.00    -0.315 N 
ATOM     18  N   UNL     1      35.975 -18.205 -20.578  0.00  0.00    -0.315 N 
ATOM     19  C   UNL     1      34.703 -19.278 -22.135  0.00  0.00    +0.060 C 
ATOM     20  C   UNL     1      33.731 -18.288 -24.068  0.00  0.00    +0.059 C 
ATOM     21  C   UNL     1      35.266 -18.064 -21.748  0.00  0.00    +0.059 C 
ATOM     22  C   UNL     1      33.930 -19.431 -23.286  0.00  0.00    +0.031 C 
ATOM     23  C   UNL     1      34.282 -17.057 -23.707  0.00  0.00    +0.017 C 
ATOM     24  C   UNL     1      35.056 -16.927 -22.546  0.00  0.00    +0.017 C 
ATOM     25  C   UNL     1      35.850 -19.472 -20.253  0.00  0.00    +0.182 C 
ATOM     26  H   UNL     1      34.869 -21.117 -21.122  0.00  0.00    +0.148 HD
ATOM     27  H   UNL     1      36.469 -17.507 -20.089  0.00  0.00    +0.148 HD
ENDBRANCH   5  20
BRANCH   7  28
ATOM     28  C   UNL     1      34.281 -10.081 -23.763  0.00  0.00    +0.037 C 
ATOM     29  C   UNL     1      33.952  -8.880 -24.598  0.00  0.00    +0.006 C 
ATOM     30  C   UNL     1      35.376  -9.336 -24.468  0.00  0.00    +0.006 C 
ENDBRANCH   7  28
TORSDOF 2
ENDMDL
