MODEL 1
REMARK VINA RESULT:     -12.4      0.000      0.000
REMARK  Name = 11677589
REMARK  7 active torsions:
REMARK  status: ('A' for Active; 'I' for Inactive)
REMARK    1  A    between atoms: C_1  and  N_7
REMARK    2  A    between atoms: C_2  and  C_20
REMARK    3  A    between atoms: C_11  and  C_18
REMARK    4  A    between atoms: C_20  and  C_21
REMARK    5  A    between atoms: C_21  and  N_23
REMARK    6  A    between atoms: N_24  and  S_28
REMARK    7  A    between atoms: S_28  and  C_31
REMARK                            x       y       z     vdW  Elec       q    Type
REMARK                         _______ _______ _______ _____ _____    ______ ____
ROOT
ATOM      1  C   UNL     1      33.224 -12.222 -24.468  0.00  0.00    +0.058 C 
ATOM      2  C   UNL     1      33.051 -14.838 -25.383  0.00  0.00    -0.020 C 
ATOM      3  C   UNL     1      33.549 -13.269 -23.615  0.00  0.00    +0.015 C 
ATOM      4  C   UNL     1      32.814 -12.466 -25.772  0.00  0.00    +0.015 C 
ATOM      5  C   UNL     1      33.461 -14.583 -24.075  0.00  0.00    -0.003 C 
ATOM      6  C   UNL     1      32.726 -13.780 -26.232  0.00  0.00    -0.003 C 
ENDROOT
BRANCH   1   7
ATOM      7  N   UNL     1      33.311 -10.907 -24.008  0.00  0.00    -0.242 N 
ATOM      8  N   UNL     1      33.983  -8.793 -23.864  0.00  0.00    -0.387 NA
ATOM      9  N   UNL     1      31.541  -8.687 -21.080  0.00  0.00    -0.408 NA
ATOM     10  C   UNL     1      32.593 -10.365 -22.974  0.00  0.00    +0.091 C 
ATOM     11  C   UNL     1      34.126  -9.930 -24.508  0.00  0.00    +0.168 C 
ATOM     12  C   UNL     1      33.031  -9.046 -22.904  0.00  0.00    +0.172 C 
ATOM     13  C   UNL     1      31.633 -10.892 -22.121  0.00  0.00    +0.045 C 
ATOM     14  C   UNL     1      32.481  -8.209 -21.933  0.00  0.00    +0.140 C 
ATOM     15  C   UNL     1      31.150  -9.981 -21.192  0.00  0.00    +0.110 C 
ATOM     16  C   UNL     1      32.875  -6.781 -21.768  0.00  0.00    +0.069 C 
ATOM     17  C   UNL     1      30.111 -10.437 -20.221  0.00  0.00    +0.066 C 
BRANCH  11  18
ATOM     18  C   UNL     1      35.049 -10.162 -25.640  0.00  0.00    +0.075 C 
ATOM     19  C   UNL     1      35.147  -8.956 -26.579  0.00  0.00    +0.009 C 
ENDBRANCH  11  18
ENDBRANCH   1   7
BRANCH   2  20
ATOM     20  C   UNL     1      32.957 -16.244 -25.874  0.00  0.00    +0.048 C 
BRANCH  20  21
ATOM     21  C   UNL     1      34.302 -16.979 -25.888  0.00  0.00    +0.096 C 
BRANCH  21  23
ATOM     22  O   UNL     1      35.702 -16.555 -23.416  0.00  0.00    -0.251 OA
ATOM     23  N   UNL     1      34.430 -17.906 -24.797  0.00  0.00    -0.287 N 
ATOM     24  N   UNL     1      35.117 -18.700 -22.699  0.00  0.00    -0.169 N 
ATOM     25  C   UNL     1      35.127 -17.617 -23.635  0.00  0.00    +0.319 C 
ATOM     26  H   UNL     1      34.002 -18.789 -24.879  0.00  0.00    +0.151 HD
ATOM     27  H   UNL     1      34.634 -19.518 -22.959  0.00  0.00    +0.178 HD
BRANCH  24  28
ATOM     28  S   UNL     1      35.875 -18.691 -21.167  0.00  0.00    +0.077 S 
ATOM     29  O   UNL     1      37.272 -19.047 -21.320  0.00  0.00    -0.150 OA
ATOM     30  O   UNL     1      35.497 -17.486 -20.453  0.00  0.00    -0.150 OA
BRANCH  28  31
ATOM     31  C   UNL     1      35.048 -20.035 -20.372  0.00  0.00    +0.125 C 
ATOM     32  C   UNL     1      35.790 -20.954 -19.650  0.00  0.00    +0.020 C 
ATOM     33  C   UNL     1      33.673 -20.145 -20.486  0.00  0.00    +0.020 C 
ATOM     34  C   UNL     1      33.752 -22.141 -19.127  0.00  0.00    -0.022 C 
ATOM     35  C   UNL     1      35.136 -22.015 -19.022  0.00  0.00    -0.003 C 
ATOM     36  C   UNL     1      33.019 -21.206 -19.858  0.00  0.00    -0.003 C 
ATOM     37  C   UNL     1      33.054 -23.274 -18.455  0.00  0.00    +0.031 C 
ENDBRANCH  28  31
ENDBRANCH  24  28
ENDBRANCH  21  23
ENDBRANCH  20  21
ENDBRANCH   2  20
TORSDOF 7
ENDMDL
MODEL 2
REMARK VINA RESULT:     -12.3      3.982     12.136
REMARK  Name = 11677589
REMARK  7 active torsions:
REMARK  status: ('A' for Active; 'I' for Inactive)
REMARK    1  A    between atoms: C_1  and  N_7
REMARK    2  A    between atoms: C_2  and  C_20
REMARK    3  A    between atoms: C_11  and  C_18
REMARK    4  A    between atoms: C_20  and  C_21
REMARK    5  A    between atoms: C_21  and  N_23
REMARK    6  A    between atoms: N_24  and  S_28
REMARK    7  A    between atoms: S_28  and  C_31
REMARK                            x       y       z     vdW  Elec       q    Type
REMARK                         _______ _______ _______ _____ _____    ______ ____
ROOT
ATOM      1  C   UNL     1      34.128 -22.763 -17.292  0.00  0.00    +0.058 C 
ATOM      2  C   UNL     1      35.403 -21.577 -19.455  0.00  0.00    -0.020 C 
ATOM      3  C   UNL     1      35.417 -22.269 -17.140  0.00  0.00    +0.015 C 
ATOM      4  C   UNL     1      33.468 -22.672 -18.511  0.00  0.00    +0.015 C 
ATOM      5  C   UNL     1      36.057 -21.674 -18.227  0.00  0.00    -0.003 C 
ATOM      6  C   UNL     1      34.108 -22.077 -19.597  0.00  0.00    -0.003 C 
ENDROOT
BRANCH   1   7
ATOM      7  N   UNL     1      33.486 -23.359 -16.206  0.00  0.00    -0.242 N 
ATOM      8  N   UNL     1      33.219 -24.478 -14.303  0.00  0.00    -0.387 NA
ATOM      9  N   UNL     1      29.633 -23.800 -14.940  0.00  0.00    -0.408 NA
ATOM     10  C   UNL     1      32.134 -23.382 -15.981  0.00  0.00    +0.091 C 
ATOM     11  C   UNL     1      34.091 -24.026 -15.176  0.00  0.00    +0.168 C 
ATOM     12  C   UNL     1      31.994 -24.086 -14.788  0.00  0.00    +0.172 C 
ATOM     13  C   UNL     1      31.056 -22.869 -16.689  0.00  0.00    +0.045 C 
ATOM     14  C   UNL     1      30.712 -24.286 -14.276  0.00  0.00    +0.140 C 
ATOM     15  C   UNL     1      29.827 -23.122 -16.098  0.00  0.00    +0.110 C 
ATOM     16  C   UNL     1      30.445 -25.024 -13.008  0.00  0.00    +0.069 C 
ATOM     17  C   UNL     1      28.594 -22.616 -16.773  0.00  0.00    +0.066 C 
BRANCH  11  18
ATOM     18  C   UNL     1      35.557 -24.199 -15.091  0.00  0.00    +0.075 C 
ATOM     19  C   UNL     1      35.977 -25.672 -15.065  0.00  0.00    +0.009 C 
ENDBRANCH  11  18
ENDBRANCH   1   7
BRANCH   2  20
ATOM     20  C   UNL     1      36.089 -20.941 -20.617  0.00  0.00    +0.048 C 
BRANCH  20  21
ATOM     21  C   UNL     1      36.063 -19.408 -20.579  0.00  0.00    +0.096 C 
BRANCH  21  23
ATOM     22  O   UNL     1      33.760 -18.814 -22.190  0.00  0.00    -0.251 OA
ATOM     23  N   UNL     1      36.055 -18.830 -21.896  0.00  0.00    -0.287 N 
ATOM     24  N   UNL     1      35.141 -18.004 -23.892  0.00  0.00    -0.169 N 
ATOM     25  C   UNL     1      34.891 -18.576 -22.604  0.00  0.00    +0.319 C 
ATOM     26  H   UNL     1      36.917 -18.604 -22.314  0.00  0.00    +0.151 HD
ATOM     27  H   UNL     1      36.080 -17.851 -24.144  0.00  0.00    +0.178 HD
BRANCH  24  28
ATOM     28  S   UNL     1      33.942 -17.565 -25.029  0.00  0.00    +0.077 S 
ATOM     29  O   UNL     1      34.476 -17.707 -26.370  0.00  0.00    -0.150 OA
ATOM     30  O   UNL     1      32.686 -18.195 -24.667  0.00  0.00    -0.150 OA
BRANCH  28  31
ATOM     31  C   UNL     1      33.766 -15.840 -24.686  0.00  0.00    +0.125 C 
ATOM     32  C   UNL     1      33.159 -15.023 -25.623  0.00  0.00    +0.020 C 
ATOM     33  C   UNL     1      34.238 -15.338 -23.485  0.00  0.00    +0.020 C 
ATOM     34  C   UNL     1      33.489 -13.139 -24.147  0.00  0.00    -0.022 C 
ATOM     35  C   UNL     1      33.019 -13.661 -25.352  0.00  0.00    -0.003 C 
ATOM     36  C   UNL     1      34.099 -13.977 -23.214  0.00  0.00    -0.003 C 
ATOM     37  C   UNL     1      33.339 -11.684 -23.857  0.00  0.00    +0.031 C 
ENDBRANCH  28  31
ENDBRANCH  24  28
ENDBRANCH  21  23
ENDBRANCH  20  21
ENDBRANCH   2  20
TORSDOF 7
ENDMDL
MODEL 3
REMARK VINA RESULT:     -12.0      2.864      4.635
REMARK  Name = 11677589
REMARK  7 active torsions:
REMARK  status: ('A' for Active; 'I' for Inactive)
REMARK    1  A    between atoms: C_1  and  N_7
REMARK    2  A    between atoms: C_2  and  C_20
REMARK    3  A    between atoms: C_11  and  C_18
REMARK    4  A    between atoms: C_20  and  C_21
REMARK    5  A    between atoms: C_21  and  N_23
REMARK    6  A    between atoms: N_24  and  S_28
REMARK    7  A    between atoms: S_28  and  C_31
REMARK                            x       y       z     vdW  Elec       q    Type
REMARK                         _______ _______ _______ _____ _____    ______ ____
ROOT
ATOM      1  C   UNL     1      33.494 -13.519 -22.690  0.00  0.00    +0.058 C 
ATOM      2  C   UNL     1      34.584 -16.053 -22.379  0.00  0.00    -0.020 C 
ATOM      3  C   UNL     1      33.532 -14.386 -23.775  0.00  0.00    +0.015 C 
ATOM      4  C   UNL     1      33.993 -13.902 -21.453  0.00  0.00    +0.015 C 
ATOM      5  C   UNL     1      34.080 -15.659 -23.618  0.00  0.00    -0.003 C 
ATOM      6  C   UNL     1      34.542 -15.175 -21.296  0.00  0.00    -0.003 C 
ENDROOT
BRANCH   1   7
ATOM      7  N   UNL     1      32.946 -12.245 -22.846  0.00  0.00    -0.242 N 
ATOM      8  N   UNL     1      31.662 -10.470 -22.464  0.00  0.00    -0.387 NA
ATOM      9  N   UNL     1      33.465  -9.107 -25.399  0.00  0.00    -0.408 NA
ATOM     10  C   UNL     1      33.288 -11.331 -23.809  0.00  0.00    +0.091 C 
ATOM     11  C   UNL     1      31.972 -11.684 -22.067  0.00  0.00    +0.168 C 
ATOM     12  C   UNL     1      32.473 -10.233 -23.549  0.00  0.00    +0.172 C 
ATOM     13  C   UNL     1      34.205 -11.366 -24.850  0.00  0.00    +0.045 C 
ATOM     14  C   UNL     1      32.580  -9.112 -24.371  0.00  0.00    +0.140 C 
ATOM     15  C   UNL     1      34.234 -10.203 -25.608  0.00  0.00    +0.110 C 
ATOM     16  C   UNL     1      31.758  -7.881 -24.185  0.00  0.00    +0.069 C 
ATOM     17  C   UNL     1      35.186 -10.126 -26.758  0.00  0.00    +0.066 C 
BRANCH  11  18
ATOM     18  C   UNL     1      31.361 -12.392 -20.921  0.00  0.00    +0.075 C 
ATOM     19  C   UNL     1      31.570 -11.656 -19.593  0.00  0.00    +0.009 C 
ENDBRANCH  11  18
ENDBRANCH   1   7
BRANCH   2  20
ATOM     20  C   UNL     1      35.171 -17.415 -22.213  0.00  0.00    +0.048 C 
BRANCH  20  21
ATOM     21  C   UNL     1      34.120 -18.523 -22.080  0.00  0.00    +0.096 C 
BRANCH  21  23
ATOM     22  O   UNL     1      32.415 -20.539 -20.949  0.00  0.00    -0.251 OA
ATOM     23  N   UNL     1      34.475 -19.495 -21.082  0.00  0.00    -0.287 N 
ATOM     24  N   UNL     1      34.170 -21.290 -19.601  0.00  0.00    -0.169 N 
ATOM     25  C   UNL     1      33.584 -20.436 -20.590  0.00  0.00    +0.319 C 
ATOM     26  H   UNL     1      35.394 -19.492 -20.730  0.00  0.00    +0.151 HD
ATOM     27  H   UNL     1      35.114 -21.133 -19.372  0.00  0.00    +0.178 HD
BRANCH  24  28
ATOM     28  S   UNL     1      33.363 -22.557 -18.787  0.00  0.00    +0.077 S 
ATOM     29  O   UNL     1      32.056 -22.098 -18.359  0.00  0.00    -0.150 OA
ATOM     30  O   UNL     1      33.499 -23.782 -19.552  0.00  0.00    -0.150 OA
BRANCH  28  31
ATOM     31  C   UNL     1      34.379 -22.738 -17.352  0.00  0.00    +0.125 C 
ATOM     32  C   UNL     1      35.658 -22.207 -17.357  0.00  0.00    +0.020 C 
ATOM     33  C   UNL     1      33.879 -23.407 -16.249  0.00  0.00    +0.020 C 
ATOM     34  C   UNL     1      35.971 -23.020 -15.104  0.00  0.00    -0.022 C 
ATOM     35  C   UNL     1      36.459 -22.349 -16.224  0.00  0.00    -0.003 C 
ATOM     36  C   UNL     1      34.680 -23.549 -15.116  0.00  0.00    -0.003 C 
ATOM     37  C   UNL     1      36.827 -23.171 -13.893  0.00  0.00    +0.031 C 
ENDBRANCH  28  31
ENDBRANCH  24  28
ENDBRANCH  21  23
ENDBRANCH  20  21
ENDBRANCH   2  20
TORSDOF 7
ENDMDL
MODEL 4
REMARK VINA RESULT:     -11.9      3.033      4.307
REMARK  Name = 11677589
REMARK  7 active torsions:
REMARK  status: ('A' for Active; 'I' for Inactive)
REMARK    1  A    between atoms: C_1  and  N_7
REMARK    2  A    between atoms: C_2  and  C_20
REMARK    3  A    between atoms: C_11  and  C_18
REMARK    4  A    between atoms: C_20  and  C_21
REMARK    5  A    between atoms: C_21  and  N_23
REMARK    6  A    between atoms: N_24  and  S_28
REMARK    7  A    between atoms: S_28  and  C_31
REMARK                            x       y       z     vdW  Elec       q    Type
REMARK                         _______ _______ _______ _____ _____    ______ ____
ROOT
ATOM      1  C   UNL     1      33.188  -8.808 -24.328  0.00  0.00    +0.058 C 
ATOM      2  C   UNL     1      33.959 -10.611 -26.294  0.00  0.00    -0.020 C 
ATOM      3  C   UNL     1      34.502  -9.258 -24.368  0.00  0.00    +0.015 C 
ATOM      4  C   UNL     1      32.255  -9.248 -25.258  0.00  0.00    +0.015 C 
ATOM      5  C   UNL     1      34.889 -10.164 -25.355  0.00  0.00    -0.003 C 
ATOM      6  C   UNL     1      32.642 -10.154 -26.245  0.00  0.00    -0.003 C 
ENDROOT
BRANCH   1   7
ATOM      7  N   UNL     1      32.800  -7.902 -23.340  0.00  0.00    -0.242 N 
ATOM      8  N   UNL     1      32.329  -5.960 -22.366  0.00  0.00    -0.387 NA
ATOM      9  N   UNL     1      31.601  -8.123 -19.448  0.00  0.00    -0.408 NA
ATOM     10  C   UNL     1      32.426  -8.216 -22.059  0.00  0.00    +0.091 C 
ATOM     11  C   UNL     1      32.726  -6.543 -23.475  0.00  0.00    +0.168 C 
ATOM     12  C   UNL     1      32.137  -6.988 -21.473  0.00  0.00    +0.172 C 
ATOM     13  C   UNL     1      32.318  -9.424 -21.383  0.00  0.00    +0.045 C 
ATOM     14  C   UNL     1      31.719  -6.964 -20.142  0.00  0.00    +0.140 C 
ATOM     15  C   UNL     1      31.895  -9.292 -20.068  0.00  0.00    +0.110 C 
ATOM     16  C   UNL     1      31.383  -5.706 -19.414  0.00  0.00    +0.069 C 
ATOM     17  C   UNL     1      31.743 -10.528 -19.241  0.00  0.00    +0.066 C 
BRANCH  11  18
ATOM     18  C   UNL     1      33.061  -5.848 -24.736  0.00  0.00    +0.075 C 
ATOM     19  C   UNL     1      31.824  -5.526 -25.580  0.00  0.00    +0.009 C 
ENDBRANCH  11  18
ENDBRANCH   1   7
BRANCH   2  20
ATOM     20  C   UNL     1      34.373 -11.581 -27.349  0.00  0.00    +0.048 C 
BRANCH  20  21
ATOM     21  C   UNL     1      33.334 -12.676 -27.617  0.00  0.00    +0.096 C 
BRANCH  21  23
ATOM     22  O   UNL     1      32.987 -15.502 -27.999  0.00  0.00    -0.251 OA
ATOM     23  N   UNL     1      33.338 -13.693 -26.600  0.00  0.00    -0.287 N 
ATOM     24  N   UNL     1      33.199 -15.854 -25.699  0.00  0.00    -0.169 N 
ATOM     25  C   UNL     1      33.162 -15.039 -26.875  0.00  0.00    +0.319 C 
ATOM     26  H   UNL     1      33.470 -13.419 -25.664  0.00  0.00    +0.151 HD
ATOM     27  H   UNL     1      33.340 -15.398 -24.838  0.00  0.00    +0.178 HD
BRANCH  24  28
ATOM     28  S   UNL     1      33.018 -17.554 -25.667  0.00  0.00    +0.077 S 
ATOM     29  O   UNL     1      31.621 -17.884 -25.463  0.00  0.00    -0.150 OA
ATOM     30  O   UNL     1      33.759 -18.135 -26.770  0.00  0.00    -0.150 OA
BRANCH  28  31
ATOM     31  C   UNL     1      33.900 -17.960 -24.190  0.00  0.00    +0.125 C 
ATOM     32  C   UNL     1      34.604 -16.968 -23.527  0.00  0.00    +0.020 C 
ATOM     33  C   UNL     1      33.872 -19.262 -23.723  0.00  0.00    +0.020 C 
ATOM     34  C   UNL     1      35.282 -18.597 -21.877  0.00  0.00    -0.022 C 
ATOM     35  C   UNL     1      35.299 -17.290 -22.362  0.00  0.00    -0.003 C 
ATOM     36  C   UNL     1      34.568 -19.584 -22.557  0.00  0.00    -0.003 C 
ATOM     37  C   UNL     1      36.024 -18.939 -20.630  0.00  0.00    +0.031 C 
ENDBRANCH  28  31
ENDBRANCH  24  28
ENDBRANCH  21  23
ENDBRANCH  20  21
ENDBRANCH   2  20
TORSDOF 7
ENDMDL
MODEL 5
REMARK VINA RESULT:     -11.9      4.504     12.858
REMARK  Name = 11677589
REMARK  7 active torsions:
REMARK  status: ('A' for Active; 'I' for Inactive)
REMARK    1  A    between atoms: C_1  and  N_7
REMARK    2  A    between atoms: C_2  and  C_20
REMARK    3  A    between atoms: C_11  and  C_18
REMARK    4  A    between atoms: C_20  and  C_21
REMARK    5  A    between atoms: C_21  and  N_23
REMARK    6  A    between atoms: N_24  and  S_28
REMARK    7  A    between atoms: S_28  and  C_31
REMARK                            x       y       z     vdW  Elec       q    Type
REMARK                         _______ _______ _______ _____ _____    ______ ____
ROOT
ATOM      1  C   UNL     1      34.811 -22.753 -17.020  0.00  0.00    +0.058 C 
ATOM      2  C   UNL     1      34.810 -21.675 -19.579  0.00  0.00    -0.020 C 
ATOM      3  C   UNL     1      33.716 -22.957 -17.849  0.00  0.00    +0.015 C 
ATOM      4  C   UNL     1      35.906 -22.017 -17.454  0.00  0.00    +0.015 C 
ATOM      5  C   UNL     1      33.715 -22.415 -19.135  0.00  0.00    -0.003 C 
ATOM      6  C   UNL     1      35.905 -21.475 -18.739  0.00  0.00    -0.003 C 
ENDROOT
BRANCH   1   7
ATOM      7  N   UNL     1      34.813 -23.294 -15.734  0.00  0.00    -0.242 N 
ATOM      8  N   UNL     1      34.058 -23.926 -13.740  0.00  0.00    -0.387 NA
ATOM      9  N   UNL     1      37.555 -25.060 -13.285  0.00  0.00    -0.408 NA
ATOM     10  C   UNL     1      35.889 -23.853 -15.095  0.00  0.00    +0.091 C 
ATOM     11  C   UNL     1      33.743 -23.362 -14.885  0.00  0.00    +0.168 C 
ATOM     12  C   UNL     1      35.392 -24.239 -13.854  0.00  0.00    +0.172 C 
ATOM     13  C   UNL     1      37.209 -24.048 -15.478  0.00  0.00    +0.045 C 
ATOM     14  C   UNL     1      36.258 -24.852 -12.948  0.00  0.00    +0.140 C 
ATOM     15  C   UNL     1      37.987 -24.664 -14.508  0.00  0.00    +0.110 C 
ATOM     16  C   UNL     1      35.833 -25.306 -11.592  0.00  0.00    +0.069 C 
ATOM     17  C   UNL     1      39.427 -24.926 -14.809  0.00  0.00    +0.066 C 
BRANCH  11  18
ATOM     18  C   UNL     1      32.404 -22.848 -15.247  0.00  0.00    +0.075 C 
ATOM     19  C   UNL     1      31.342 -23.173 -14.191  0.00  0.00    +0.009 C 
ENDBRANCH  11  18
ENDBRANCH   1   7
BRANCH   2  20
ATOM     20  C   UNL     1      34.808 -21.095 -20.954  0.00  0.00    +0.048 C 
BRANCH  20  21
ATOM     21  C   UNL     1      35.304 -19.645 -21.007  0.00  0.00    +0.096 C 
BRANCH  21  23
ATOM     22  O   UNL     1      34.896 -19.870 -23.842  0.00  0.00    -0.251 OA
ATOM     23  N   UNL     1      34.468 -18.813 -21.830  0.00  0.00    -0.287 N 
ATOM     24  N   UNL     1      33.448 -18.037 -23.795  0.00  0.00    -0.169 N 
ATOM     25  C   UNL     1      34.329 -18.993 -23.197  0.00  0.00    +0.319 C 
ATOM     26  H   UNL     1      33.971 -18.078 -21.402  0.00  0.00    +0.151 HD
ATOM     27  H   UNL     1      33.040 -17.366 -23.202  0.00  0.00    +0.178 HD
BRANCH  24  28
ATOM     28  S   UNL     1      33.049 -17.964 -25.455  0.00  0.00    +0.077 S 
ATOM     29  O   UNL     1      34.139 -18.514 -26.237  0.00  0.00    -0.150 OA
ATOM     30  O   UNL     1      31.693 -18.446 -25.643  0.00  0.00    -0.150 OA
BRANCH  28  31
ATOM     31  C   UNL     1      33.010 -16.217 -25.718  0.00  0.00    +0.125 C 
ATOM     32  C   UNL     1      33.340 -15.369 -24.675  0.00  0.00    +0.020 C 
ATOM     33  C   UNL     1      32.650 -15.728 -26.962  0.00  0.00    +0.020 C 
ATOM     34  C   UNL     1      32.949 -13.480 -26.130  0.00  0.00    -0.022 C 
ATOM     35  C   UNL     1      33.309 -13.989 -24.883  0.00  0.00    -0.003 C 
ATOM     36  C   UNL     1      32.620 -14.349 -27.170  0.00  0.00    -0.003 C 
ATOM     37  C   UNL     1      32.918 -12.006 -26.352  0.00  0.00    +0.031 C 
ENDBRANCH  28  31
ENDBRANCH  24  28
ENDBRANCH  21  23
ENDBRANCH  20  21
ENDBRANCH   2  20
TORSDOF 7
ENDMDL
MODEL 6
REMARK VINA RESULT:     -11.7      2.478      4.291
REMARK  Name = 11677589
REMARK  7 active torsions:
REMARK  status: ('A' for Active; 'I' for Inactive)
REMARK    1  A    between atoms: C_1  and  N_7
REMARK    2  A    between atoms: C_2  and  C_20
REMARK    3  A    between atoms: C_11  and  C_18
REMARK    4  A    between atoms: C_20  and  C_21
REMARK    5  A    between atoms: C_21  and  N_23
REMARK    6  A    between atoms: N_24  and  S_28
REMARK    7  A    between atoms: S_28  and  C_31
REMARK                            x       y       z     vdW  Elec       q    Type
REMARK                         _______ _______ _______ _____ _____    ______ ____
ROOT
ATOM      1  C   UNL     1      31.621  -9.164 -22.545  0.00  0.00    +0.058 C 
ATOM      2  C   UNL     1      32.207 -11.878 -22.558  0.00  0.00    -0.020 C 
ATOM      3  C   UNL     1      32.674  -9.633 -23.318  0.00  0.00    +0.015 C 
ATOM      4  C   UNL     1      30.856 -10.033 -21.778  0.00  0.00    +0.015 C 
ATOM      5  C   UNL     1      32.969 -10.996 -23.325  0.00  0.00    -0.003 C 
ATOM      6  C   UNL     1      31.151 -11.397 -21.784  0.00  0.00    -0.003 C 
ENDROOT
BRANCH   1   7
ATOM      7  N   UNL     1      31.325  -7.799 -22.537  0.00  0.00    -0.242 N 
ATOM      8  N   UNL     1      30.963  -5.752 -21.749  0.00  0.00    -0.387 NA
ATOM      9  N   UNL     1      30.407  -4.969 -25.327  0.00  0.00    -0.408 NA
ATOM     10  C   UNL     1      31.040  -7.030 -23.635  0.00  0.00    +0.091 C 
ATOM     11  C   UNL     1      31.268  -6.992 -21.435  0.00  0.00    +0.168 C 
ATOM     12  C   UNL     1      30.818  -5.758 -23.116  0.00  0.00    +0.172 C 
ATOM     13  C   UNL     1      30.958  -7.322 -24.989  0.00  0.00    +0.045 C 
ATOM     14  C   UNL     1      30.498  -4.723 -23.996  0.00  0.00    +0.140 C 
ATOM     15  C   UNL     1      30.634  -6.228 -25.779  0.00  0.00    +0.110 C 
ATOM     16  C   UNL     1      30.240  -3.324 -23.552  0.00  0.00    +0.069 C 
ATOM     17  C   UNL     1      30.518  -6.424 -27.256  0.00  0.00    +0.066 C 
BRANCH  11  18
ATOM     18  C   UNL     1      31.523  -7.491 -20.067  0.00  0.00    +0.075 C 
ATOM     19  C   UNL     1      31.786  -6.361 -19.066  0.00  0.00    +0.009 C 
ENDBRANCH  11  18
ENDBRANCH   1   7
BRANCH   2  20
ATOM     20  C   UNL     1      32.522 -13.336 -22.565  0.00  0.00    +0.048 C 
BRANCH  20  21
ATOM     21  C   UNL     1      34.001 -13.644 -22.302  0.00  0.00    +0.096 C 
BRANCH  21  23
ATOM     22  O   UNL     1      35.281 -15.906 -23.524  0.00  0.00    -0.251 OA
ATOM     23  N   UNL     1      34.193 -14.946 -21.723  0.00  0.00    -0.287 N 
ATOM     24  N   UNL     1      34.890 -17.183 -21.607  0.00  0.00    -0.169 N 
ATOM     25  C   UNL     1      34.825 -15.985 -22.387  0.00  0.00    +0.319 C 
ATOM     26  H   UNL     1      33.859 -15.108 -20.811  0.00  0.00    +0.151 HD
ATOM     27  H   UNL     1      34.493 -17.157 -20.706  0.00  0.00    +0.178 HD
BRANCH  24  28
ATOM     28  S   UNL     1      35.597 -18.655 -22.112  0.00  0.00    +0.077 S 
ATOM     29  O   UNL     1      35.171 -18.953 -23.466  0.00  0.00    -0.150 OA
ATOM     30  O   UNL     1      37.006 -18.652 -21.769  0.00  0.00    -0.150 OA
BRANCH  28  31
ATOM     31  C   UNL     1      34.809 -19.801 -21.022  0.00  0.00    +0.125 C 
ATOM     32  C   UNL     1      33.426 -19.832 -20.957  0.00  0.00    +0.020 C 
ATOM     33  C   UNL     1      35.588 -20.647 -20.252  0.00  0.00    +0.020 C 
ATOM     34  C   UNL     1      33.575 -21.596 -19.314  0.00  0.00    -0.022 C 
ATOM     35  C   UNL     1      32.805 -20.737 -20.096  0.00  0.00    -0.003 C 
ATOM     36  C   UNL     1      34.966 -21.552 -19.391  0.00  0.00    -0.003 C 
ATOM     37  C   UNL     1      32.910 -22.564 -18.395  0.00  0.00    +0.031 C 
ENDBRANCH  28  31
ENDBRANCH  24  28
ENDBRANCH  21  23
ENDBRANCH  20  21
ENDBRANCH   2  20
TORSDOF 7
ENDMDL
MODEL 7
REMARK VINA RESULT:     -11.6      4.293     12.427
REMARK  Name = 11677589
REMARK  7 active torsions:
REMARK  status: ('A' for Active; 'I' for Inactive)
REMARK    1  A    between atoms: C_1  and  N_7
REMARK    2  A    between atoms: C_2  and  C_20
REMARK    3  A    between atoms: C_11  and  C_18
REMARK    4  A    between atoms: C_20  and  C_21
REMARK    5  A    between atoms: C_21  and  N_23
REMARK    6  A    between atoms: N_24  and  S_28
REMARK    7  A    between atoms: S_28  and  C_31
REMARK                            x       y       z     vdW  Elec       q    Type
REMARK                         _______ _______ _______ _____ _____    ______ ____
ROOT
ATOM      1  C   UNL     1      35.181 -22.460 -17.207  0.00  0.00    +0.058 C 
ATOM      2  C   UNL     1      34.786 -21.343 -19.718  0.00  0.00    -0.020 C 
ATOM      3  C   UNL     1      33.982 -22.678 -17.873  0.00  0.00    +0.015 C 
ATOM      4  C   UNL     1      36.185 -21.691 -17.779  0.00  0.00    +0.015 C 
ATOM      5  C   UNL     1      33.784 -22.116 -19.134  0.00  0.00    -0.003 C 
ATOM      6  C   UNL     1      35.987 -21.129 -19.041  0.00  0.00    -0.003 C 
ENDROOT
BRANCH   1   7
ATOM      7  N   UNL     1      35.380 -23.022 -15.944  0.00  0.00    -0.242 N 
ATOM      8  N   UNL     1      36.447 -23.864 -14.186  0.00  0.00    -0.387 NA
ATOM      9  N   UNL     1      33.013 -24.197 -12.837  0.00  0.00    -0.408 NA
ATOM     10  C   UNL     1      34.400 -23.342 -15.040  0.00  0.00    +0.091 C 
ATOM     11  C   UNL     1      36.585 -23.352 -15.388  0.00  0.00    +0.168 C 
ATOM     12  C   UNL     1      35.093 -23.865 -13.952  0.00  0.00    +0.172 C 
ATOM     13  C   UNL     1      33.018 -23.225 -15.075  0.00  0.00    +0.045 C 
ATOM     14  C   UNL     1      34.366 -24.294 -12.841  0.00  0.00    +0.140 C 
ATOM     15  C   UNL     1      32.390 -23.679 -13.924  0.00  0.00    +0.110 C 
ATOM     16  C   UNL     1      35.003 -24.871 -11.622  0.00  0.00    +0.069 C 
ATOM     17  C   UNL     1      30.899 -23.602 -13.848  0.00  0.00    +0.066 C 
BRANCH  11  18
ATOM     18  C   UNL     1      37.870 -23.143 -16.089  0.00  0.00    +0.075 C 
ATOM     19  C   UNL     1      38.936 -24.167 -15.684  0.00  0.00    +0.009 C 
ENDBRANCH  11  18
ENDBRANCH   1   7
BRANCH   2  20
ATOM     20  C   UNL     1      34.574 -20.742 -21.066  0.00  0.00    +0.048 C 
BRANCH  20  21
ATOM     21  C   UNL     1      35.428 -19.494 -21.322  0.00  0.00    +0.096 C 
BRANCH  21  23
ATOM     22  O   UNL     1      34.661 -19.683 -24.084  0.00  0.00    -0.251 OA
ATOM     23  N   UNL     1      34.729 -18.503 -22.095  0.00  0.00    -0.287 N 
ATOM     24  N   UNL     1      33.710 -17.551 -23.982  0.00  0.00    -0.169 N 
ATOM     25  C   UNL     1      34.397 -18.678 -23.429  0.00  0.00    +0.319 C 
ATOM     26  H   UNL     1      34.474 -17.659 -21.657  0.00  0.00    +0.151 HD
ATOM     27  H   UNL     1      33.544 -16.786 -23.385  0.00  0.00    +0.178 HD
BRANCH  24  28
ATOM     28  S   UNL     1      33.155 -17.424 -25.593  0.00  0.00    +0.077 S 
ATOM     29  O   UNL     1      34.165 -17.946 -26.493  0.00  0.00    -0.150 OA
ATOM     30  O   UNL     1      31.787 -17.901 -25.668  0.00  0.00    -0.150 OA
BRANCH  28  31
ATOM     31  C   UNL     1      33.094 -15.669 -25.793  0.00  0.00    +0.125 C 
ATOM     32  C   UNL     1      33.263 -14.856 -24.685  0.00  0.00    +0.020 C 
ATOM     33  C   UNL     1      32.879 -15.139 -27.053  0.00  0.00    +0.020 C 
ATOM     34  C   UNL     1      33.000 -12.920 -26.106  0.00  0.00    -0.022 C 
ATOM     35  C   UNL     1      33.215 -13.470 -24.843  0.00  0.00    -0.003 C 
ATOM     36  C   UNL     1      32.832 -13.753 -27.211  0.00  0.00    -0.003 C 
ATOM     37  C   UNL     1      32.950 -11.439 -26.275  0.00  0.00    +0.031 C 
ENDBRANCH  28  31
ENDBRANCH  24  28
ENDBRANCH  21  23
ENDBRANCH  20  21
ENDBRANCH   2  20
TORSDOF 7
ENDMDL
MODEL 8
REMARK VINA RESULT:     -11.6      4.558      8.120
REMARK  Name = 11677589
REMARK  7 active torsions:
REMARK  status: ('A' for Active; 'I' for Inactive)
REMARK    1  A    between atoms: C_1  and  N_7
REMARK    2  A    between atoms: C_2  and  C_20
REMARK    3  A    between atoms: C_11  and  C_18
REMARK    4  A    between atoms: C_20  and  C_21
REMARK    5  A    between atoms: C_21  and  N_23
REMARK    6  A    between atoms: N_24  and  S_28
REMARK    7  A    between atoms: S_28  and  C_31
REMARK                            x       y       z     vdW  Elec       q    Type
REMARK                         _______ _______ _______ _____ _____    ______ ____
ROOT
ATOM      1  C   UNL     1      34.730 -18.991 -21.647  0.00  0.00    +0.058 C 
ATOM      2  C   UNL     1      35.176 -20.944 -19.725  0.00  0.00    -0.020 C 
ATOM      3  C   UNL     1      36.017 -19.200 -21.170  0.00  0.00    +0.015 C 
ATOM      4  C   UNL     1      33.663 -19.745 -21.177  0.00  0.00    +0.015 C 
ATOM      5  C   UNL     1      36.241 -20.181 -20.204  0.00  0.00    -0.003 C 
ATOM      6  C   UNL     1      33.887 -20.726 -20.211  0.00  0.00    -0.003 C 
ENDROOT
BRANCH   1   7
ATOM      7  N   UNL     1      34.504 -18.009 -22.613  0.00  0.00    -0.242 N 
ATOM      8  N   UNL     1      34.129 -17.096 -24.605  0.00  0.00    -0.387 NA
ATOM      9  N   UNL     1      34.182 -13.943 -22.661  0.00  0.00    -0.408 NA
ATOM     10  C   UNL     1      34.433 -16.658 -22.389  0.00  0.00    +0.091 C 
ATOM     11  C   UNL     1      34.316 -18.220 -23.951  0.00  0.00    +0.168 C 
ATOM     12  C   UNL     1      34.199 -16.112 -23.648  0.00  0.00    +0.172 C 
ATOM     13  C   UNL     1      34.550 -15.891 -21.239  0.00  0.00    +0.045 C 
ATOM     14  C   UNL     1      34.073 -14.727 -23.762  0.00  0.00    +0.140 C 
ATOM     15  C   UNL     1      34.410 -14.528 -21.459  0.00  0.00    +0.110 C 
ATOM     16  C   UNL     1      33.822 -14.035 -25.059  0.00  0.00    +0.069 C 
ATOM     17  C   UNL     1      34.517 -13.602 -20.291  0.00  0.00    +0.066 C 
BRANCH  11  18
ATOM     18  C   UNL     1      34.330 -19.570 -24.555  0.00  0.00    +0.075 C 
ATOM     19  C   UNL     1      33.758 -19.587 -25.976  0.00  0.00    +0.009 C 
ENDBRANCH  11  18
ENDBRANCH   1   7
BRANCH   2  20
ATOM     20  C   UNL     1      35.416 -21.993 -18.692  0.00  0.00    +0.048 C 
BRANCH  20  21
ATOM     21  C   UNL     1      36.446 -21.585 -17.632  0.00  0.00    +0.096 C 
BRANCH  21  23
ATOM     22  O   UNL     1      35.409 -23.967 -16.407  0.00  0.00    -0.251 OA
ATOM     23  N   UNL     1      35.935 -21.717 -16.294  0.00  0.00    -0.287 N 
ATOM     24  N   UNL     1      34.993 -22.789 -14.432  0.00  0.00    -0.169 N 
ATOM     25  C   UNL     1      35.451 -22.911 -15.782  0.00  0.00    +0.319 C 
ATOM     26  H   UNL     1      35.926 -20.921 -15.715  0.00  0.00    +0.151 HD
ATOM     27  H   UNL     1      35.061 -21.902 -14.010  0.00  0.00    +0.178 HD
BRANCH  24  28
ATOM     28  S   UNL     1      34.337 -24.057 -13.492  0.00  0.00    +0.077 S 
ATOM     29  O   UNL     1      34.965 -25.309 -13.868  0.00  0.00    -0.150 OA
ATOM     30  O   UNL     1      34.288 -23.647 -12.102  0.00  0.00    -0.150 OA
BRANCH  28  31
ATOM     31  C   UNL     1      32.669 -24.081 -14.076  0.00  0.00    +0.125 C 
ATOM     32  C   UNL     1      32.268 -23.151 -15.019  0.00  0.00    +0.020 C 
ATOM     33  C   UNL     1      31.793 -25.031 -13.579  0.00  0.00    +0.020 C 
ATOM     34  C   UNL     1      30.056 -24.121 -14.990  0.00  0.00    -0.022 C 
ATOM     35  C   UNL     1      30.951 -23.171 -15.480  0.00  0.00    -0.003 C 
ATOM     36  C   UNL     1      30.476 -25.052 -14.040  0.00  0.00    -0.003 C 
ATOM     37  C   UNL     1      28.649 -24.143 -15.484  0.00  0.00    +0.031 C 
ENDBRANCH  28  31
ENDBRANCH  24  28
ENDBRANCH  21  23
ENDBRANCH  20  21
ENDBRANCH   2  20
TORSDOF 7
ENDMDL
MODEL 9
REMARK VINA RESULT:     -11.5      4.938      8.421
REMARK  Name = 11677589
REMARK  7 active torsions:
REMARK  status: ('A' for Active; 'I' for Inactive)
REMARK    1  A    between atoms: C_1  and  N_7
REMARK    2  A    between atoms: C_2  and  C_20
REMARK    3  A    between atoms: C_11  and  C_18
REMARK    4  A    between atoms: C_20  and  C_21
REMARK    5  A    between atoms: C_21  and  N_23
REMARK    6  A    between atoms: N_24  and  S_28
REMARK    7  A    between atoms: S_28  and  C_31
REMARK                            x       y       z     vdW  Elec       q    Type
REMARK                         _______ _______ _______ _____ _____    ______ ____
ROOT
ATOM      1  C   UNL     1      34.462 -18.789 -21.626  0.00  0.00    +0.058 C 
ATOM      2  C   UNL     1      34.849 -20.896 -19.860  0.00  0.00    -0.020 C 
ATOM      3  C   UNL     1      35.752 -19.133 -21.244  0.00  0.00    +0.015 C 
ATOM      4  C   UNL     1      33.363 -19.484 -21.138  0.00  0.00    +0.015 C 
ATOM      5  C   UNL     1      35.946 -20.192 -20.356  0.00  0.00    -0.003 C 
ATOM      6  C   UNL     1      33.557 -20.542 -20.250  0.00  0.00    -0.003 C 
ENDROOT
BRANCH   1   7
ATOM      7  N   UNL     1      34.266 -17.730 -22.514  0.00  0.00    -0.242 N 
ATOM      8  N   UNL     1      34.243 -15.651 -23.302  0.00  0.00    -0.387 NA
ATOM      9  N   UNL     1      32.873 -17.298 -26.323  0.00  0.00    -0.408 NA
ATOM     10  C   UNL     1      33.769 -17.826 -23.788  0.00  0.00    +0.091 C 
ATOM     11  C   UNL     1      34.535 -16.411 -22.270  0.00  0.00    +0.168 C 
ATOM     12  C   UNL     1      33.764 -16.516 -24.257  0.00  0.00    +0.172 C 
ATOM     13  C   UNL     1      33.336 -18.905 -24.546  0.00  0.00    +0.045 C 
ATOM     14  C   UNL     1      33.305 -16.271 -25.551  0.00  0.00    +0.140 C 
ATOM     15  C   UNL     1      32.899 -18.556 -25.816  0.00  0.00    +0.110 C 
ATOM     16  C   UNL     1      33.256 -14.908 -26.155  0.00  0.00    +0.069 C 
ATOM     17  C   UNL     1      32.410 -19.637 -26.724  0.00  0.00    +0.066 C 
BRANCH  11  18
ATOM     18  C   UNL     1      35.087 -15.935 -20.983  0.00  0.00    +0.075 C 
ATOM     19  C   UNL     1      34.499 -14.588 -20.551  0.00  0.00    +0.009 C 
ENDBRANCH  11  18
ENDBRANCH   1   7
BRANCH   2  20
ATOM     20  C   UNL     1      35.057 -22.027 -18.910  0.00  0.00    +0.048 C 
BRANCH  20  21
ATOM     21  C   UNL     1      36.175 -21.775 -17.892  0.00  0.00    +0.096 C 
BRANCH  21  23
ATOM     22  O   UNL     1      35.087 -24.081 -16.570  0.00  0.00    -0.251 OA
ATOM     23  N   UNL     1      35.706 -21.853 -16.535  0.00  0.00    -0.287 N 
ATOM     24  N   UNL     1      34.788 -22.838 -14.614  0.00  0.00    -0.169 N 
ATOM     25  C   UNL     1      35.193 -23.012 -15.976  0.00  0.00    +0.319 C 
ATOM     26  H   UNL     1      35.750 -21.043 -15.977  0.00  0.00    +0.151 HD
ATOM     27  H   UNL     1      34.905 -21.944 -14.219  0.00  0.00    +0.178 HD
BRANCH  24  28
ATOM     28  S   UNL     1      34.114 -24.054 -13.620  0.00  0.00    +0.077 S 
ATOM     29  O   UNL     1      34.709 -25.333 -13.956  0.00  0.00    -0.150 OA
ATOM     30  O   UNL     1      34.092 -23.591 -12.245  0.00  0.00    -0.150 OA
BRANCH  28  31
ATOM     31  C   UNL     1      32.438 -24.061 -14.183  0.00  0.00    +0.125 C 
ATOM     32  C   UNL     1      31.579 -25.050 -13.736  0.00  0.00    +0.020 C 
ATOM     33  C   UNL     1      32.016 -23.078 -15.061  0.00  0.00    +0.020 C 
ATOM     34  C   UNL     1      29.814 -24.071 -15.064  0.00  0.00    -0.022 C 
ATOM     35  C   UNL     1      30.256 -25.054 -14.180  0.00  0.00    -0.003 C 
ATOM     36  C   UNL     1      30.694 -23.083 -15.505  0.00  0.00    -0.003 C 
ATOM     37  C   UNL     1      28.401 -24.076 -15.538  0.00  0.00    +0.031 C 
ENDBRANCH  28  31
ENDBRANCH  24  28
ENDBRANCH  21  23
ENDBRANCH  20  21
ENDBRANCH   2  20
TORSDOF 7
ENDMDL
