MODEL 1
REMARK VINA RESULT:     -13.1      0.000      0.000
REMARK  Name = 24780387
REMARK  3 active torsions:
REMARK  status: ('A' for Active; 'I' for Inactive)
REMARK    1  A    between atoms: N_3  and  C_25
REMARK    2  A    between atoms: C_18  and  O_23
REMARK    3  A    between atoms: C_25  and  N_26
REMARK                            x       y       z     vdW  Elec       q    Type
REMARK                         _______ _______ _______ _____ _____    ______ ____
ROOT
ATOM      1  O   UNL     1      32.176 -24.967 -12.873  0.00  0.00    -0.270 OA
ATOM      2  O   UNL     1      35.634 -23.453 -15.538  0.00  0.00    -0.270 OA
ATOM      3  N   UNL     1      34.179 -24.346 -13.936  0.00  0.00    -0.244 N 
ATOM      4  N   UNL     1      31.615 -21.955 -18.568  0.00  0.00    -0.353 N 
ATOM      5  C   UNL     1      30.921 -23.729 -15.344  0.00  0.00    -0.020 A 
ATOM      6  C   UNL     1      30.621 -23.085 -16.553  0.00  0.00    -0.010 A 
ATOM      7  C   UNL     1      32.231 -23.872 -14.976  0.00  0.00    +0.054 A 
ATOM      8  C   UNL     1      29.672 -24.122 -14.624  0.00  0.00    +0.027 C 
ATOM      9  C   UNL     1      29.133 -22.985 -16.742  0.00  0.00    +0.028 C 
ATOM     10  C   UNL     1      31.662 -22.612 -17.365  0.00  0.00    +0.052 A 
ATOM     11  C   UNL     1      33.264 -23.406 -15.790  0.00  0.00    +0.059 A 
ATOM     12  C   UNL     1      28.637 -24.053 -15.757  0.00  0.00    +0.009 C 
ATOM     13  C   UNL     1      33.017 -22.759 -17.015  0.00  0.00    +0.024 A 
ATOM     14  C   UNL     1      32.819 -24.475 -13.781  0.00  0.00    +0.253 C 
ATOM     15  C   UNL     1      34.525 -23.716 -15.114  0.00  0.00    +0.253 C 
ATOM     16  C   UNL     1      33.785 -22.166 -18.074  0.00  0.00    +0.051 A 
ATOM     17  C   UNL     1      32.881 -21.677 -19.022  0.00  0.00    +0.060 A 
ATOM     18  C   UNL     1      35.162 -21.989 -18.334  0.00  0.00    +0.140 C 
ATOM     19  C   UNL     1      33.280 -21.029 -20.198  0.00  0.00    +0.017 C 
ATOM     20  C   UNL     1      35.577 -21.344 -19.506  0.00  0.00    +0.037 C 
ATOM     21  C   UNL     1      34.647 -20.871 -20.425  0.00  0.00    +0.005 C 
ATOM     22  H   UNL     1      30.786 -21.715 -19.043  0.00  0.00    +0.166 HD
ENDROOT
BRANCH  18  23
ATOM     23  O   UNL     1      36.177 -22.413 -17.522  0.00  0.00    -0.471 OA
ATOM     24  C   UNL     1      37.054 -21.413 -17.013  0.00  0.00    +0.252 C 
ENDBRANCH  18  23
BRANCH   3  25
ATOM     25  C   UNL     1      35.157 -24.815 -12.972  0.00  0.00    +0.028 C 
BRANCH  25  26
ATOM     26  N   UNL     1      36.439 -25.007 -13.647  0.00  0.00    +0.396 N 
ATOM     27  N   UNL     1      39.033 -26.248 -13.945  0.00  0.00    +0.383 N 
ATOM     28  C   UNL     1      37.554 -24.667 -12.754  0.00  0.00    -0.098 C 
ATOM     29  C   UNL     1      36.573 -26.386 -14.131  0.00  0.00    -0.098 C 
ATOM     30  C   UNL     1      38.900 -24.869 -13.460  0.00  0.00    -0.101 C 
ATOM     31  C   UNL     1      37.918 -26.588 -14.838  0.00  0.00    -0.101 C 
ATOM     32  C   UNL     1      40.315 -26.438 -14.621  0.00  0.00    -0.101 C 
ATOM     33  H   UNL     1      36.469 -24.379 -14.450  0.00  0.00    -0.077 HD
ATOM     34  H   UNL     1      39.005 -26.875 -13.142  0.00  0.00    -0.080 HD
ENDBRANCH  25  26
ENDBRANCH   3  25
TORSDOF 3
ENDMDL
MODEL 2
REMARK VINA RESULT:     -12.5      2.197      6.596
REMARK  Name = 24780387
REMARK  3 active torsions:
REMARK  status: ('A' for Active; 'I' for Inactive)
REMARK    1  A    between atoms: N_3  and  C_25
REMARK    2  A    between atoms: C_18  and  O_23
REMARK    3  A    between atoms: C_25  and  N_26
REMARK                            x       y       z     vdW  Elec       q    Type
REMARK                         _______ _______ _______ _____ _____    ______ ____
ROOT
ATOM      1  O   UNL     1      32.220 -22.310 -19.094  0.00  0.00    -0.270 OA
ATOM      2  O   UNL     1      36.336 -22.802 -17.055  0.00  0.00    -0.270 OA
ATOM      3  N   UNL     1      34.468 -22.456 -18.422  0.00  0.00    -0.244 N 
ATOM      4  N   UNL     1      33.293 -23.998 -12.945  0.00  0.00    -0.353 N 
ATOM      5  C   UNL     1      31.696 -23.084 -16.206  0.00  0.00    -0.020 A 
ATOM      6  C   UNL     1      31.750 -23.466 -14.858  0.00  0.00    -0.010 A 
ATOM      7  C   UNL     1      32.867 -22.888 -16.887  0.00  0.00    +0.054 A 
ATOM      8  C   UNL     1      30.283 -23.000 -16.682  0.00  0.00    +0.027 C 
ATOM      9  C   UNL     1      30.365 -23.678 -14.315  0.00  0.00    +0.028 C 
ATOM     10  C   UNL     1      32.994 -23.629 -14.231  0.00  0.00    +0.052 A 
ATOM     11  C   UNL     1      34.103 -23.045 -16.259  0.00  0.00    +0.059 A 
ATOM     12  C   UNL     1      29.522 -22.921 -15.350  0.00  0.00    +0.009 C 
ATOM     13  C   UNL     1      34.211 -23.421 -14.906  0.00  0.00    +0.024 A 
ATOM     14  C   UNL     1      33.101 -22.512 -18.280  0.00  0.00    +0.253 C 
ATOM     15  C   UNL     1      35.137 -22.762 -17.255  0.00  0.00    +0.253 C 
ATOM     16  C   UNL     1      35.260 -23.672 -13.958  0.00  0.00    +0.051 A 
ATOM     17  C   UNL     1      34.653 -24.029 -12.749  0.00  0.00    +0.060 A 
ATOM     18  C   UNL     1      36.671 -23.638 -13.993  0.00  0.00    +0.140 C 
ATOM     19  C   UNL     1      35.376 -24.347 -11.593  0.00  0.00    +0.017 C 
ATOM     20  C   UNL     1      37.409 -23.952 -12.845  0.00  0.00    +0.037 C 
ATOM     21  C   UNL     1      36.768 -24.302 -11.661  0.00  0.00    +0.005 C 
ATOM     22  H   UNL     1      32.625 -24.211 -12.253  0.00  0.00    +0.166 HD
ENDROOT
BRANCH  18  23
ATOM     23  O   UNL     1      37.423 -23.302 -15.084  0.00  0.00    -0.471 OA
ATOM     24  C   UNL     1      38.528 -24.148 -15.389  0.00  0.00    +0.252 C 
ENDBRANCH  18  23
BRANCH   3  25
ATOM     25  C   UNL     1      35.147 -22.116 -19.658  0.00  0.00    +0.028 C 
BRANCH  25  26
ATOM     26  N   UNL     1      34.955 -20.693 -19.932  0.00  0.00    +0.396 N 
ATOM     27  N   UNL     1      34.970 -18.379 -21.666  0.00  0.00    +0.383 N 
ATOM     28  C   UNL     1      36.214 -20.072 -20.364  0.00  0.00    -0.098 C 
ATOM     29  C   UNL     1      33.911 -20.493 -20.945  0.00  0.00    -0.098 C 
ATOM     30  C   UNL     1      36.014 -18.580 -20.655  0.00  0.00    -0.101 C 
ATOM     31  C   UNL     1      33.711 -19.001 -21.234  0.00  0.00    -0.101 C 
ATOM     32  C   UNL     1      34.778 -16.956 -21.938  0.00  0.00    -0.101 C 
ATOM     33  H   UNL     1      34.656 -20.243 -19.068  0.00  0.00    -0.077 HD
ATOM     34  H   UNL     1      35.269 -18.828 -22.531  0.00  0.00    -0.080 HD
ENDBRANCH  25  26
ENDBRANCH   3  25
TORSDOF 3
ENDMDL
MODEL 3
REMARK VINA RESULT:     -11.1      2.431      6.602
REMARK  Name = 24780387
REMARK  3 active torsions:
REMARK  status: ('A' for Active; 'I' for Inactive)
REMARK    1  A    between atoms: N_3  and  C_25
REMARK    2  A    between atoms: C_18  and  O_23
REMARK    3  A    between atoms: C_25  and  N_26
REMARK                            x       y       z     vdW  Elec       q    Type
REMARK                         _______ _______ _______ _____ _____    ______ ____
ROOT
ATOM      1  O   UNL     1      31.890 -25.139 -12.986  0.00  0.00    -0.270 OA
ATOM      2  O   UNL     1      31.691 -23.518 -17.308  0.00  0.00    -0.270 OA
ATOM      3  N   UNL     1      31.402 -24.450 -15.180  0.00  0.00    -0.244 N 
ATOM      4  N   UNL     1      36.661 -22.214 -16.225  0.00  0.00    -0.353 N 
ATOM      5  C   UNL     1      34.598 -23.915 -13.604  0.00  0.00    -0.020 A 
ATOM      6  C   UNL     1      35.735 -23.312 -14.161  0.00  0.00    -0.010 A 
ATOM      7  C   UNL     1      33.466 -24.027 -14.366  0.00  0.00    +0.054 A 
ATOM      8  C   UNL     1      34.871 -24.388 -12.214  0.00  0.00    +0.027 C 
ATOM      9  C   UNL     1      36.877 -23.337 -13.184  0.00  0.00    +0.028 C 
ATOM     10  C   UNL     1      35.690 -22.826 -15.476  0.00  0.00    +0.052 A 
ATOM     11  C   UNL     1      33.423 -23.536 -15.671  0.00  0.00    +0.059 A 
ATOM     12  C   UNL     1      36.132 -23.584 -11.865  0.00  0.00    +0.009 C 
ATOM     13  C   UNL     1      34.534 -22.916 -16.273  0.00  0.00    +0.024 A 
ATOM     14  C   UNL     1      32.167 -24.618 -14.050  0.00  0.00    +0.253 C 
ATOM     15  C   UNL     1      32.084 -23.810 -16.195  0.00  0.00    +0.253 C 
ATOM     16  C   UNL     1      34.856 -22.318 -17.539  0.00  0.00    +0.051 A 
ATOM     17  C   UNL     1      36.186 -21.892 -17.472  0.00  0.00    +0.060 A 
ATOM     18  C   UNL     1      34.157 -22.089 -18.745  0.00  0.00    +0.140 C 
ATOM     19  C   UNL     1      36.842 -21.259 -18.536  0.00  0.00    +0.017 C 
ATOM     20  C   UNL     1      34.798 -21.457 -19.818  0.00  0.00    +0.037 C 
ATOM     21  C   UNL     1      36.124 -21.048 -19.713  0.00  0.00    +0.005 C 
ATOM     22  H   UNL     1      37.577 -22.028 -15.911  0.00  0.00    +0.166 HD
ENDROOT
BRANCH  18  23
ATOM     23  O   UNL     1      32.854 -22.431 -18.976  0.00  0.00    -0.471 OA
ATOM     24  C   UNL     1      32.033 -21.452 -19.605  0.00  0.00    +0.252 C 
ENDBRANCH  18  23
BRANCH   3  25
ATOM     25  C   UNL     1      30.027 -24.894 -15.308  0.00  0.00    +0.028 C 
BRANCH  25  26
ATOM     26  N   UNL     1      29.251 -23.858 -15.986  0.00  0.00    +0.396 N 
ATOM     27  N   UNL     1      26.790 -22.472 -16.603  0.00  0.00    +0.383 N 
ATOM     28  C   UNL     1      28.238 -24.457 -16.865  0.00  0.00    -0.098 C 
ATOM     29  C   UNL     1      28.619 -22.959 -15.013  0.00  0.00    -0.098 C 
ATOM     30  C   UNL     1      27.422 -23.371 -17.576  0.00  0.00    -0.101 C 
ATOM     31  C   UNL     1      27.803 -21.873 -15.725  0.00  0.00    -0.101 C 
ATOM     32  C   UNL     1      26.016 -21.435 -17.283  0.00  0.00    -0.101 C 
ATOM     33  H   UNL     1      29.892 -23.311 -16.561  0.00  0.00    -0.077 HD
ATOM     34  H   UNL     1      26.149 -23.018 -16.029  0.00  0.00    -0.080 HD
ENDBRANCH  25  26
ENDBRANCH   3  25
TORSDOF 3
ENDMDL
MODEL 4
REMARK VINA RESULT:     -10.7      9.374     14.268
REMARK  Name = 24780387
REMARK  3 active torsions:
REMARK  status: ('A' for Active; 'I' for Inactive)
REMARK    1  A    between atoms: N_3  and  C_25
REMARK    2  A    between atoms: C_18  and  O_23
REMARK    3  A    between atoms: C_25  and  N_26
REMARK                            x       y       z     vdW  Elec       q    Type
REMARK                         _______ _______ _______ _____ _____    ______ ____
ROOT
ATOM      1  O   UNL     1      32.554 -12.054 -26.313  0.00  0.00    -0.270 OA
ATOM      2  O   UNL     1      34.672 -13.823 -22.606  0.00  0.00    -0.270 OA
ATOM      3  N   UNL     1      33.708 -12.564 -24.328  0.00  0.00    -0.244 N 
ATOM      4  N   UNL     1      33.141 -18.323 -24.838  0.00  0.00    -0.353 N 
ATOM      5  C   UNL     1      32.274 -15.072 -26.481  0.00  0.00    -0.020 A 
ATOM      6  C   UNL     1      32.317 -16.465 -26.318  0.00  0.00    -0.010 A 
ATOM      7  C   UNL     1      32.880 -14.276 -25.548  0.00  0.00    +0.054 A 
ATOM      8  C   UNL     1      31.567 -14.704 -27.745  0.00  0.00    +0.027 C 
ATOM      9  C   UNL     1      31.642 -17.151 -27.472  0.00  0.00    +0.028 C 
ATOM     10  C   UNL     1      32.966 -17.013 -25.203  0.00  0.00    +0.052 A 
ATOM     11  C   UNL     1      33.519 -14.825 -24.436  0.00  0.00    +0.059 A 
ATOM     12  C   UNL     1      30.806 -16.003 -28.053  0.00  0.00    +0.009 C 
ATOM     13  C   UNL     1      33.585 -16.215 -24.223  0.00  0.00    +0.024 A 
ATOM     14  C   UNL     1      33.004 -12.821 -25.481  0.00  0.00    +0.253 C 
ATOM     15  C   UNL     1      34.053 -13.714 -23.647  0.00  0.00    +0.253 C 
ATOM     16  C   UNL     1      34.133 -17.111 -23.243  0.00  0.00    +0.051 A 
ATOM     17  C   UNL     1      33.838 -18.414 -23.658  0.00  0.00    +0.060 A 
ATOM     18  C   UNL     1      34.854 -16.959 -22.039  0.00  0.00    +0.140 C 
ATOM     19  C   UNL     1      34.223 -19.553 -22.940  0.00  0.00    +0.017 C 
ATOM     20  C   UNL     1      35.246 -18.087 -21.308  0.00  0.00    +0.037 C 
ATOM     21  C   UNL     1      34.934 -19.367 -21.755  0.00  0.00    +0.005 C 
ATOM     22  H   UNL     1      32.811 -19.096 -25.352  0.00  0.00    +0.166 HD
ENDROOT
BRANCH  18  23
ATOM     23  O   UNL     1      35.217 -15.763 -21.485  0.00  0.00    -0.471 OA
ATOM     24  C   UNL     1      34.608 -15.417 -20.245  0.00  0.00    +0.252 C 
ENDBRANCH  18  23
BRANCH   3  25
ATOM     25  C   UNL     1      34.060 -11.235 -23.866  0.00  0.00    +0.028 C 
BRANCH  25  26
ATOM     26  N   UNL     1      32.881 -10.375 -23.940  0.00  0.00    +0.396 N 
ATOM     27  N   UNL     1      31.385  -7.991 -23.277  0.00  0.00    +0.383 N 
ATOM     28  C   UNL     1      32.283 -10.195 -22.611  0.00  0.00    -0.098 C 
ATOM     29  C   UNL     1      33.219  -9.074 -24.530  0.00  0.00    -0.098 C 
ATOM     30  C   UNL     1      31.047  -9.291 -22.686  0.00  0.00    -0.101 C 
ATOM     31  C   UNL     1      31.982  -8.172 -24.607  0.00  0.00    -0.101 C 
ATOM     32  C   UNL     1      30.204  -7.133 -23.352  0.00  0.00    -0.101 C 
ATOM     33  H   UNL     1      32.195 -10.832 -24.541  0.00  0.00    -0.077 HD
ATOM     34  H   UNL     1      32.069  -7.533 -22.677  0.00  0.00    -0.080 HD
ENDBRANCH  25  26
ENDBRANCH   3  25
TORSDOF 3
ENDMDL
MODEL 5
REMARK VINA RESULT:     -10.4     10.967     15.192
REMARK  Name = 24780387
REMARK  3 active torsions:
REMARK  status: ('A' for Active; 'I' for Inactive)
REMARK    1  A    between atoms: N_3  and  C_25
REMARK    2  A    between atoms: C_18  and  O_23
REMARK    3  A    between atoms: C_25  and  N_26
REMARK                            x       y       z     vdW  Elec       q    Type
REMARK                         _______ _______ _______ _____ _____    ______ ____
ROOT
ATOM      1  O   UNL     1      34.056 -12.131 -27.415  0.00  0.00    -0.270 OA
ATOM      2  O   UNL     1      32.075 -13.191 -23.377  0.00  0.00    -0.270 OA
ATOM      3  N   UNL     1      33.034 -13.052 -25.508  0.00  0.00    -0.244 N 
ATOM      4  N   UNL     1      32.781  -8.052 -22.562  0.00  0.00    -0.353 N 
ATOM      5  C   UNL     1      33.916  -9.570 -25.791  0.00  0.00    -0.020 A 
ATOM      6  C   UNL     1      33.703  -8.555 -24.846  0.00  0.00    -0.010 A 
ATOM      7  C   UNL     1      33.510 -10.844 -25.498  0.00  0.00    +0.054 A 
ATOM      8  C   UNL     1      34.545  -9.023 -27.030  0.00  0.00    +0.027 C 
ATOM      9  C   UNL     1      34.171  -7.231 -25.381  0.00  0.00    +0.028 C 
ATOM     10  C   UNL     1      33.094  -8.863 -23.621  0.00  0.00    +0.052 A 
ATOM     11  C   UNL     1      32.909 -11.148 -24.277  0.00  0.00    +0.059 A 
ATOM     12  C   UNL     1      35.094  -7.681 -26.521  0.00  0.00    +0.009 C 
ATOM     13  C   UNL     1      32.680 -10.168 -23.292  0.00  0.00    +0.024 A 
ATOM     14  C   UNL     1      33.588 -12.068 -26.293  0.00  0.00    +0.253 C 
ATOM     15  C   UNL     1      32.604 -12.579 -24.285  0.00  0.00    +0.253 C 
ATOM     16  C   UNL     1      32.111 -10.103 -21.975  0.00  0.00    +0.051 A 
ATOM     17  C   UNL     1      32.190  -8.772 -21.552  0.00  0.00    +0.060 A 
ATOM     18  C   UNL     1      31.531 -11.036 -21.088  0.00  0.00    +0.140 C 
ATOM     19  C   UNL     1      31.725  -8.335 -20.305  0.00  0.00    +0.017 C 
ATOM     20  C   UNL     1      31.062 -10.616 -19.836  0.00  0.00    +0.037 C 
ATOM     21  C   UNL     1      31.159  -9.282 -19.452  0.00  0.00    +0.005 C 
ATOM     22  H   UNL     1      32.956  -7.083 -22.527  0.00  0.00    +0.166 HD
ENDROOT
BRANCH  18  23
ATOM     23  O   UNL     1      31.384 -12.372 -21.336  0.00  0.00    -0.471 OA
ATOM     24  C   UNL     1      31.643 -13.260 -20.254  0.00  0.00    +0.252 C 
ENDBRANCH  18  23
BRANCH   3  25
ATOM     25  C   UNL     1      32.907 -14.440 -25.909  0.00  0.00    +0.028 C 
BRANCH  25  26
ATOM     26  N   UNL     1      33.285 -15.298 -24.789  0.00  0.00    +0.396 N 
ATOM     27  N   UNL     1      35.070 -17.123 -23.430  0.00  0.00    +0.383 N 
ATOM     28  C   UNL     1      33.427 -16.694 -25.225  0.00  0.00    -0.098 C 
ATOM     29  C   UNL     1      34.530 -14.827 -24.168  0.00  0.00    -0.098 C 
ATOM     30  C   UNL     1      33.827 -17.595 -24.051  0.00  0.00    -0.101 C 
ATOM     31  C   UNL     1      34.928 -15.728 -22.994  0.00  0.00    -0.101 C 
ATOM     32  C   UNL     1      35.447 -17.981 -22.309  0.00  0.00    -0.101 C 
ATOM     33  H   UNL     1      32.542 -15.254 -24.093  0.00  0.00    -0.077 HD
ATOM     34  H   UNL     1      35.814 -17.168 -24.125  0.00  0.00    -0.080 HD
ENDBRANCH  25  26
ENDBRANCH   3  25
TORSDOF 3
ENDMDL
MODEL 6
REMARK VINA RESULT:     -10.3     13.785     16.945
REMARK  Name = 24780387
REMARK  3 active torsions:
REMARK  status: ('A' for Active; 'I' for Inactive)
REMARK    1  A    between atoms: N_3  and  C_25
REMARK    2  A    between atoms: C_18  and  O_23
REMARK    3  A    between atoms: C_25  and  N_26
REMARK                            x       y       z     vdW  Elec       q    Type
REMARK                         _______ _______ _______ _____ _____    ______ ____
ROOT
ATOM      1  O   UNL     1      32.615 -12.672 -23.392  0.00  0.00    -0.270 OA
ATOM      2  O   UNL     1      33.439  -8.952 -26.006  0.00  0.00    -0.270 OA
ATOM      3  N   UNL     1      33.153 -11.049 -25.006  0.00  0.00    -0.244 N 
ATOM      4  N   UNL     1      31.711  -6.497 -21.697  0.00  0.00    -0.353 N 
ATOM      5  C   UNL     1      31.852 -10.238 -21.745  0.00  0.00    -0.020 A 
ATOM      6  C   UNL     1      31.607  -8.963 -21.216  0.00  0.00    -0.010 A 
ATOM      7  C   UNL     1      32.350 -10.345 -23.015  0.00  0.00    +0.054 A 
ATOM      8  C   UNL     1      31.544 -11.301 -20.742  0.00  0.00    +0.027 C 
ATOM      9  C   UNL     1      31.117  -9.066 -19.799  0.00  0.00    +0.028 C 
ATOM     10  C   UNL     1      31.864  -7.826 -21.996  0.00  0.00    +0.052 A 
ATOM     11  C   UNL     1      32.598  -9.212 -23.791  0.00  0.00    +0.059 A 
ATOM     12  C   UNL     1      30.661 -10.531 -19.749  0.00  0.00    +0.009 C 
ATOM     13  C   UNL     1      32.362  -7.910 -23.309  0.00  0.00    +0.024 A 
ATOM     14  C   UNL     1      32.710 -11.527 -23.796  0.00  0.00    +0.253 C 
ATOM     15  C   UNL     1      33.116  -9.671 -25.080  0.00  0.00    +0.253 C 
ATOM     16  C   UNL     1      32.493  -6.563 -23.790  0.00  0.00    +0.051 A 
ATOM     17  C   UNL     1      32.079  -5.711 -22.762  0.00  0.00    +0.060 A 
ATOM     18  C   UNL     1      32.922  -5.968 -24.997  0.00  0.00    +0.140 C 
ATOM     19  C   UNL     1      32.074  -4.315 -22.878  0.00  0.00    +0.017 C 
ATOM     20  C   UNL     1      32.921  -4.574 -25.130  0.00  0.00    +0.037 C 
ATOM     21  C   UNL     1      32.502  -3.760 -24.083  0.00  0.00    +0.005 C 
ATOM     22  H   UNL     1      31.382  -6.151 -20.835  0.00  0.00    +0.166 HD
ENDROOT
BRANCH  18  23
ATOM     23  O   UNL     1      33.348  -6.650 -26.102  0.00  0.00    -0.471 OA
ATOM     24  C   UNL     1      33.967  -5.885 -27.132  0.00  0.00    +0.252 C 
ENDBRANCH  18  23
BRANCH   3  25
ATOM     25  C   UNL     1      33.615 -11.888 -26.096  0.00  0.00    +0.028 C 
BRANCH  25  26
ATOM     26  N   UNL     1      32.762 -13.072 -26.182  0.00  0.00    +0.396 N 
ATOM     27  N   UNL     1      31.928 -15.564 -27.388  0.00  0.00    +0.383 N 
ATOM     28  C   UNL     1      32.030 -13.096 -27.455  0.00  0.00    -0.098 C 
ATOM     29  C   UNL     1      33.554 -14.298 -26.023  0.00  0.00    -0.098 C 
ATOM     30  C   UNL     1      31.137 -14.338 -27.547  0.00  0.00    -0.101 C 
ATOM     31  C   UNL     1      32.660 -15.540 -26.115  0.00  0.00    -0.101 C 
ATOM     32  C   UNL     1      31.073 -16.746 -27.473  0.00  0.00    -0.101 C 
ATOM     33  H   UNL     1      32.083 -13.027 -25.422  0.00  0.00    -0.077 HD
ATOM     34  H   UNL     1      32.606 -15.610 -28.147  0.00  0.00    -0.080 HD
ENDBRANCH  25  26
ENDBRANCH   3  25
TORSDOF 3
ENDMDL
MODEL 7
REMARK VINA RESULT:     -10.3      2.191      7.342
REMARK  Name = 24780387
REMARK  3 active torsions:
REMARK  status: ('A' for Active; 'I' for Inactive)
REMARK    1  A    between atoms: N_3  and  C_25
REMARK    2  A    between atoms: C_18  and  O_23
REMARK    3  A    between atoms: C_25  and  N_26
REMARK                            x       y       z     vdW  Elec       q    Type
REMARK                         _______ _______ _______ _____ _____    ______ ____
ROOT
ATOM      1  O   UNL     1      31.320 -22.694 -17.572  0.00  0.00    -0.270 OA
ATOM      2  O   UNL     1      33.313 -24.781 -13.963  0.00  0.00    -0.270 OA
ATOM      3  N   UNL     1      31.951 -23.852 -15.625  0.00  0.00    -0.244 N 
ATOM      4  N   UNL     1      37.657 -23.017 -16.328  0.00  0.00    -0.353 N 
ATOM      5  C   UNL     1      34.318 -22.336 -17.880  0.00  0.00    -0.020 A 
ATOM      6  C   UNL     1      35.715 -22.304 -17.757  0.00  0.00    -0.010 A 
ATOM      7  C   UNL     1      33.582 -22.967 -16.914  0.00  0.00    +0.054 A 
ATOM      8  C   UNL     1      33.871 -21.592 -19.095  0.00  0.00    +0.027 C 
ATOM      9  C   UNL     1      36.325 -21.522 -18.887  0.00  0.00    +0.028 C 
ATOM     10  C   UNL     1      36.331 -22.924 -16.660  0.00  0.00    +0.052 A 
ATOM     11  C   UNL     1      34.198 -23.589 -15.828  0.00  0.00    +0.059 A 
ATOM     12  C   UNL     1      35.176 -21.525 -19.904  0.00  0.00    +0.009 C 
ATOM     13  C   UNL     1      35.596 -23.591 -15.662  0.00  0.00    +0.024 A 
ATOM     14  C   UNL     1      32.136 -23.133 -16.782  0.00  0.00    +0.253 C 
ATOM     15  C   UNL     1      33.139 -24.163 -14.996  0.00  0.00    +0.253 C 
ATOM     16  C   UNL     1      36.550 -24.100 -14.716  0.00  0.00    +0.051 A 
ATOM     17  C   UNL     1      37.821 -23.724 -15.162  0.00  0.00    +0.060 A 
ATOM     18  C   UNL     1      36.473 -24.844 -13.518  0.00  0.00    +0.140 C 
ATOM     19  C   UNL     1      39.000 -24.051 -14.480  0.00  0.00    +0.017 C 
ATOM     20  C   UNL     1      37.642 -25.180 -12.824  0.00  0.00    +0.037 C 
ATOM     21  C   UNL     1      38.889 -24.787 -13.301  0.00  0.00    +0.005 C 
ATOM     22  H   UNL     1      38.395 -22.630 -16.854  0.00  0.00    +0.166 HD
ENDROOT
BRANCH  18  23
ATOM     23  O   UNL     1      35.317 -25.299 -12.948  0.00  0.00    -0.471 OA
ATOM     24  C   UNL     1      35.135 -25.030 -11.561  0.00  0.00    +0.252 C 
ENDBRANCH  18  23
BRANCH   3  25
ATOM     25  C   UNL     1      30.655 -24.245 -15.107  0.00  0.00    +0.028 C 
BRANCH  25  26
ATOM     26  N   UNL     1      29.614 -23.483 -15.794  0.00  0.00    +0.396 N 
ATOM     27  N   UNL     1      26.873 -22.664 -16.212  0.00  0.00    +0.383 N 
ATOM     28  C   UNL     1      28.636 -24.383 -16.419  0.00  0.00    -0.098 C 
ATOM     29  C   UNL     1      28.944 -22.563 -14.867  0.00  0.00    -0.098 C 
ATOM     30  C   UNL     1      27.543 -23.585 -17.138  0.00  0.00    -0.101 C 
ATOM     31  C   UNL     1      27.851 -21.764 -15.587  0.00  0.00    -0.101 C 
ATOM     32  C   UNL     1      25.834 -21.901 -16.901  0.00  0.00    -0.101 C 
ATOM     33  H   UNL     1      30.059 -22.933 -16.528  0.00  0.00    -0.077 HD
ATOM     34  H   UNL     1      26.427 -23.213 -15.479  0.00  0.00    -0.080 HD
ENDBRANCH  25  26
ENDBRANCH   3  25
TORSDOF 3
ENDMDL
