MODEL 1
REMARK VINA RESULT:     -12.6      0.000      0.000
REMARK  Name = 46207733
REMARK  4 active torsions:
REMARK  status: ('A' for Active; 'I' for Inactive)
REMARK    1  A    between atoms: N_2  and  C_16
REMARK    2  A    between atoms: C_10  and  C_24
REMARK    3  A    between atoms: C_17  and  O_22
REMARK    4  A    between atoms: C_24  and  C_26
REMARK                            x       y       z     vdW  Elec       q    Type
REMARK                         _______ _______ _______ _____ _____    ______ ____
ROOT
ATOM      1  O   UNL     1      34.652 -14.146 -21.180  0.00  0.00    -0.274 OA
ATOM      2  N   UNL     1      33.512 -13.653 -23.149  0.00  0.00    -0.257 N 
ATOM      3  N   UNL     1      33.202 -15.315 -24.815  0.00  0.00    -0.252 NA
ATOM      4  C   UNL     1      34.213 -14.486 -22.274  0.00  0.00    +0.236 C 
ATOM      5  C   UNL     1      33.050 -14.115 -24.365  0.00  0.00    +0.222 C 
ATOM      6  C   UNL     1      34.408 -15.873 -22.757  0.00  0.00    +0.138 C 
ATOM      7  C   UNL     1      33.897 -16.242 -24.012  0.00  0.00    +0.068 C 
ATOM      8  C   UNL     1      34.083 -17.571 -24.477  0.00  0.00    +0.014 C 
ATOM      9  C   UNL     1      35.095 -16.792 -21.963  0.00  0.00    -0.015 C 
ATOM     10  C   UNL     1      35.280 -18.094 -22.417  0.00  0.00    -0.021 C 
ATOM     11  C   UNL     1      34.783 -18.498 -23.664  0.00  0.00    -0.003 C 
ATOM     12  C   UNL     1      33.599 -18.020 -25.726  0.00  0.00    +0.001 C 
ATOM     13  C   UNL     1      34.975 -19.816 -24.112  0.00  0.00    -0.000 C 
ATOM     14  C   UNL     1      33.799 -19.333 -26.155  0.00  0.00    +0.000 C 
ATOM     15  C   UNL     1      34.487 -20.230 -25.349  0.00  0.00    -0.000 C 
ENDROOT
BRANCH   2  16
ATOM     16  C   UNL     1      33.268 -12.278 -22.774  0.00  0.00    +0.104 C 
ATOM     17  C   UNL     1      31.870 -12.127 -22.161  0.00  0.00    +0.129 C 
ATOM     18  C   UNL     1      33.454 -11.363 -23.988  0.00  0.00    +0.022 C 
ATOM     19  C   UNL     1      31.539 -10.664 -21.861  0.00  0.00    +0.031 C 
ATOM     20  C   UNL     1      33.126  -9.909 -23.663  0.00  0.00    +0.002 C 
ATOM     21  C   UNL     1      31.723  -9.773 -23.081  0.00  0.00    +0.003 C 
BRANCH  17  22
ATOM     22  O   UNL     1      31.817 -12.866 -20.942  0.00  0.00    -0.383 OA
ATOM     23  H   UNL     1      30.892 -13.047 -20.713  0.00  0.00    +0.210 HD
ENDBRANCH  17  22
ENDBRANCH   2  16
BRANCH  10  24
ATOM     24  C   UNL     1      36.026 -19.029 -21.515  0.00  0.00    +0.054 C 
BRANCH  24  26
ATOM     25  N   UNL     1      34.917 -21.775 -19.146  0.00  0.00    -0.248 NA
ATOM     26  C   UNL     1      35.130 -19.947 -20.714  0.00  0.00    +0.001 C 
ATOM     27  C   UNL     1      33.745 -19.838 -20.787  0.00  0.00    -0.001 C 
ATOM     28  C   UNL     1      35.662 -20.922 -19.887  0.00  0.00    +0.094 C 
ATOM     29  C   UNL     1      32.946 -20.696 -20.040  0.00  0.00    +0.014 C 
ATOM     30  C   UNL     1      33.575 -21.638 -19.241  0.00  0.00    +0.059 C 
ATOM     31  C   UNL     1      32.749 -22.577 -18.425  0.00  0.00    +0.052 C 
ENDBRANCH  24  26
ENDBRANCH  10  24
TORSDOF 4
ENDMDL
MODEL 2
REMARK VINA RESULT:     -11.9      2.061      7.730
REMARK  Name = 46207733
REMARK  4 active torsions:
REMARK  status: ('A' for Active; 'I' for Inactive)
REMARK    1  A    between atoms: N_2  and  C_16
REMARK    2  A    between atoms: C_10  and  C_24
REMARK    3  A    between atoms: C_17  and  O_22
REMARK    4  A    between atoms: C_24  and  C_26
REMARK                            x       y       z     vdW  Elec       q    Type
REMARK                         _______ _______ _______ _____ _____    ______ ____
ROOT
ATOM      1  O   UNL     1      34.853 -16.424 -20.870  0.00  0.00    -0.274 OA
ATOM      2  N   UNL     1      34.321 -18.392 -21.993  0.00  0.00    -0.257 N 
ATOM      3  N   UNL     1      33.496 -18.331 -24.218  0.00  0.00    -0.252 NA
ATOM      4  C   UNL     1      34.446 -17.007 -21.870  0.00  0.00    +0.236 C 
ATOM      5  C   UNL     1      33.854 -18.971 -23.155  0.00  0.00    +0.222 C 
ATOM      6  C   UNL     1      34.043 -16.237 -23.070  0.00  0.00    +0.138 C 
ATOM      7  C   UNL     1      33.581 -16.924 -24.205  0.00  0.00    +0.068 C 
ATOM      8  C   UNL     1      33.195 -16.187 -25.356  0.00  0.00    +0.014 C 
ATOM      9  C   UNL     1      34.127 -14.844 -23.059  0.00  0.00    -0.015 C 
ATOM     10  C   UNL     1      33.748 -14.121 -24.185  0.00  0.00    -0.021 C 
ATOM     11  C   UNL     1      33.282 -14.773 -25.336  0.00  0.00    -0.003 C 
ATOM     12  C   UNL     1      32.720 -16.804 -26.535  0.00  0.00    +0.001 C 
ATOM     13  C   UNL     1      32.903 -14.031 -26.467  0.00  0.00    -0.000 C 
ATOM     14  C   UNL     1      32.347 -16.052 -27.650  0.00  0.00    +0.000 C 
ATOM     15  C   UNL     1      32.438 -14.667 -27.616  0.00  0.00    -0.000 C 
ENDROOT
BRANCH   2  16
ATOM     16  C   UNL     1      34.686 -19.237 -20.878  0.00  0.00    +0.104 C 
ATOM     17  C   UNL     1      36.045 -19.904 -21.129  0.00  0.00    +0.129 C 
ATOM     18  C   UNL     1      33.587 -20.274 -20.623  0.00  0.00    +0.022 C 
ATOM     19  C   UNL     1      36.404 -20.893 -20.019  0.00  0.00    +0.031 C 
ATOM     20  C   UNL     1      33.964 -21.243 -19.508  0.00  0.00    +0.002 C 
ATOM     21  C   UNL     1      35.303 -21.919 -19.787  0.00  0.00    +0.003 C 
BRANCH  17  22
ATOM     22  O   UNL     1      37.052 -18.895 -21.184  0.00  0.00    -0.383 OA
ATOM     23  H   UNL     1      37.856 -19.217 -20.748  0.00  0.00    +0.210 HD
ENDBRANCH  17  22
ENDBRANCH   2  16
BRANCH  10  24
ATOM     24  C   UNL     1      33.863 -12.629 -24.105  0.00  0.00    +0.054 C 
BRANCH  24  26
ATOM     25  N   UNL     1      31.827 -10.015 -22.260  0.00  0.00    -0.248 NA
ATOM     26  C   UNL     1      32.921 -11.999 -23.103  0.00  0.00    +0.001 C 
ATOM     27  C   UNL     1      32.295 -12.768 -22.128  0.00  0.00    -0.001 C 
ATOM     28  C   UNL     1      32.657 -10.640 -23.127  0.00  0.00    +0.094 C 
ATOM     29  C   UNL     1      31.435 -12.162 -21.219  0.00  0.00    +0.014 C 
ATOM     30  C   UNL     1      31.236 -10.794 -21.327  0.00  0.00    +0.059 C 
ATOM     31  C   UNL     1      30.319 -10.109 -20.368  0.00  0.00    +0.052 C 
ENDBRANCH  24  26
ENDBRANCH  10  24
TORSDOF 4
ENDMDL
MODEL 3
REMARK VINA RESULT:     -11.4      5.374      9.896
REMARK  Name = 46207733
REMARK  4 active torsions:
REMARK  status: ('A' for Active; 'I' for Inactive)
REMARK    1  A    between atoms: N_2  and  C_16
REMARK    2  A    between atoms: C_10  and  C_24
REMARK    3  A    between atoms: C_17  and  O_22
REMARK    4  A    between atoms: C_24  and  C_26
REMARK                            x       y       z     vdW  Elec       q    Type
REMARK                         _______ _______ _______ _____ _____    ______ ____
ROOT
ATOM      1  O   UNL     1      32.426 -22.348 -18.775  0.00  0.00    -0.274 OA
ATOM      2  N   UNL     1      34.683 -21.778 -18.803  0.00  0.00    -0.257 N 
ATOM      3  N   UNL     1      36.083 -22.288 -16.956  0.00  0.00    -0.252 NA
ATOM      4  C   UNL     1      33.529 -22.323 -18.238  0.00  0.00    +0.236 C 
ATOM      5  C   UNL     1      35.888 -21.791 -18.132  0.00  0.00    +0.222 C 
ATOM      6  C   UNL     1      33.713 -22.904 -16.887  0.00  0.00    +0.138 C 
ATOM      7  C   UNL     1      34.984 -22.866 -16.290  0.00  0.00    +0.068 C 
ATOM      8  C   UNL     1      35.162 -23.421 -14.995  0.00  0.00    +0.014 C 
ATOM      9  C   UNL     1      32.626 -23.477 -16.226  0.00  0.00    -0.015 C 
ATOM     10  C   UNL     1      32.798 -24.020 -14.957  0.00  0.00    -0.021 C 
ATOM     11  C   UNL     1      34.052 -24.001 -14.330  0.00  0.00    -0.003 C 
ATOM     12  C   UNL     1      36.407 -23.423 -14.327  0.00  0.00    +0.001 C 
ATOM     13  C   UNL     1      34.214 -24.554 -13.048  0.00  0.00    -0.000 C 
ATOM     14  C   UNL     1      36.550 -23.976 -13.054  0.00  0.00    +0.000 C 
ATOM     15  C   UNL     1      35.454 -24.541 -12.415  0.00  0.00    -0.000 C 
ENDROOT
BRANCH   2  16
ATOM     16  C   UNL     1      34.613 -21.184 -20.120  0.00  0.00    +0.104 C 
ATOM     17  C   UNL     1      35.807 -20.250 -20.355  0.00  0.00    +0.129 C 
ATOM     18  C   UNL     1      33.279 -20.451 -20.295  0.00  0.00    +0.022 C 
ATOM     19  C   UNL     1      35.699 -19.520 -21.695  0.00  0.00    +0.031 C 
ATOM     20  C   UNL     1      33.192 -19.737 -21.640  0.00  0.00    +0.002 C 
ATOM     21  C   UNL     1      34.371 -18.791 -21.845  0.00  0.00    +0.003 C 
BRANCH  17  22
ATOM     22  O   UNL     1      37.006 -21.023 -20.352  0.00  0.00    -0.383 OA
ATOM     23  H   UNL     1      37.150 -21.401 -21.234  0.00  0.00    +0.210 HD
ENDBRANCH  17  22
ENDBRANCH   2  16
BRANCH  10  24
ATOM     24  C   UNL     1      31.590 -24.619 -14.304  0.00  0.00    +0.054 C 
BRANCH  24  26
ATOM     25  N   UNL     1      28.781 -22.195 -15.090  0.00  0.00    -0.248 NA
ATOM     26  C   UNL     1      30.281 -24.073 -14.830  0.00  0.00    +0.001 C 
ATOM     27  C   UNL     1      29.387 -24.892 -15.513  0.00  0.00    -0.001 C 
ATOM     28  C   UNL     1      29.935 -22.745 -14.647  0.00  0.00    +0.094 C 
ATOM     29  C   UNL     1      28.190 -24.362 -15.985  0.00  0.00    +0.014 C 
ATOM     30  C   UNL     1      27.937 -23.020 -15.750  0.00  0.00    +0.059 C 
ATOM     31  C   UNL     1      26.663 -22.418 -16.241  0.00  0.00    +0.052 C 
ENDBRANCH  24  26
ENDBRANCH  10  24
TORSDOF 4
ENDMDL
MODEL 4
REMARK VINA RESULT:     -11.4      6.487     11.898
REMARK  Name = 46207733
REMARK  4 active torsions:
REMARK  status: ('A' for Active; 'I' for Inactive)
REMARK    1  A    between atoms: N_2  and  C_16
REMARK    2  A    between atoms: C_10  and  C_24
REMARK    3  A    between atoms: C_17  and  O_22
REMARK    4  A    between atoms: C_24  and  C_26
REMARK                            x       y       z     vdW  Elec       q    Type
REMARK                         _______ _______ _______ _____ _____    ______ ____
ROOT
ATOM      1  O   UNL     1      36.019 -23.959 -15.906  0.00  0.00    -0.274 OA
ATOM      2  N   UNL     1      35.070 -24.405 -13.828  0.00  0.00    -0.257 N 
ATOM      3  N   UNL     1      32.743 -24.102 -13.470  0.00  0.00    -0.252 NA
ATOM      4  C   UNL     1      35.042 -24.005 -15.165  0.00  0.00    +0.236 C 
ATOM      5  C   UNL     1      33.923 -24.429 -13.061  0.00  0.00    +0.222 C 
ATOM      6  C   UNL     1      33.703 -23.619 -15.672  0.00  0.00    +0.138 C 
ATOM      7  C   UNL     1      32.598 -23.680 -14.807  0.00  0.00    +0.068 C 
ATOM      8  C   UNL     1      31.315 -23.311 -15.291  0.00  0.00    +0.014 C 
ATOM      9  C   UNL     1      33.558 -23.202 -16.995  0.00  0.00    -0.015 C 
ATOM     10  C   UNL     1      32.302 -22.839 -17.471  0.00  0.00    -0.021 C 
ATOM     11  C   UNL     1      31.176 -22.887 -16.637  0.00  0.00    -0.003 C 
ATOM     12  C   UNL     1      30.155 -23.344 -14.486  0.00  0.00    +0.001 C 
ATOM     13  C   UNL     1      29.912 -22.519 -17.129  0.00  0.00    -0.000 C 
ATOM     14  C   UNL     1      28.907 -22.974 -14.990  0.00  0.00    +0.000 C 
ATOM     15  C   UNL     1      28.786 -22.561 -16.310  0.00  0.00    -0.000 C 
ENDROOT
BRANCH   2  16
ATOM     16  C   UNL     1      36.327 -24.801 -13.234  0.00  0.00    +0.104 C 
ATOM     17  C   UNL     1      37.172 -23.568 -12.887  0.00  0.00    +0.129 C 
ATOM     18  C   UNL     1      37.075 -25.752 -14.173  0.00  0.00    +0.022 C 
ATOM     19  C   UNL     1      38.555 -23.959 -12.363  0.00  0.00    +0.031 C 
ATOM     20  C   UNL     1      38.447 -26.133 -13.627  0.00  0.00    +0.002 C 
ATOM     21  C   UNL     1      39.284 -24.897 -13.315  0.00  0.00    +0.003 C 
BRANCH  17  22
ATOM     22  O   UNL     1      36.499 -22.815 -11.880  0.00  0.00    -0.383 OA
ATOM     23  H   UNL     1      36.921 -21.947 -11.788  0.00  0.00    +0.210 HD
ENDBRANCH  17  22
ENDBRANCH   2  16
BRANCH  10  24
ATOM     24  C   UNL     1      32.217 -22.401 -18.900  0.00  0.00    +0.054 C 
BRANCH  24  26
ATOM     25  N   UNL     1      34.356 -19.771 -20.603  0.00  0.00    -0.248 NA
ATOM     26  C   UNL     1      33.436 -21.642 -19.378  0.00  0.00    +0.001 C 
ATOM     27  C   UNL     1      34.719 -22.076 -19.060  0.00  0.00    -0.001 C 
ATOM     28  C   UNL     1      33.309 -20.495 -20.144  0.00  0.00    +0.094 C 
ATOM     29  C   UNL     1      35.821 -21.358 -19.514  0.00  0.00    +0.014 C 
ATOM     30  C   UNL     1      35.588 -20.223 -20.274  0.00  0.00    +0.059 C 
ATOM     31  C   UNL     1      36.747 -19.427 -20.778  0.00  0.00    +0.052 C 
ENDBRANCH  24  26
ENDBRANCH  10  24
TORSDOF 4
ENDMDL
MODEL 5
REMARK VINA RESULT:     -11.3      5.151      9.185
REMARK  Name = 46207733
REMARK  4 active torsions:
REMARK  status: ('A' for Active; 'I' for Inactive)
REMARK    1  A    between atoms: N_2  and  C_16
REMARK    2  A    between atoms: C_10  and  C_24
REMARK    3  A    between atoms: C_17  and  O_22
REMARK    4  A    between atoms: C_24  and  C_26
REMARK                            x       y       z     vdW  Elec       q    Type
REMARK                         _______ _______ _______ _____ _____    ______ ____
ROOT
ATOM      1  O   UNL     1      36.079 -22.166 -18.374  0.00  0.00    -0.274 OA
ATOM      2  N   UNL     1      34.234 -21.373 -19.551  0.00  0.00    -0.257 N 
ATOM      3  N   UNL     1      32.033 -21.744 -18.745  0.00  0.00    -0.252 NA
ATOM      4  C   UNL     1      34.865 -22.034 -18.496  0.00  0.00    +0.236 C 
ATOM      5  C   UNL     1      32.860 -21.267 -19.614  0.00  0.00    +0.222 C 
ATOM      6  C   UNL     1      33.948 -22.596 -17.476  0.00  0.00    +0.138 C 
ATOM      7  C   UNL     1      32.562 -22.433 -17.634  0.00  0.00    +0.068 C 
ATOM      8  C   UNL     1      31.682 -22.970 -16.658  0.00  0.00    +0.014 C 
ATOM      9  C   UNL     1      34.470 -23.278 -16.377  0.00  0.00    -0.015 C 
ATOM     10  C   UNL     1      33.609 -23.806 -15.420  0.00  0.00    -0.021 C 
ATOM     11  C   UNL     1      32.220 -23.662 -15.544  0.00  0.00    -0.003 C 
ATOM     12  C   UNL     1      30.277 -22.849 -16.745  0.00  0.00    +0.001 C 
ATOM     13  C   UNL     1      31.361 -24.200 -14.571  0.00  0.00    -0.000 C 
ATOM     14  C   UNL     1      29.437 -23.389 -15.770  0.00  0.00    +0.000 C 
ATOM     15  C   UNL     1      29.979 -24.065 -14.684  0.00  0.00    -0.000 C 
ENDROOT
BRANCH   2  16
ATOM     16  C   UNL     1      35.038 -20.789 -20.602  0.00  0.00    +0.104 C 
ATOM     17  C   UNL     1      35.850 -19.603 -20.064  0.00  0.00    +0.129 C 
ATOM     18  C   UNL     1      34.147 -20.376 -21.777  0.00  0.00    +0.022 C 
ATOM     19  C   UNL     1      36.622 -18.893 -21.177  0.00  0.00    +0.031 C 
ATOM     20  C   UNL     1      34.939 -19.677 -22.877  0.00  0.00    +0.002 C 
ATOM     21  C   UNL     1      35.716 -18.484 -22.331  0.00  0.00    +0.003 C 
BRANCH  17  22
ATOM     22  O   UNL     1      36.782 -20.082 -19.096  0.00  0.00    -0.383 OA
ATOM     23  H   UNL     1      37.103 -19.340 -18.560  0.00  0.00    +0.210 HD
ENDBRANCH  17  22
ENDBRANCH   2  16
BRANCH  10  24
ATOM     24  C   UNL     1      34.236 -24.526 -14.265  0.00  0.00    +0.054 C 
BRANCH  24  26
ATOM     25  N   UNL     1      37.997 -24.036 -14.275  0.00  0.00    -0.248 NA
ATOM     26  C   UNL     1      35.711 -24.805 -14.450  0.00  0.00    +0.001 C 
ATOM     27  C   UNL     1      36.152 -26.027 -14.946  0.00  0.00    -0.001 C 
ATOM     28  C   UNL     1      36.664 -23.851 -14.132  0.00  0.00    +0.094 C 
ATOM     29  C   UNL     1      37.515 -26.255 -15.107  0.00  0.00    +0.014 C 
ATOM     30  C   UNL     1      38.388 -25.237 -14.759  0.00  0.00    +0.059 C 
ATOM     31  C   UNL     1      39.858 -25.445 -14.918  0.00  0.00    +0.052 C 
ENDBRANCH  24  26
ENDBRANCH  10  24
TORSDOF 4
ENDMDL
MODEL 6
REMARK VINA RESULT:     -10.8      6.186     11.556
REMARK  Name = 46207733
REMARK  4 active torsions:
REMARK  status: ('A' for Active; 'I' for Inactive)
REMARK    1  A    between atoms: N_2  and  C_16
REMARK    2  A    between atoms: C_10  and  C_24
REMARK    3  A    between atoms: C_17  and  O_22
REMARK    4  A    between atoms: C_24  and  C_26
REMARK                            x       y       z     vdW  Elec       q    Type
REMARK                         _______ _______ _______ _____ _____    ______ ____
ROOT
ATOM      1  O   UNL     1      31.682 -22.781 -16.567  0.00  0.00    -0.274 OA
ATOM      2  N   UNL     1      31.087 -23.904 -14.616  0.00  0.00    -0.257 N 
ATOM      3  N   UNL     1      32.749 -24.651 -13.096  0.00  0.00    -0.252 NA
ATOM      4  C   UNL     1      31.991 -23.346 -15.522  0.00  0.00    +0.236 C 
ATOM      5  C   UNL     1      31.517 -24.522 -13.460  0.00  0.00    +0.222 C 
ATOM      6  C   UNL     1      33.417 -23.475 -15.139  0.00  0.00    +0.138 C 
ATOM      7  C   UNL     1      33.749 -24.124 -13.938  0.00  0.00    +0.068 C 
ATOM      8  C   UNL     1      35.115 -24.248 -13.569  0.00  0.00    +0.014 C 
ATOM      9  C   UNL     1      34.407 -22.953 -15.971  0.00  0.00    -0.015 C 
ATOM     10  C   UNL     1      35.746 -23.075 -15.612  0.00  0.00    -0.021 C 
ATOM     11  C   UNL     1      36.115 -23.716 -14.421  0.00  0.00    -0.003 C 
ATOM     12  C   UNL     1      35.530 -24.887 -12.379  0.00  0.00    +0.001 C 
ATOM     13  C   UNL     1      37.470 -23.833 -14.068  0.00  0.00    -0.000 C 
ATOM     14  C   UNL     1      36.881 -24.994 -12.044  0.00  0.00    +0.000 C 
ATOM     15  C   UNL     1      37.850 -24.468 -12.888  0.00  0.00    -0.000 C 
ENDROOT
BRANCH   2  16
ATOM     16  C   UNL     1      29.670 -23.833 -14.896  0.00  0.00    +0.104 C 
ATOM     17  C   UNL     1      29.314 -24.712 -16.103  0.00  0.00    +0.129 C 
ATOM     18  C   UNL     1      29.251 -22.376 -15.116  0.00  0.00    +0.022 C 
ATOM     19  C   UNL     1      27.842 -24.568 -16.493  0.00  0.00    +0.031 C 
ATOM     20  C   UNL     1      27.779 -22.257 -15.497  0.00  0.00    +0.002 C 
ATOM     21  C   UNL     1      27.448 -23.114 -16.715  0.00  0.00    +0.003 C 
BRANCH  17  22
ATOM     22  O   UNL     1      29.566 -26.076 -15.771  0.00  0.00    -0.383 OA
ATOM     23  H   UNL     1      28.869 -26.635 -16.147  0.00  0.00    +0.210 HD
ENDBRANCH  17  22
ENDBRANCH   2  16
BRANCH  10  24
ATOM     24  C   UNL     1      36.757 -22.493 -16.550  0.00  0.00    +0.054 C 
BRANCH  24  26
ATOM     25  N   UNL     1      36.270 -20.197 -19.529  0.00  0.00    -0.248 NA
ATOM     26  C   UNL     1      36.151 -21.871 -17.789  0.00  0.00    +0.001 C 
ATOM     27  C   UNL     1      34.965 -22.358 -18.327  0.00  0.00    -0.001 C 
ATOM     28  C   UNL     1      36.759 -20.799 -18.421  0.00  0.00    +0.094 C 
ATOM     29  C   UNL     1      34.430 -21.765 -19.466  0.00  0.00    +0.014 C 
ATOM     30  C   UNL     1      35.115 -20.698 -20.025  0.00  0.00    +0.059 C 
ATOM     31  C   UNL     1      34.571 -20.037 -21.248  0.00  0.00    +0.052 C 
ENDBRANCH  24  26
ENDBRANCH  10  24
TORSDOF 4
ENDMDL
MODEL 7
REMARK VINA RESULT:     -10.6      2.393      8.619
REMARK  Name = 46207733
REMARK  4 active torsions:
REMARK  status: ('A' for Active; 'I' for Inactive)
REMARK    1  A    between atoms: N_2  and  C_16
REMARK    2  A    between atoms: C_10  and  C_24
REMARK    3  A    between atoms: C_17  and  O_22
REMARK    4  A    between atoms: C_24  and  C_26
REMARK                            x       y       z     vdW  Elec       q    Type
REMARK                         _______ _______ _______ _____ _____    ______ ____
ROOT
ATOM      1  O   UNL     1      34.596 -15.699 -20.833  0.00  0.00    -0.274 OA
ATOM      2  N   UNL     1      34.735 -17.486 -22.319  0.00  0.00    -0.257 N 
ATOM      3  N   UNL     1      34.160 -17.206 -24.605  0.00  0.00    -0.252 NA
ATOM      4  C   UNL     1      34.468 -16.163 -21.962  0.00  0.00    +0.236 C 
ATOM      5  C   UNL     1      34.566 -17.929 -23.615  0.00  0.00    +0.222 C 
ATOM      6  C   UNL     1      33.998 -15.301 -23.073  0.00  0.00    +0.138 C 
ATOM      7  C   UNL     1      33.859 -15.851 -24.358  0.00  0.00    +0.068 C 
ATOM      8  C   UNL     1      33.410 -15.027 -25.423  0.00  0.00    +0.014 C 
ATOM      9  C   UNL     1      33.700 -13.960 -22.830  0.00  0.00    -0.015 C 
ATOM     10  C   UNL     1      33.259 -13.151 -23.872  0.00  0.00    -0.021 C 
ATOM     11  C   UNL     1      33.109 -13.665 -25.168  0.00  0.00    -0.003 C 
ATOM     12  C   UNL     1      33.244 -15.504 -26.742  0.00  0.00    +0.001 C 
ATOM     13  C   UNL     1      32.663 -12.838 -26.212  0.00  0.00    -0.000 C 
ATOM     14  C   UNL     1      32.800 -14.669 -27.769  0.00  0.00    +0.000 C 
ATOM     15  C   UNL     1      32.508 -13.337 -27.504  0.00  0.00    -0.000 C 
ENDROOT
BRANCH   2  16
ATOM     16  C   UNL     1      35.198 -18.412 -21.310  0.00  0.00    +0.104 C 
ATOM     17  C   UNL     1      36.451 -19.154 -21.792  0.00  0.00    +0.129 C 
ATOM     18  C   UNL     1      34.075 -19.384 -20.935  0.00  0.00    +0.022 C 
ATOM     19  C   UNL     1      36.897 -20.222 -20.792  0.00  0.00    +0.031 C 
ATOM     20  C   UNL     1      34.540 -20.434 -19.932  0.00  0.00    +0.002 C 
ATOM     21  C   UNL     1      35.769 -21.182 -20.439  0.00  0.00    +0.003 C 
BRANCH  17  22
ATOM     22  O   UNL     1      37.511 -18.213 -21.957  0.00  0.00    -0.383 OA
ATOM     23  H   UNL     1      37.398 -17.741 -22.796  0.00  0.00    +0.210 HD
ENDBRANCH  17  22
ENDBRANCH   2  16
BRANCH  10  24
ATOM     24  C   UNL     1      32.957 -11.722 -23.542  0.00  0.00    +0.054 C 
BRANCH  24  26
ATOM     25  N   UNL     1      33.406  -8.902 -26.039  0.00  0.00    -0.248 NA
ATOM     26  C   UNL     1      33.622 -10.729 -24.470  0.00  0.00    +0.001 C 
ATOM     27  C   UNL     1      35.005 -10.709 -24.624  0.00  0.00    -0.001 C 
ATOM     28  C   UNL     1      32.875  -9.814 -25.192  0.00  0.00    +0.094 C 
ATOM     29  C   UNL     1      35.588  -9.786 -25.485  0.00  0.00    +0.014 C 
ATOM     30  C   UNL     1      34.753  -8.912 -26.162  0.00  0.00    +0.059 C 
ATOM     31  C   UNL     1      35.345  -7.907 -27.095  0.00  0.00    +0.052 C 
ENDBRANCH  24  26
ENDBRANCH  10  24
TORSDOF 4
ENDMDL
MODEL 8
REMARK VINA RESULT:     -10.1      4.773     11.020
REMARK  Name = 46207733
REMARK  4 active torsions:
REMARK  status: ('A' for Active; 'I' for Inactive)
REMARK    1  A    between atoms: N_2  and  C_16
REMARK    2  A    between atoms: C_10  and  C_24
REMARK    3  A    between atoms: C_17  and  O_22
REMARK    4  A    between atoms: C_24  and  C_26
REMARK                            x       y       z     vdW  Elec       q    Type
REMARK                         _______ _______ _______ _____ _____    ______ ____
ROOT
ATOM      1  O   UNL     1      33.932 -12.023 -27.313  0.00  0.00    -0.274 OA
ATOM      2  N   UNL     1      33.091 -13.242 -25.517  0.00  0.00    -0.257 N 
ATOM      3  N   UNL     1      32.529 -12.163 -23.479  0.00  0.00    -0.252 NA
ATOM      4  C   UNL     1      33.510 -12.077 -26.162  0.00  0.00    +0.236 C 
ATOM      5  C   UNL     1      32.628 -13.217 -24.217  0.00  0.00    +0.222 C 
ATOM      6  C   UNL     1      33.412 -10.844 -25.346  0.00  0.00    +0.138 C 
ATOM      7  C   UNL     1      32.925 -10.927 -24.031  0.00  0.00    +0.068 C 
ATOM      8  C   UNL     1      32.831  -9.747 -23.247  0.00  0.00    +0.014 C 
ATOM      9  C   UNL     1      33.804  -9.621 -25.890  0.00  0.00    -0.015 C 
ATOM     10  C   UNL     1      33.713  -8.463 -25.124  0.00  0.00    -0.021 C 
ATOM     11  C   UNL     1      33.232  -8.508 -23.808  0.00  0.00    -0.003 C 
ATOM     12  C   UNL     1      32.353  -9.747 -21.918  0.00  0.00    +0.001 C 
ATOM     13  C   UNL     1      33.144  -7.332 -23.043  0.00  0.00    -0.000 C 
ATOM     14  C   UNL     1      32.273  -8.570 -21.172  0.00  0.00    +0.000 C 
ATOM     15  C   UNL     1      32.669  -7.363 -21.734  0.00  0.00    -0.000 C 
ENDROOT
BRANCH   2  16
ATOM     16  C   UNL     1      33.147 -14.502 -26.225  0.00  0.00    +0.104 C 
ATOM     17  C   UNL     1      31.830 -14.761 -26.968  0.00  0.00    +0.129 C 
ATOM     18  C   UNL     1      33.478 -15.637 -25.251  0.00  0.00    +0.022 C 
ATOM     19  C   UNL     1      31.816 -16.139 -27.632  0.00  0.00    +0.031 C 
ATOM     20  C   UNL     1      33.466 -16.999 -25.936  0.00  0.00    +0.002 C 
ATOM     21  C   UNL     1      32.140 -17.253 -26.646  0.00  0.00    +0.003 C 
BRANCH  17  22
ATOM     22  O   UNL     1      31.666 -13.767 -27.978  0.00  0.00    -0.383 OA
ATOM     23  H   UNL     1      31.062 -14.097 -28.662  0.00  0.00    +0.210 HD
ENDBRANCH  17  22
ENDBRANCH   2  16
BRANCH  10  24
ATOM     24  C   UNL     1      34.150  -7.184 -25.770  0.00  0.00    +0.054 C 
BRANCH  24  26
ATOM     25  N   UNL     1      32.939  -5.836 -29.101  0.00  0.00    -0.248 NA
ATOM     26  C   UNL     1      33.221  -6.706 -26.863  0.00  0.00    +0.001 C 
ATOM     27  C   UNL     1      31.843  -6.685 -26.673  0.00  0.00    -0.001 C 
ATOM     28  C   UNL     1      33.714  -6.276 -28.084  0.00  0.00    +0.094 C 
ATOM     29  C   UNL     1      31.013  -6.239 -27.696  0.00  0.00    +0.014 C 
ATOM     30  C   UNL     1      31.605  -5.830 -28.881  0.00  0.00    +0.059 C 
ATOM     31  C   UNL     1      30.745  -5.345 -30.000  0.00  0.00    +0.052 C 
ENDBRANCH  24  26
ENDBRANCH  10  24
TORSDOF 4
ENDMDL
MODEL 9
REMARK VINA RESULT:      -9.9      4.855     11.177
REMARK  Name = 46207733
REMARK  4 active torsions:
REMARK  status: ('A' for Active; 'I' for Inactive)
REMARK    1  A    between atoms: N_2  and  C_16
REMARK    2  A    between atoms: C_10  and  C_24
REMARK    3  A    between atoms: C_17  and  O_22
REMARK    4  A    between atoms: C_24  and  C_26
REMARK                            x       y       z     vdW  Elec       q    Type
REMARK                         _______ _______ _______ _____ _____    ______ ____
ROOT
ATOM      1  O   UNL     1      33.584 -11.431 -26.944  0.00  0.00    -0.274 OA
ATOM      2  N   UNL     1      32.984 -12.855 -25.203  0.00  0.00    -0.257 N 
ATOM      3  N   UNL     1      32.391 -11.983 -23.076  0.00  0.00    -0.252 NA
ATOM      4  C   UNL     1      33.226 -11.609 -25.784  0.00  0.00    +0.236 C 
ATOM      5  C   UNL     1      32.583 -12.969 -23.887  0.00  0.00    +0.222 C 
ATOM      6  C   UNL     1      33.017 -10.451 -24.883  0.00  0.00    +0.138 C 
ATOM      7  C   UNL     1      32.607 -10.676 -23.559  0.00  0.00    +0.068 C 
ATOM      8  C   UNL     1      32.406  -9.567 -22.694  0.00  0.00    +0.014 C 
ATOM      9  C   UNL     1      33.230  -9.157 -25.359  0.00  0.00    -0.015 C 
ATOM     10  C   UNL     1      33.035  -8.069 -24.513  0.00  0.00    -0.021 C 
ATOM     11  C   UNL     1      32.625  -8.256 -23.185  0.00  0.00    -0.003 C 
ATOM     12  C   UNL     1      31.994  -9.710 -21.350  0.00  0.00    +0.001 C 
ATOM     13  C   UNL     1      32.431  -7.150 -22.340  0.00  0.00    -0.000 C 
ATOM     14  C   UNL     1      31.806  -8.600 -20.524  0.00  0.00    +0.000 C 
ATOM     15  C   UNL     1      32.025  -7.321 -21.019  0.00  0.00    -0.000 C 
ENDROOT
BRANCH   2  16
ATOM     16  C   UNL     1      33.160 -14.051 -25.995  0.00  0.00    +0.104 C 
ATOM     17  C   UNL     1      31.918 -14.315 -26.857  0.00  0.00    +0.129 C 
ATOM     18  C   UNL     1      33.478 -15.242 -25.085  0.00  0.00    +0.022 C 
ATOM     19  C   UNL     1      32.028 -15.636 -27.620  0.00  0.00    +0.031 C 
ATOM     20  C   UNL     1      33.591 -16.545 -25.869  0.00  0.00    +0.002 C 
ATOM     21  C   UNL     1      32.337 -16.806 -26.697  0.00  0.00    +0.003 C 
BRANCH  17  22
ATOM     22  O   UNL     1      31.777 -13.254 -27.800  0.00  0.00    -0.383 OA
ATOM     23  H   UNL     1      30.896 -12.857 -27.712  0.00  0.00    +0.210 HD
ENDBRANCH  17  22
ENDBRANCH   2  16
BRANCH  10  24
ATOM     24  C   UNL     1      33.281  -6.708 -25.088  0.00  0.00    +0.054 C 
BRANCH  24  26
ATOM     25  N   UNL     1      30.805  -3.890 -25.647  0.00  0.00    -0.248 NA
ATOM     26  C   UNL     1      32.017  -5.975 -25.480  0.00  0.00    +0.001 C 
ATOM     27  C   UNL     1      30.930  -6.659 -26.014  0.00  0.00    -0.001 C 
ATOM     28  C   UNL     1      31.906  -4.604 -25.318  0.00  0.00    +0.094 C 
ATOM     29  C   UNL     1      29.780  -5.959 -26.365  0.00  0.00    +0.014 C 
ATOM     30  C   UNL     1      29.769  -4.588 -26.164  0.00  0.00    +0.059 C 
ATOM     31  C   UNL     1      28.551  -3.804 -26.529  0.00  0.00    +0.052 C 
ENDBRANCH  24  26
ENDBRANCH  10  24
TORSDOF 4
ENDMDL
