MODEL 1
REMARK VINA RESULT:     -13.4      0.000      0.000
REMARK  Name = 23656870
REMARK  4 active torsions:
REMARK  status: ('A' for Active; 'I' for Inactive)
REMARK    1  A    between atoms: N_2  and  C_25
REMARK    2  A    between atoms: N_3  and  C_14
REMARK    3  A    between atoms: C_10  and  C_32
REMARK    4  A    between atoms: C_16  and  N_21
REMARK                            x       y       z     vdW  Elec       q    Type
REMARK                         _______ _______ _______ _____ _____    ______ ____
ROOT
ATOM      1  N   UNL     1      31.683 -23.521 -15.316  0.00  0.00    -0.123 N 
ATOM      2  N   UNL     1      33.952 -23.942 -14.821  0.00  0.00    -0.274 N 
ATOM      3  N   UNL     1      32.550 -22.254 -19.012  0.00  0.00    -0.238 N 
ATOM      4  N   UNL     1      33.256 -23.097 -16.923  0.00  0.00    -0.295 NA
ATOM      5  N   UNL     1      30.950 -22.683 -17.389  0.00  0.00    -0.314 NA
ATOM      6  N   UNL     1      31.276 -23.925 -14.098  0.00  0.00    -0.170 NA
ATOM      7  C   UNL     1      33.009 -23.514 -15.715  0.00  0.00    +0.279 C 
ATOM      8  C   UNL     1      30.671 -23.114 -16.138  0.00  0.00    +0.219 C 
ATOM      9  C   UNL     1      32.214 -22.684 -17.751  0.00  0.00    +0.207 C 
ATOM     10  C   UNL     1      29.518 -23.263 -15.402  0.00  0.00    +0.203 C 
ATOM     11  C   UNL     1      29.951 -23.765 -14.158  0.00  0.00    +0.116 C 
ATOM     12  H   UNL     1      33.613 -24.229 -13.942  0.00  0.00    +0.156 HD
ATOM     13  H   UNL     1      31.873 -22.399 -19.712  0.00  0.00    +0.166 HD
ENDROOT
BRANCH   3  14
ATOM     14  C   UNL     1      33.731 -21.639 -19.424  0.00  0.00    +0.060 C 
ATOM     15  C   UNL     1      33.689 -20.597 -20.351  0.00  0.00    +0.030 C 
ATOM     16  C   UNL     1      34.870 -19.981 -20.761  0.00  0.00    +0.052 C 
ATOM     17  C   UNL     1      34.955 -22.065 -18.908  0.00  0.00    +0.015 C 
ATOM     18  C   UNL     1      36.094 -20.406 -20.247  0.00  0.00    +0.015 C 
ATOM     19  C   UNL     1      36.138 -21.448 -19.319  0.00  0.00    +0.003 C 
BRANCH  16  21
ATOM     20  O   UNL     1      35.020 -17.000 -20.364  0.00  0.00    -0.275 OA
ATOM     21  N   UNL     1      34.828 -18.940 -21.690  0.00  0.00    -0.284 N 
ATOM     22  C   UNL     1      34.902 -17.561 -21.448  0.00  0.00    +0.227 C 
ATOM     23  C   UNL     1      34.821 -16.765 -22.726  0.00  0.00    +0.095 C 
ATOM     24  H   UNL     1      34.736 -19.207 -22.634  0.00  0.00    +0.155 HD
ENDBRANCH  16  21
ENDBRANCH   3  14
BRANCH   2  25
ATOM     25  C   UNL     1      35.336 -24.025 -14.997  0.00  0.00    +0.051 C 
ATOM     26  C   UNL     1      36.012 -25.199 -14.667  0.00  0.00    +0.015 C 
ATOM     27  C   UNL     1      36.042 -22.934 -15.503  0.00  0.00    +0.015 C 
ATOM     28  C   UNL     1      37.393 -25.283 -14.842  0.00  0.00    +0.001 C 
ATOM     29  C   UNL     1      37.423 -23.017 -15.679  0.00  0.00    +0.001 C 
ATOM     30  C   UNL     1      38.099 -24.192 -15.348  0.00  0.00    +0.000 C 
ENDBRANCH   2  25
BRANCH  10  32
ATOM     31  N   UNL     1      27.113 -22.728 -16.173  0.00  0.00    -0.195 NA
ATOM     32  C   UNL     1      28.195 -22.969 -15.827  0.00  0.00    +0.087 C 
ENDBRANCH  10  32
TORSDOF 4
ENDMDL
MODEL 2
REMARK VINA RESULT:     -12.7      2.040      5.581
REMARK  Name = 23656870
REMARK  4 active torsions:
REMARK  status: ('A' for Active; 'I' for Inactive)
REMARK    1  A    between atoms: N_2  and  C_25
REMARK    2  A    between atoms: N_3  and  C_14
REMARK    3  A    between atoms: C_10  and  C_32
REMARK    4  A    between atoms: C_16  and  N_21
REMARK                            x       y       z     vdW  Elec       q    Type
REMARK                         _______ _______ _______ _____ _____    ______ ____
ROOT
ATOM      1  N   UNL     1      35.978 -24.635 -14.493  0.00  0.00    -0.123 N 
ATOM      2  N   UNL     1      33.636 -24.352 -14.405  0.00  0.00    -0.274 N 
ATOM      3  N   UNL     1      36.359 -21.957 -17.443  0.00  0.00    -0.238 N 
ATOM      4  N   UNL     1      34.995 -23.148 -15.928  0.00  0.00    -0.295 NA
ATOM      5  N   UNL     1      37.362 -23.460 -15.989  0.00  0.00    -0.314 NA
ATOM      6  N   UNL     1      35.968 -25.550 -13.505  0.00  0.00    -0.170 NA
ATOM      7  C   UNL     1      34.835 -24.014 -14.970  0.00  0.00    +0.279 C 
ATOM      8  C   UNL     1      37.219 -24.363 -14.992  0.00  0.00    +0.219 C 
ATOM      9  C   UNL     1      36.267 -22.881 -16.429  0.00  0.00    +0.207 C 
ATOM     10  C   UNL     1      38.085 -25.159 -14.278  0.00  0.00    +0.203 C 
ATOM     11  C   UNL     1      37.260 -25.866 -13.380  0.00  0.00    +0.116 C 
ATOM     12  H   UNL     1      33.672 -25.024 -13.686  0.00  0.00    +0.156 HD
ATOM     13  H   UNL     1      37.197 -21.443 -17.483  0.00  0.00    +0.166 HD
ENDROOT
BRANCH   3  14
ATOM     14  C   UNL     1      35.412 -21.657 -18.420  0.00  0.00    +0.060 C 
ATOM     15  C   UNL     1      35.747 -20.814 -19.480  0.00  0.00    +0.030 C 
ATOM     16  C   UNL     1      34.799 -20.515 -20.459  0.00  0.00    +0.052 C 
ATOM     17  C   UNL     1      34.130 -22.200 -18.339  0.00  0.00    +0.015 C 
ATOM     18  C   UNL     1      33.517 -21.058 -20.378  0.00  0.00    +0.015 C 
ATOM     19  C   UNL     1      33.182 -21.901 -19.318  0.00  0.00    +0.003 C 
BRANCH  16  21
ATOM     20  O   UNL     1      34.994 -17.513 -20.579  0.00  0.00    -0.275 OA
ATOM     21  N   UNL     1      35.133 -19.671 -21.518  0.00  0.00    -0.284 N 
ATOM     22  C   UNL     1      35.207 -18.271 -21.519  0.00  0.00    +0.227 C 
ATOM     23  C   UNL     1      35.604 -17.733 -22.871  0.00  0.00    +0.095 C 
ATOM     24  H   UNL     1      35.343 -20.113 -22.373  0.00  0.00    +0.155 HD
ENDBRANCH  16  21
ENDBRANCH   3  14
BRANCH   2  25
ATOM     25  C   UNL     1      32.364 -23.862 -14.716  0.00  0.00    +0.051 C 
ATOM     26  C   UNL     1      32.032 -23.574 -16.039  0.00  0.00    +0.015 C 
ATOM     27  C   UNL     1      31.426 -23.663 -13.703  0.00  0.00    +0.015 C 
ATOM     28  C   UNL     1      30.763 -23.086 -16.351  0.00  0.00    +0.001 C 
ATOM     29  C   UNL     1      30.156 -23.176 -14.014  0.00  0.00    +0.001 C 
ATOM     30  C   UNL     1      29.825 -22.887 -15.338  0.00  0.00    +0.000 C 
ENDBRANCH   2  25
BRANCH  10  32
ATOM     31  N   UNL     1      40.647 -25.294 -14.559  0.00  0.00    -0.195 NA
ATOM     32  C   UNL     1      39.495 -25.234 -14.432  0.00  0.00    +0.087 C 
ENDBRANCH  10  32
TORSDOF 4
ENDMDL
