MODEL 1
REMARK VINA RESULT:     -12.6      0.000      0.000
REMARK  Name = 44814409
REMARK  5 active torsions:
REMARK  status: ('A' for Active; 'I' for Inactive)
REMARK    1  A    between atoms: N_2  and  C_22
REMARK    2  A    between atoms: C_3  and  C_7
REMARK    3  A    between atoms: C_9  and  C_14
REMARK    4  A    between atoms: C_21  and  C_26
REMARK    5  A    between atoms: C_29  and  N_33
REMARK                            x       y       z     vdW  Elec       q    Type
REMARK                         _______ _______ _______ _____ _____    ______ ____
ROOT
ATOM      1  O   UNL     1      34.830 -14.413 -20.958  0.00  0.00    -0.267 OA
ATOM      2  N   UNL     1      33.065 -14.104 -22.481  0.00  0.00    -0.278 N 
ATOM      3  C   UNL     1      34.143 -14.788 -21.902  0.00  0.00    +0.275 C 
ATOM      4  H   UNL     1      32.623 -14.556 -23.236  0.00  0.00    +0.155 HD
ENDROOT
BRANCH   3   7
ATOM      5  F   UNL     1      35.266 -19.819 -23.969  0.00  0.00    -0.202 F 
ATOM      6  N   UNL     1      34.508 -17.149 -21.623  0.00  0.00    -0.399 NA
ATOM      7  C   UNL     1      34.446 -16.117 -22.495  0.00  0.00    +0.167 C 
ATOM      8  C   UNL     1      34.647 -16.243 -23.860  0.00  0.00    +0.092 C 
ATOM      9  C   UNL     1      34.781 -18.363 -22.149  0.00  0.00    +0.162 C 
ATOM     10  C   UNL     1      34.927 -17.509 -24.363  0.00  0.00    +0.014 C 
ATOM     11  C   UNL     1      34.997 -18.595 -23.497  0.00  0.00    +0.166 C 
BRANCH   9  14
ATOM     12  F   UNL     1      37.204 -19.242 -21.042  0.00  0.00    -0.204 F 
ATOM     13  F   UNL     1      32.476 -19.703 -21.280  0.00  0.00    -0.204 F 
ATOM     14  C   UNL     1      34.838 -19.441 -21.188  0.00  0.00    +0.087 C 
ATOM     15  C   UNL     1      36.066 -19.844 -20.664  0.00  0.00    +0.145 C 
ATOM     16  C   UNL     1      33.664 -20.078 -20.785  0.00  0.00    +0.145 C 
ATOM     17  C   UNL     1      36.120 -20.884 -19.736  0.00  0.00    +0.030 C 
ATOM     18  C   UNL     1      33.718 -21.118 -19.857  0.00  0.00    +0.030 C 
ATOM     19  C   UNL     1      34.947 -21.522 -19.334  0.00  0.00    +0.005 C 
ENDBRANCH   9  14
ENDBRANCH   3   7
BRANCH   2  22
ATOM     20  N   UNL     1      31.215 -11.576 -20.561  0.00  0.00    -0.241 NA
ATOM     21  C   UNL     1      32.783 -11.718 -22.871  0.00  0.00    -0.006 C 
ATOM     22  C   UNL     1      32.542 -12.863 -22.120  0.00  0.00    +0.066 C 
ATOM     23  C   UNL     1      32.242 -10.502 -22.470  0.00  0.00    +0.018 C 
ATOM     24  C   UNL     1      31.760 -12.739 -20.984  0.00  0.00    +0.113 C 
ATOM     25  C   UNL     1      31.472 -10.485 -21.318  0.00  0.00    +0.099 C 
BRANCH  21  26
ATOM     26  C   UNL     1      33.619 -11.766 -24.110  0.00  0.00    +0.022 C 
ATOM     27  C   UNL     1      35.051 -10.380 -25.688  0.00  0.00    -0.002 C 
ATOM     28  C   UNL     1      34.235 -10.382 -24.388  0.00  0.00    +0.004 C 
ATOM     29  C   UNL     1      33.588 -12.241 -26.601  0.00  0.00    -0.065 C 
ATOM     30  C   UNL     1      32.769 -12.240 -25.303  0.00  0.00    -0.017 C 
ATOM     31  C   UNL     1      34.197 -10.860 -26.871  0.00  0.00    -0.022 C 
ATOM     32  C   UNL     1      35.619  -8.987 -25.963  0.00  0.00    -0.000 C 
BRANCH  29  33
ATOM     33  N   UNL     1      32.739 -12.637 -27.722  0.00  0.00    +0.382 N 
ATOM     34  H   UNL     1      33.251 -12.519 -28.596  0.00  0.00    -0.089 HD
ATOM     35  H   UNL     1      31.902 -12.053 -27.738  0.00  0.00    -0.089 HD
ATOM     36  H   UNL     1      32.469 -13.614 -27.616  0.00  0.00    -0.089 HD
ENDBRANCH  29  33
ENDBRANCH  21  26
ENDBRANCH   2  22
TORSDOF 5
ENDMDL
MODEL 2
REMARK VINA RESULT:     -11.9      4.866     11.543
REMARK  Name = 44814409
REMARK  5 active torsions:
REMARK  status: ('A' for Active; 'I' for Inactive)
REMARK    1  A    between atoms: N_2  and  C_22
REMARK    2  A    between atoms: C_3  and  C_7
REMARK    3  A    between atoms: C_9  and  C_14
REMARK    4  A    between atoms: C_21  and  C_26
REMARK    5  A    between atoms: C_29  and  N_33
REMARK                            x       y       z     vdW  Elec       q    Type
REMARK                         _______ _______ _______ _____ _____    ______ ____
ROOT
ATOM      1  O   UNL     1      32.331 -22.013 -19.518  0.00  0.00    -0.267 OA
ATOM      2  N   UNL     1      33.584 -22.396 -17.565  0.00  0.00    -0.278 N 
ATOM      3  C   UNL     1      33.370 -21.935 -18.872  0.00  0.00    +0.275 C 
ATOM      4  H   UNL     1      34.486 -22.248 -17.198  0.00  0.00    +0.155 HD
ENDROOT
BRANCH   3   7
ATOM      5  F   UNL     1      37.610 -19.323 -21.331  0.00  0.00    -0.202 F 
ATOM      6  N   UNL     1      34.233 -20.297 -20.407  0.00  0.00    -0.399 NA
ATOM      7  C   UNL     1      34.533 -21.261 -19.508  0.00  0.00    +0.167 C 
ATOM      8  C   UNL     1      35.825 -21.631 -19.169  0.00  0.00    +0.092 C 
ATOM      9  C   UNL     1      35.280 -19.674 -20.992  0.00  0.00    +0.162 C 
ATOM     10  C   UNL     1      36.876 -20.967 -19.793  0.00  0.00    +0.014 C 
ATOM     11  C   UNL     1      36.607 -19.969 -20.723  0.00  0.00    +0.166 C 
BRANCH   9  14
ATOM     12  F   UNL     1      34.702 -20.274 -23.669  0.00  0.00    -0.204 F 
ATOM     13  F   UNL     1      35.121 -16.967 -20.276  0.00  0.00    -0.204 F 
ATOM     14  C   UNL     1      34.921 -18.650 -21.945  0.00  0.00    +0.087 C 
ATOM     15  C   UNL     1      34.642 -18.996 -23.267  0.00  0.00    +0.145 C 
ATOM     16  C   UNL     1      34.854 -17.316 -21.543  0.00  0.00    +0.145 C 
ATOM     17  C   UNL     1      34.295 -18.006 -24.188  0.00  0.00    +0.030 C 
ATOM     18  C   UNL     1      34.508 -16.327 -22.464  0.00  0.00    +0.030 C 
ATOM     19  C   UNL     1      34.229 -16.672 -23.786  0.00  0.00    +0.005 C 
ENDBRANCH   9  14
ENDBRANCH   3   7
BRANCH   2  22
ATOM     20  N   UNL     1      30.376 -23.598 -16.239  0.00  0.00    -0.241 NA
ATOM     21  C   UNL     1      33.092 -23.726 -15.587  0.00  0.00    -0.006 C 
ATOM     22  C   UNL     1      32.678 -23.037 -16.722  0.00  0.00    +0.066 C 
ATOM     23  C   UNL     1      32.150 -24.351 -14.778  0.00  0.00    +0.018 C 
ATOM     24  C   UNL     1      31.321 -23.004 -17.001  0.00  0.00    +0.113 C 
ATOM     25  C   UNL     1      30.817 -24.259 -15.144  0.00  0.00    +0.099 C 
BRANCH  21  26
ATOM     26  C   UNL     1      34.538 -23.810 -15.216  0.00  0.00    +0.022 C 
ATOM     27  C   UNL     1      36.518 -25.385 -14.979  0.00  0.00    -0.002 C 
ATOM     28  C   UNL     1      35.051 -25.249 -15.410  0.00  0.00    +0.004 C 
ATOM     29  C   UNL     1      36.207 -23.478 -13.337  0.00  0.00    -0.065 C 
ATOM     30  C   UNL     1      34.739 -23.344 -13.763  0.00  0.00    -0.017 C 
ATOM     31  C   UNL     1      36.710 -24.913 -13.531  0.00  0.00    -0.022 C 
ATOM     32  C   UNL     1      36.994 -26.829 -15.143  0.00  0.00    -0.000 C 
BRANCH  29  33
ATOM     33  N   UNL     1      36.353 -23.085 -11.937  0.00  0.00    +0.382 N 
ATOM     34  H   UNL     1      37.301 -23.294 -11.622  0.00  0.00    -0.089 HD
ATOM     35  H   UNL     1      35.684 -23.604 -11.366  0.00  0.00    -0.089 HD
ATOM     36  H   UNL     1      36.176 -22.085 -11.843  0.00  0.00    -0.089 HD
ENDBRANCH  29  33
ENDBRANCH  21  26
ENDBRANCH   2  22
TORSDOF 5
ENDMDL
MODEL 3
REMARK VINA RESULT:     -11.9      4.862     11.524
REMARK  Name = 44814409
REMARK  5 active torsions:
REMARK  status: ('A' for Active; 'I' for Inactive)
REMARK    1  A    between atoms: N_2  and  C_22
REMARK    2  A    between atoms: C_3  and  C_7
REMARK    3  A    between atoms: C_9  and  C_14
REMARK    4  A    between atoms: C_21  and  C_26
REMARK    5  A    between atoms: C_29  and  N_33
REMARK                            x       y       z     vdW  Elec       q    Type
REMARK                         _______ _______ _______ _____ _____    ______ ____
ROOT
ATOM      1  O   UNL     1      32.331 -22.008 -19.523  0.00  0.00    -0.267 OA
ATOM      2  N   UNL     1      33.584 -22.397 -17.572  0.00  0.00    -0.278 N 
ATOM      3  C   UNL     1      33.371 -21.933 -18.877  0.00  0.00    +0.275 C 
ATOM      4  H   UNL     1      34.487 -22.252 -17.205  0.00  0.00    +0.155 HD
ENDROOT
BRANCH   3   7
ATOM      5  F   UNL     1      37.614 -19.325 -21.333  0.00  0.00    -0.202 F 
ATOM      6  N   UNL     1      34.235 -20.293 -20.408  0.00  0.00    -0.399 NA
ATOM      7  C   UNL     1      34.534 -21.260 -19.512  0.00  0.00    +0.167 C 
ATOM      8  C   UNL     1      35.826 -21.634 -19.176  0.00  0.00    +0.092 C 
ATOM      9  C   UNL     1      35.284 -19.671 -20.992  0.00  0.00    +0.162 C 
ATOM     10  C   UNL     1      36.877 -20.972 -19.799  0.00  0.00    +0.014 C 
ATOM     11  C   UNL     1      36.610 -19.970 -20.726  0.00  0.00    +0.166 C 
BRANCH   9  14
ATOM     12  F   UNL     1      35.124 -16.967 -20.267  0.00  0.00    -0.204 F 
ATOM     13  F   UNL     1      34.709 -20.261 -23.673  0.00  0.00    -0.204 F 
ATOM     14  C   UNL     1      34.927 -18.644 -21.943  0.00  0.00    +0.087 C 
ATOM     15  C   UNL     1      34.859 -17.311 -21.536  0.00  0.00    +0.145 C 
ATOM     16  C   UNL     1      34.649 -18.984 -23.267  0.00  0.00    +0.145 C 
ATOM     17  C   UNL     1      34.515 -16.319 -22.454  0.00  0.00    +0.030 C 
ATOM     18  C   UNL     1      34.304 -17.992 -24.185  0.00  0.00    +0.030 C 
ATOM     19  C   UNL     1      34.236 -16.660 -23.778  0.00  0.00    +0.005 C 
ENDBRANCH   9  14
ENDBRANCH   3   7
BRANCH   2  22
ATOM     20  N   UNL     1      30.375 -23.601 -16.249  0.00  0.00    -0.241 NA
ATOM     21  C   UNL     1      33.090 -23.726 -15.594  0.00  0.00    -0.006 C 
ATOM     22  C   UNL     1      32.677 -23.038 -16.729  0.00  0.00    +0.066 C 
ATOM     23  C   UNL     1      32.147 -24.351 -14.785  0.00  0.00    +0.018 C 
ATOM     24  C   UNL     1      31.321 -23.006 -17.011  0.00  0.00    +0.113 C 
ATOM     25  C   UNL     1      30.814 -24.260 -15.153  0.00  0.00    +0.099 C 
BRANCH  21  26
ATOM     26  C   UNL     1      34.535 -23.810 -15.221  0.00  0.00    +0.022 C 
ATOM     27  C   UNL     1      36.517 -25.384 -14.980  0.00  0.00    -0.002 C 
ATOM     28  C   UNL     1      35.049 -25.248 -15.413  0.00  0.00    +0.004 C 
ATOM     29  C   UNL     1      36.201 -23.476 -13.339  0.00  0.00    -0.065 C 
ATOM     30  C   UNL     1      34.734 -23.343 -13.767  0.00  0.00    -0.017 C 
ATOM     31  C   UNL     1      36.706 -24.911 -13.532  0.00  0.00    -0.022 C 
ATOM     32  C   UNL     1      36.993 -26.827 -15.143  0.00  0.00    -0.000 C 
BRANCH  29  33
ATOM     33  N   UNL     1      36.345 -23.084 -11.938  0.00  0.00    +0.382 N 
ATOM     34  H   UNL     1      36.086 -23.865 -11.337  0.00  0.00    -0.089 HD
ATOM     35  H   UNL     1      35.736 -22.289 -11.743  0.00  0.00    -0.089 HD
ATOM     36  H   UNL     1      37.314 -22.822 -11.756  0.00  0.00    -0.089 HD
ENDBRANCH  29  33
ENDBRANCH  21  26
ENDBRANCH   2  22
TORSDOF 5
ENDMDL
MODEL 4
REMARK VINA RESULT:     -10.7      4.494      9.210
REMARK  Name = 44814409
REMARK  5 active torsions:
REMARK  status: ('A' for Active; 'I' for Inactive)
REMARK    1  A    between atoms: N_2  and  C_22
REMARK    2  A    between atoms: C_3  and  C_7
REMARK    3  A    between atoms: C_9  and  C_14
REMARK    4  A    between atoms: C_21  and  C_26
REMARK    5  A    between atoms: C_29  and  N_33
REMARK                            x       y       z     vdW  Elec       q    Type
REMARK                         _______ _______ _______ _____ _____    ______ ____
ROOT
ATOM      1  O   UNL     1      32.024 -11.522 -27.245  0.00  0.00    -0.267 OA
ATOM      2  N   UNL     1      33.081 -13.238 -26.033  0.00  0.00    -0.278 N 
ATOM      3  C   UNL     1      32.832 -11.911 -26.408  0.00  0.00    +0.275 C 
ATOM      4  H   UNL     1      33.768 -13.368 -25.339  0.00  0.00    +0.155 HD
ENDROOT
BRANCH   3   7
ATOM      5  F   UNL     1      35.652  -8.020 -23.623  0.00  0.00    -0.202 F 
ATOM      6  N   UNL     1      32.914 -10.047 -24.890  0.00  0.00    -0.399 NA
ATOM      7  C   UNL     1      33.623 -10.883 -25.680  0.00  0.00    +0.167 C 
ATOM      8  C   UNL     1      34.999 -10.825 -25.834  0.00  0.00    +0.092 C 
ATOM      9  C   UNL     1      33.622  -9.109 -24.222  0.00  0.00    +0.162 C 
ATOM     10  C   UNL     1      35.691  -9.846 -25.131  0.00  0.00    +0.014 C 
ATOM     11  C   UNL     1      34.997  -8.967 -24.307  0.00  0.00    +0.166 C 
BRANCH   9  14
ATOM     12  F   UNL     1      32.379 -10.015 -21.877  0.00  0.00    -0.204 F 
ATOM     13  F   UNL     1      33.237  -6.403 -24.850  0.00  0.00    -0.204 F 
ATOM     14  C   UNL     1      32.831  -8.234 -23.387  0.00  0.00    +0.087 C 
ATOM     15  C   UNL     1      32.231  -8.729 -22.230  0.00  0.00    +0.145 C 
ATOM     16  C   UNL     1      32.668  -6.894 -23.739  0.00  0.00    +0.145 C 
ATOM     17  C   UNL     1      31.469  -7.884 -21.423  0.00  0.00    +0.030 C 
ATOM     18  C   UNL     1      31.905  -6.048 -22.934  0.00  0.00    +0.030 C 
ATOM     19  C   UNL     1      31.305  -6.544 -21.776  0.00  0.00    +0.005 C 
ENDBRANCH   9  14
ENDBRANCH   3   7
BRANCH   2  22
ATOM     20  N   UNL     1      30.852 -15.384 -28.014  0.00  0.00    -0.241 NA
ATOM     21  C   UNL     1      32.838 -15.659 -26.066  0.00  0.00    -0.006 C 
ATOM     22  C   UNL     1      32.477 -14.396 -26.520  0.00  0.00    +0.066 C 
ATOM     23  C   UNL     1      32.208 -16.785 -26.584  0.00  0.00    +0.018 C 
ATOM     24  C   UNL     1      31.487 -14.313 -27.486  0.00  0.00    +0.113 C 
ATOM     25  C   UNL     1      31.230 -16.595 -27.548  0.00  0.00    +0.099 C 
BRANCH  21  26
ATOM     26  C   UNL     1      33.898 -15.835 -25.026  0.00  0.00    +0.022 C 
ATOM     27  C   UNL     1      35.095 -17.539 -23.568  0.00  0.00    -0.002 C 
ATOM     28  C   UNL     1      34.056 -17.327 -24.679  0.00  0.00    +0.004 C 
ATOM     29  C   UNL     1      34.593 -15.222 -22.667  0.00  0.00    -0.065 C 
ATOM     30  C   UNL     1      33.551 -15.011 -23.773  0.00  0.00    -0.017 C 
ATOM     31  C   UNL     1      34.744 -16.708 -22.324  0.00  0.00    -0.022 C 
ATOM     32  C   UNL     1      35.206 -19.021 -23.212  0.00  0.00    -0.000 C 
BRANCH  29  33
ATOM     33  N   UNL     1      34.204 -14.475 -21.472  0.00  0.00    +0.382 N 
ATOM     34  H   UNL     1      34.760 -14.790 -20.677  0.00  0.00    -0.089 HD
ATOM     35  H   UNL     1      33.214 -14.634 -21.279  0.00  0.00    -0.089 HD
ATOM     36  H   UNL     1      34.364 -13.479 -21.626  0.00  0.00    -0.089 HD
ENDBRANCH  29  33
ENDBRANCH  21  26
ENDBRANCH   2  22
TORSDOF 5
ENDMDL
MODEL 5
REMARK VINA RESULT:     -10.6      3.412      4.769
REMARK  Name = 44814409
REMARK  5 active torsions:
REMARK  status: ('A' for Active; 'I' for Inactive)
REMARK    1  A    between atoms: N_2  and  C_22
REMARK    2  A    between atoms: C_3  and  C_7
REMARK    3  A    between atoms: C_9  and  C_14
REMARK    4  A    between atoms: C_21  and  C_26
REMARK    5  A    between atoms: C_29  and  N_33
REMARK                            x       y       z     vdW  Elec       q    Type
REMARK                         _______ _______ _______ _____ _____    ______ ____
ROOT
ATOM      1  O   UNL     1      32.838 -12.936 -22.413  0.00  0.00    -0.267 OA
ATOM      2  N   UNL     1      32.329 -10.885 -23.446  0.00  0.00    -0.278 N 
ATOM      3  C   UNL     1      32.690 -12.239 -23.411  0.00  0.00    +0.275 C 
ATOM      4  H   UNL     1      32.254 -10.482 -24.341  0.00  0.00    +0.155 HD
ENDROOT
BRANCH   3   7
ATOM      5  F   UNL     1      33.388 -14.784 -28.298  0.00  0.00    -0.202 F 
ATOM      6  N   UNL     1      32.857 -14.233 -24.745  0.00  0.00    -0.399 NA
ATOM      7  C   UNL     1      32.881 -12.882 -24.738  0.00  0.00    +0.167 C 
ATOM      8  C   UNL     1      33.069 -12.103 -25.870  0.00  0.00    +0.092 C 
ATOM      9  C   UNL     1      33.028 -14.830 -25.946  0.00  0.00    +0.162 C 
ATOM     10  C   UNL     1      33.242 -12.755 -27.086  0.00  0.00    +0.014 C 
ATOM     11  C   UNL     1      33.223 -14.144 -27.133  0.00  0.00    +0.166 C 
BRANCH   9  14
ATOM     12  F   UNL     1      35.065 -16.337 -24.744  0.00  0.00    -0.204 F 
ATOM     13  F   UNL     1      30.924 -16.294 -27.084  0.00  0.00    -0.204 F 
ATOM     14  C   UNL     1      32.995 -16.274 -25.915  0.00  0.00    +0.087 C 
ATOM     15  C   UNL     1      34.031 -16.982 -25.306  0.00  0.00    +0.145 C 
ATOM     16  C   UNL     1      31.928 -16.960 -26.494  0.00  0.00    +0.145 C 
ATOM     17  C   UNL     1      33.999 -18.377 -25.275  0.00  0.00    +0.030 C 
ATOM     18  C   UNL     1      31.895 -18.355 -26.464  0.00  0.00    +0.030 C 
ATOM     19  C   UNL     1      32.932 -19.062 -25.855  0.00  0.00    +0.005 C 
ENDBRANCH   9  14
ENDBRANCH   3   7
BRANCH   2  22
ATOM     20  N   UNL     1      30.884  -9.686 -20.288  0.00  0.00    -0.241 NA
ATOM     21  C   UNL     1      32.647  -8.783 -22.261  0.00  0.00    -0.006 C 
ATOM     22  C   UNL     1      32.062 -10.040 -22.369  0.00  0.00    +0.066 C 
ATOM     23  C   UNL     1      32.351  -7.977 -21.167  0.00  0.00    +0.018 C 
ATOM     24  C   UNL     1      31.196 -10.441 -21.365  0.00  0.00    +0.113 C 
ATOM     25  C   UNL     1      31.472  -8.471 -20.217  0.00  0.00    +0.099 C 
BRANCH  21  26
ATOM     26  C   UNL     1      33.594  -8.276 -23.301  0.00  0.00    +0.022 C 
ATOM     27  C   UNL     1      33.752  -7.126 -25.562  0.00  0.00    -0.002 C 
ATOM     28  C   UNL     1      32.812  -7.605 -24.446  0.00  0.00    +0.004 C 
ATOM     29  C   UNL     1      35.404  -8.948 -24.944  0.00  0.00    -0.065 C 
ATOM     30  C   UNL     1      34.464  -9.430 -23.831  0.00  0.00    -0.017 C 
ATOM     31  C   UNL     1      34.620  -8.282 -26.080  0.00  0.00    -0.022 C 
ATOM     32  C   UNL     1      32.952  -6.500 -26.704  0.00  0.00    -0.000 C 
BRANCH  29  33
ATOM     33  N   UNL     1      36.172 -10.077 -25.466  0.00  0.00    +0.382 N 
ATOM     34  H   UNL     1      36.675  -9.788 -26.305  0.00  0.00    -0.089 HD
ATOM     35  H   UNL     1      35.538 -10.842 -25.697  0.00  0.00    -0.089 HD
ATOM     36  H   UNL     1      36.839 -10.390 -24.761  0.00  0.00    -0.089 HD
ENDBRANCH  29  33
ENDBRANCH  21  26
ENDBRANCH   2  22
TORSDOF 5
ENDMDL
MODEL 6
REMARK VINA RESULT:     -10.6      3.374      4.993
REMARK  Name = 44814409
REMARK  5 active torsions:
REMARK  status: ('A' for Active; 'I' for Inactive)
REMARK    1  A    between atoms: N_2  and  C_22
REMARK    2  A    between atoms: C_3  and  C_7
REMARK    3  A    between atoms: C_9  and  C_14
REMARK    4  A    between atoms: C_21  and  C_26
REMARK    5  A    between atoms: C_29  and  N_33
REMARK                            x       y       z     vdW  Elec       q    Type
REMARK                         _______ _______ _______ _____ _____    ______ ____
ROOT
ATOM      1  O   UNL     1      33.975 -13.032 -22.522  0.00  0.00    -0.267 OA
ATOM      2  N   UNL     1      32.008 -11.840 -23.011  0.00  0.00    -0.278 N 
ATOM      3  C   UNL     1      33.064 -12.721 -23.281  0.00  0.00    +0.275 C 
ATOM      4  H   UNL     1      31.360 -11.705 -23.740  0.00  0.00    +0.155 HD
ENDROOT
BRANCH   3   7
ATOM      5  F   UNL     1      32.966 -15.220 -28.240  0.00  0.00    -0.202 F 
ATOM      6  N   UNL     1      33.032 -14.702 -24.643  0.00  0.00    -0.399 NA
ATOM      7  C   UNL     1      33.038 -13.351 -24.628  0.00  0.00    +0.167 C 
ATOM      8  C   UNL     1      33.023 -12.562 -25.767  0.00  0.00    +0.092 C 
ATOM      9  C   UNL     1      33.007 -15.289 -25.861  0.00  0.00    +0.162 C 
ATOM     10  C   UNL     1      32.998 -13.202 -27.001  0.00  0.00    +0.014 C 
ATOM     11  C   UNL     1      32.990 -14.591 -27.058  0.00  0.00    +0.166 C 
BRANCH   9  14
ATOM     12  F   UNL     1      30.767 -16.776 -26.656  0.00  0.00    -0.204 F 
ATOM     13  F   UNL     1      35.233 -16.773 -25.019  0.00  0.00    -0.204 F 
ATOM     14  C   UNL     1      33.000 -16.733 -25.838  0.00  0.00    +0.087 C 
ATOM     15  C   UNL     1      31.863 -17.431 -26.243  0.00  0.00    +0.145 C 
ATOM     16  C   UNL     1      34.131 -17.429 -25.412  0.00  0.00    +0.145 C 
ATOM     17  C   UNL     1      31.856 -18.826 -26.221  0.00  0.00    +0.030 C 
ATOM     18  C   UNL     1      34.125 -18.824 -25.390  0.00  0.00    +0.030 C 
ATOM     19  C   UNL     1      32.987 -19.522 -25.794  0.00  0.00    +0.005 C 
ENDBRANCH   9  14
ENDBRANCH   3   7
BRANCH   2  22
ATOM     20  N   UNL     1      31.404 -11.191 -19.445  0.00  0.00    -0.241 NA
ATOM     21  C   UNL     1      31.633  -9.746 -21.827  0.00  0.00    -0.006 C 
ATOM     22  C   UNL     1      31.761 -11.130 -21.835  0.00  0.00    +0.066 C 
ATOM     23  C   UNL     1      31.389  -9.083 -20.629  0.00  0.00    +0.018 C 
ATOM     24  C   UNL     1      31.640 -11.800 -20.629  0.00  0.00    +0.113 C 
ATOM     25  C   UNL     1      31.284  -9.845 -19.476  0.00  0.00    +0.099 C 
BRANCH  21  26
ATOM     26  C   UNL     1      31.752  -8.949 -23.086  0.00  0.00    +0.022 C 
ATOM     27  C   UNL     1      33.389  -8.035 -24.802  0.00  0.00    -0.002 C 
ATOM     28  C   UNL     1      33.222  -8.898 -23.543  0.00  0.00    +0.004 C 
ATOM     29  C   UNL     1      31.359  -6.672 -24.129  0.00  0.00    -0.065 C 
ATOM     30  C   UNL     1      31.194  -7.531 -22.869  0.00  0.00    -0.017 C 
ATOM     31  C   UNL     1      32.824  -6.625 -24.578  0.00  0.00    -0.022 C 
ATOM     32  C   UNL     1      34.860  -7.967 -25.215  0.00  0.00    -0.000 C 
BRANCH  29  33
ATOM     33  N   UNL     1      30.876  -5.317 -23.872  0.00  0.00    +0.382 N 
ATOM     34  H   UNL     1      30.061  -5.357 -23.259  0.00  0.00    -0.089 HD
ATOM     35  H   UNL     1      30.615  -4.875 -24.755  0.00  0.00    -0.089 HD
ATOM     36  H   UNL     1      31.612  -4.772 -23.424  0.00  0.00    -0.089 HD
ENDBRANCH  29  33
ENDBRANCH  21  26
ENDBRANCH   2  22
TORSDOF 5
ENDMDL
MODEL 7
REMARK VINA RESULT:     -10.6      3.372      4.786
REMARK  Name = 44814409
REMARK  5 active torsions:
REMARK  status: ('A' for Active; 'I' for Inactive)
REMARK    1  A    between atoms: N_2  and  C_22
REMARK    2  A    between atoms: C_3  and  C_7
REMARK    3  A    between atoms: C_9  and  C_14
REMARK    4  A    between atoms: C_21  and  C_26
REMARK    5  A    between atoms: C_29  and  N_33
REMARK                            x       y       z     vdW  Elec       q    Type
REMARK                         _______ _______ _______ _____ _____    ______ ____
ROOT
ATOM      1  O   UNL     1      33.953 -13.038 -22.506  0.00  0.00    -0.267 OA
ATOM      2  N   UNL     1      32.000 -11.828 -23.010  0.00  0.00    -0.278 N 
ATOM      3  C   UNL     1      33.050 -12.718 -23.273  0.00  0.00    +0.275 C 
ATOM      4  H   UNL     1      31.360 -11.688 -23.745  0.00  0.00    +0.155 HD
ENDROOT
BRANCH   3   7
ATOM      5  F   UNL     1      32.974 -15.215 -28.233  0.00  0.00    -0.202 F 
ATOM      6  N   UNL     1      33.028 -14.699 -24.636  0.00  0.00    -0.399 NA
ATOM      7  C   UNL     1      33.030 -13.348 -24.619  0.00  0.00    +0.167 C 
ATOM      8  C   UNL     1      33.016 -12.558 -25.758  0.00  0.00    +0.092 C 
ATOM      9  C   UNL     1      33.009 -15.285 -25.854  0.00  0.00    +0.162 C 
ATOM     10  C   UNL     1      32.996 -13.198 -26.993  0.00  0.00    +0.014 C 
ATOM     11  C   UNL     1      32.993 -14.587 -27.050  0.00  0.00    +0.166 C 
BRANCH   9  14
ATOM     12  F   UNL     1      35.238 -16.762 -25.010  0.00  0.00    -0.204 F 
ATOM     13  F   UNL     1      30.774 -16.779 -26.653  0.00  0.00    -0.204 F 
ATOM     14  C   UNL     1      33.006 -16.729 -25.832  0.00  0.00    +0.087 C 
ATOM     15  C   UNL     1      34.138 -17.422 -25.405  0.00  0.00    +0.145 C 
ATOM     16  C   UNL     1      31.871 -17.430 -26.239  0.00  0.00    +0.145 C 
ATOM     17  C   UNL     1      34.135 -18.817 -25.383  0.00  0.00    +0.030 C 
ATOM     18  C   UNL     1      31.867 -18.825 -26.218  0.00  0.00    +0.030 C 
ATOM     19  C   UNL     1      33.001 -19.518 -25.791  0.00  0.00    +0.005 C 
ENDBRANCH   9  14
ENDBRANCH   3   7
BRANCH   2  22
ATOM     20  N   UNL     1      31.392 -11.174 -19.446  0.00  0.00    -0.241 NA
ATOM     21  C   UNL     1      31.615  -9.734 -21.831  0.00  0.00    -0.006 C 
ATOM     22  C   UNL     1      31.750 -11.117 -21.836  0.00  0.00    +0.066 C 
ATOM     23  C   UNL     1      31.368  -9.069 -20.635  0.00  0.00    +0.018 C 
ATOM     24  C   UNL     1      31.632 -11.785 -20.628  0.00  0.00    +0.113 C 
ATOM     25  C   UNL     1      31.266  -9.828 -19.481  0.00  0.00    +0.099 C 
BRANCH  21  26
ATOM     26  C   UNL     1      31.730  -8.939 -23.093  0.00  0.00    +0.022 C 
ATOM     27  C   UNL     1      33.363  -8.028 -24.815  0.00  0.00    -0.002 C 
ATOM     28  C   UNL     1      33.199  -8.889 -23.554  0.00  0.00    +0.004 C 
ATOM     29  C   UNL     1      31.334  -6.664 -24.140  0.00  0.00    -0.065 C 
ATOM     30  C   UNL     1      31.172  -7.521 -22.877  0.00  0.00    -0.017 C 
ATOM     31  C   UNL     1      32.798  -6.618 -24.592  0.00  0.00    -0.022 C 
ATOM     32  C   UNL     1      34.832  -7.961 -25.231  0.00  0.00    -0.000 C 
BRANCH  29  33
ATOM     33  N   UNL     1      30.851  -5.309 -23.884  0.00  0.00    +0.382 N 
ATOM     34  H   UNL     1      29.998  -5.144 -24.418  0.00  0.00    -0.089 HD
ATOM     35  H   UNL     1      31.563  -4.635 -24.165  0.00  0.00    -0.089 HD
ATOM     36  H   UNL     1      30.654  -5.200 -22.889  0.00  0.00    -0.089 HD
ENDBRANCH  29  33
ENDBRANCH  21  26
ENDBRANCH   2  22
TORSDOF 5
ENDMDL
MODEL 8
REMARK VINA RESULT:     -10.4      3.421      6.118
REMARK  Name = 44814409
REMARK  5 active torsions:
REMARK  status: ('A' for Active; 'I' for Inactive)
REMARK    1  A    between atoms: N_2  and  C_22
REMARK    2  A    between atoms: C_3  and  C_7
REMARK    3  A    between atoms: C_9  and  C_14
REMARK    4  A    between atoms: C_21  and  C_26
REMARK    5  A    between atoms: C_29  and  N_33
REMARK                            x       y       z     vdW  Elec       q    Type
REMARK                         _______ _______ _______ _____ _____    ______ ____
ROOT
ATOM      1  O   UNL     1      34.845 -10.217 -26.279  0.00  0.00    -0.267 OA
ATOM      2  N   UNL     1      32.651  -9.708 -25.602  0.00  0.00    -0.278 N 
ATOM      3  C   UNL     1      33.715 -10.555 -25.942  0.00  0.00    +0.275 C 
ATOM      4  H   UNL     1      31.809 -10.154 -25.353  0.00  0.00    +0.155 HD
ENDROOT
BRANCH   3   7
ATOM      5  F   UNL     1      32.695 -15.991 -25.444  0.00  0.00    -0.202 F 
ATOM      6  N   UNL     1      33.767 -12.603 -24.683  0.00  0.00    -0.399 NA
ATOM      7  C   UNL     1      33.426 -12.010 -25.849  0.00  0.00    +0.167 C 
ATOM      8  C   UNL     1      32.844 -12.675 -26.916  0.00  0.00    +0.092 C 
ATOM      9  C   UNL     1      33.509 -13.926 -24.584  0.00  0.00    +0.162 C 
ATOM     10  C   UNL     1      32.595 -14.036 -26.776  0.00  0.00    +0.014 C 
ATOM     11  C   UNL     1      32.930 -14.681 -25.591  0.00  0.00    +0.166 C 
BRANCH   9  14
ATOM     12  F   UNL     1      32.748 -12.815 -22.124  0.00  0.00    -0.204 F 
ATOM     13  F   UNL     1      35.044 -16.269 -24.452  0.00  0.00    -0.204 F 
ATOM     14  C   UNL     1      33.885 -14.525 -23.324  0.00  0.00    +0.087 C 
ATOM     15  C   UNL     1      33.484 -13.937 -22.126  0.00  0.00    +0.145 C 
ATOM     16  C   UNL     1      34.649 -15.692 -23.308  0.00  0.00    +0.145 C 
ATOM     17  C   UNL     1      33.846 -14.516 -20.909  0.00  0.00    +0.030 C 
ATOM     18  C   UNL     1      35.013 -16.271 -22.092  0.00  0.00    +0.030 C 
ATOM     19  C   UNL     1      34.612 -15.682 -20.893  0.00  0.00    +0.005 C 
ENDBRANCH   9  14
ENDBRANCH   3   7
BRANCH   2  22
ATOM     20  N   UNL     1      32.552  -6.242 -26.815  0.00  0.00    -0.241 NA
ATOM     21  C   UNL     1      32.688  -7.605 -24.378  0.00  0.00    -0.006 C 
ATOM     22  C   UNL     1      32.638  -8.314 -25.573  0.00  0.00    +0.066 C 
ATOM     23  C   UNL     1      32.671  -6.215 -24.401  0.00  0.00    +0.018 C 
ATOM     24  C   UNL     1      32.570  -7.592 -26.753  0.00  0.00    +0.113 C 
ATOM     25  C   UNL     1      32.602  -5.587 -25.634  0.00  0.00    +0.099 C 
BRANCH  21  26
ATOM     26  C   UNL     1      32.761  -8.309 -23.061  0.00  0.00    +0.022 C 
ATOM     27  C   UNL     1      31.525  -9.881 -21.491  0.00  0.00    -0.002 C 
ATOM     28  C   UNL     1      31.513  -9.190 -22.863  0.00  0.00    +0.004 C 
ATOM     29  C   UNL     1      32.914  -7.977 -20.552  0.00  0.00    -0.065 C 
ATOM     30  C   UNL     1      32.898  -7.284 -21.921  0.00  0.00    -0.017 C 
ATOM     31  C   UNL     1      31.669  -8.851 -20.361  0.00  0.00    -0.022 C 
ATOM     32  C   UNL     1      30.261 -10.717 -21.301  0.00  0.00    -0.000 C 
BRANCH  29  33
ATOM     33  N   UNL     1      32.985  -6.975 -19.491  0.00  0.00    +0.382 N 
ATOM     34  H   UNL     1      33.818  -7.136 -18.926  0.00  0.00    -0.089 HD
ATOM     35  H   UNL     1      32.155  -7.047 -18.900  0.00  0.00    -0.089 HD
ATOM     36  H   UNL     1      33.028  -6.044 -19.904  0.00  0.00    -0.089 HD
ENDBRANCH  29  33
ENDBRANCH  21  26
ENDBRANCH   2  22
TORSDOF 5
ENDMDL
MODEL 9
REMARK VINA RESULT:     -10.2      5.852      8.742
REMARK  Name = 44814409
REMARK  5 active torsions:
REMARK  status: ('A' for Active; 'I' for Inactive)
REMARK    1  A    between atoms: N_2  and  C_22
REMARK    2  A    between atoms: C_3  and  C_7
REMARK    3  A    between atoms: C_9  and  C_14
REMARK    4  A    between atoms: C_21  and  C_26
REMARK    5  A    between atoms: C_29  and  N_33
REMARK                            x       y       z     vdW  Elec       q    Type
REMARK                         _______ _______ _______ _____ _____    ______ ____
ROOT
ATOM      1  O   UNL     1      33.036 -13.617 -22.766  0.00  0.00    -0.267 OA
ATOM      2  N   UNL     1      32.516 -12.040 -24.432  0.00  0.00    -0.278 N 
ATOM      3  C   UNL     1      32.582 -12.534 -23.122  0.00  0.00    +0.275 C 
ATOM      4  H   UNL     1      32.119 -11.145 -24.537  0.00  0.00    +0.155 HD
ENDROOT
BRANCH   3   7
ATOM      5  F   UNL     1      30.675  -8.994 -19.292  0.00  0.00    -0.202 F 
ATOM      6  N   UNL     1      32.045 -10.307 -22.392  0.00  0.00    -0.399 NA
ATOM      7  C   UNL     1      32.066 -11.620 -22.070  0.00  0.00    +0.167 C 
ATOM      8  C   UNL     1      31.643 -12.127 -20.851  0.00  0.00    +0.092 C 
ATOM      9  C   UNL     1      31.576  -9.464 -21.444  0.00  0.00    +0.162 C 
ATOM     10  C   UNL     1      31.168 -11.228 -19.903  0.00  0.00    +0.014 C 
ATOM     11  C   UNL     1      31.131  -9.870 -20.197  0.00  0.00    +0.166 C 
BRANCH   9  14
ATOM     12  F   UNL     1      29.673  -8.418 -23.219  0.00  0.00    -0.204 F 
ATOM     13  F   UNL     1      33.462  -7.643 -20.451  0.00  0.00    -0.204 F 
ATOM     14  C   UNL     1      31.568  -8.070 -21.823  0.00  0.00    +0.087 C 
ATOM     15  C   UNL     1      30.602  -7.595 -22.710  0.00  0.00    +0.145 C 
ATOM     16  C   UNL     1      32.526  -7.201 -21.303  0.00  0.00    +0.145 C 
ATOM     17  C   UNL     1      30.593  -6.248 -23.075  0.00  0.00    +0.030 C 
ATOM     18  C   UNL     1      32.519  -5.854 -21.668  0.00  0.00    +0.030 C 
ATOM     19  C   UNL     1      31.552  -5.379 -22.555  0.00  0.00    +0.005 C 
ENDBRANCH   9  14
ENDBRANCH   3   7
BRANCH   2  22
ATOM     20  N   UNL     1      33.161 -14.702 -26.882  0.00  0.00    -0.241 NA
ATOM     21  C   UNL     1      33.546 -11.944 -26.636  0.00  0.00    -0.006 C 
ATOM     22  C   UNL     1      32.945 -12.659 -25.606  0.00  0.00    +0.066 C 
ATOM     23  C   UNL     1      33.956 -12.606 -27.788  0.00  0.00    +0.018 C 
ATOM     24  C   UNL     1      32.776 -14.024 -25.777  0.00  0.00    +0.113 C 
ATOM     25  C   UNL     1      33.742 -13.973 -27.861  0.00  0.00    +0.099 C 
BRANCH  21  26
ATOM     26  C   UNL     1      33.764 -10.469 -26.530  0.00  0.00    +0.022 C 
ATOM     27  C   UNL     1      34.687  -8.619 -25.050  0.00  0.00    -0.002 C 
ATOM     28  C   UNL     1      34.502 -10.134 -25.221  0.00  0.00    +0.004 C 
ATOM     29  C   UNL     1      32.605  -8.215 -26.441  0.00  0.00    -0.065 C 
ATOM     30  C   UNL     1      32.416  -9.729 -26.607  0.00  0.00    -0.017 C 
ATOM     31  C   UNL     1      33.339  -7.890 -25.135  0.00  0.00    -0.022 C 
ATOM     32  C   UNL     1      35.386  -8.310 -23.727  0.00  0.00    -0.000 C 
BRANCH  29  33
ATOM     33  N   UNL     1      31.304  -7.549 -26.458  0.00  0.00    +0.382 N 
ATOM     34  H   UNL     1      30.564  -8.246 -26.379  0.00  0.00    -0.089 HD
ATOM     35  H   UNL     1      31.196  -7.037 -27.334  0.00  0.00    -0.089 HD
ATOM     36  H   UNL     1      31.244  -6.899 -25.675  0.00  0.00    -0.089 HD
ENDBRANCH  29  33
ENDBRANCH  21  26
ENDBRANCH   2  22
TORSDOF 5
ENDMDL
