MODEL 1
REMARK VINA RESULT:     -12.1      0.000      0.000
REMARK  Name = 9909438
REMARK  10 active torsions:
REMARK  status: ('A' for Active; 'I' for Inactive)
REMARK    1  A    between atoms: C_1  and  C_2
REMARK    2  A    between atoms: C_1  and  C_18
REMARK    3  A    between atoms: C_2  and  C_7
REMARK    4  A    between atoms: N_4  and  C_10
REMARK    5  A    between atoms: C_10  and  C_11
REMARK    6  A    between atoms: C_18  and  C_19
REMARK    7  A    between atoms: C_22  and  O_25
REMARK    8  A    between atoms: O_25  and  C_26
REMARK    9  A    between atoms: C_26  and  C_30
REMARK   10  A    between atoms: C_30  and  O_31
REMARK                            x       y       z     vdW  Elec       q    Type
REMARK                         _______ _______ _______ _____ _____    ______ ____
ROOT
ATOM      1  C   UNL     1      33.757 -22.425 -19.098  0.00  0.00    +0.014 C 
ENDROOT
BRANCH   1   2
ATOM      2  C   UNL     1      33.198 -21.120 -19.659  0.00  0.00    +0.078 C 
BRANCH   2   7
ATOM      3  O   UNL     1      37.254 -19.098 -20.981  0.00  0.00    -0.191 OA
ATOM      4  N   UNL     1      35.187 -19.292 -22.032  0.00  0.00    -0.151 N 
ATOM      5  N   UNL     1      34.007 -19.860 -21.664  0.00  0.00    -0.229 N 
ATOM      6  N   UNL     1      35.457 -20.188 -19.980  0.00  0.00    -0.308 NA
ATOM      7  C   UNL     1      34.237 -20.376 -20.425  0.00  0.00    +0.187 C 
ATOM      8  C   UNL     1      36.091 -19.480 -21.002  0.00  0.00    +0.286 C 
ATOM      9  H   UNL     1      33.169 -19.892 -22.181  0.00  0.00    +0.173 HD
BRANCH   4  10
ATOM     10  C   UNL     1      35.326 -18.630 -23.299  0.00  0.00    +0.152 C 
BRANCH  10  11
ATOM     11  C   UNL     1      34.815 -17.219 -23.254  0.00  0.00    +0.000 C 
ATOM     12  C   UNL     1      34.237 -16.662 -24.388  0.00  0.00    -0.003 C 
ATOM     13  C   UNL     1      34.926 -16.484 -22.080  0.00  0.00    -0.003 C 
ATOM     14  C   UNL     1      33.869 -14.607 -23.173  0.00  0.00    -0.022 C 
ATOM     15  C   UNL     1      33.761 -15.350 -24.347  0.00  0.00    -0.005 C 
ATOM     16  C   UNL     1      34.451 -15.174 -22.039  0.00  0.00    -0.005 C 
ATOM     17  C   UNL     1      33.361 -13.205 -23.129  0.00  0.00    +0.031 C 
ENDBRANCH  10  11
ENDBRANCH   4  10
ENDBRANCH   2   7
ENDBRANCH   1   2
BRANCH   1  18
ATOM     18  C   UNL     1      33.162 -22.775 -17.729  0.00  0.00    +0.027 C 
BRANCH  18  19
ATOM     19  C   UNL     1      34.238 -23.011 -16.700  0.00  0.00    -0.022 C 
ATOM     20  C   UNL     1      33.910 -23.630 -15.503  0.00  0.00    -0.001 C 
ATOM     21  C   UNL     1      35.537 -22.606 -16.967  0.00  0.00    -0.001 C 
ATOM     22  C   UNL     1      36.216 -23.448 -14.806  0.00  0.00    +0.139 C 
ATOM     23  C   UNL     1      34.905 -23.850 -14.550  0.00  0.00    +0.037 C 
ATOM     24  C   UNL     1      36.532 -22.825 -16.014  0.00  0.00    +0.037 C 
BRANCH  22  25
ATOM     25  O   UNL     1      37.187 -23.660 -13.877  0.00  0.00    -0.472 OA
BRANCH  25  26
ATOM     26  C   UNL     1      37.524 -25.016 -13.588  0.00  0.00    +0.221 C 
ATOM     27  C   UNL     1      36.707 -25.913 -14.513  0.00  0.00    +0.055 C 
ATOM     28  C   UNL     1      39.026 -25.184 -13.796  0.00  0.00    +0.055 C 
BRANCH  26  30
ATOM     29  O   UNL     1      37.408 -24.454 -11.222  0.00  0.00    -0.246 OA
ATOM     30  C   UNL     1      37.142 -25.232 -12.130  0.00  0.00    +0.350 C 
BRANCH  30  31
ATOM     31  O   UNL     1      36.463 -26.389 -11.917  0.00  0.00    -0.478 OA
ATOM     32  H   UNL     1      35.934 -26.487 -11.151  0.00  0.00    +0.295 HD
ENDBRANCH  30  31
ENDBRANCH  26  30
ENDBRANCH  25  26
ENDBRANCH  22  25
ENDBRANCH  18  19
ENDBRANCH   1  18
TORSDOF 10
ENDMDL
MODEL 2
REMARK VINA RESULT:     -11.9      1.083      1.955
REMARK  Name = 9909438
REMARK  10 active torsions:
REMARK  status: ('A' for Active; 'I' for Inactive)
REMARK    1  A    between atoms: C_1  and  C_2
REMARK    2  A    between atoms: C_1  and  C_18
REMARK    3  A    between atoms: C_2  and  C_7
REMARK    4  A    between atoms: N_4  and  C_10
REMARK    5  A    between atoms: C_10  and  C_11
REMARK    6  A    between atoms: C_18  and  C_19
REMARK    7  A    between atoms: C_22  and  O_25
REMARK    8  A    between atoms: O_25  and  C_26
REMARK    9  A    between atoms: C_26  and  C_30
REMARK   10  A    between atoms: C_30  and  O_31
REMARK                            x       y       z     vdW  Elec       q    Type
REMARK                         _______ _______ _______ _____ _____    ______ ____
ROOT
ATOM      1  C   UNL     1      33.923 -22.298 -19.171  0.00  0.00    +0.014 C 
ENDROOT
BRANCH   1   2
ATOM      2  C   UNL     1      33.313 -21.038 -19.779  0.00  0.00    +0.078 C 
BRANCH   2   7
ATOM      3  O   UNL     1      37.468 -19.191 -21.052  0.00  0.00    -0.191 OA
ATOM      4  N   UNL     1      35.274 -18.622 -21.581  0.00  0.00    -0.151 N 
ATOM      5  N   UNL     1      34.067 -19.133 -21.216  0.00  0.00    -0.229 N 
ATOM      6  N   UNL     1      35.648 -20.367 -20.201  0.00  0.00    -0.308 NA
ATOM      7  C   UNL     1      34.363 -20.174 -20.389  0.00  0.00    +0.187 C 
ATOM      8  C   UNL     1      36.260 -19.368 -20.959  0.00  0.00    +0.286 C 
ATOM      9  H   UNL     1      33.175 -18.820 -21.491  0.00  0.00    +0.173 HD
BRANCH   4  10
ATOM     10  C   UNL     1      35.362 -17.487 -22.457  0.00  0.00    +0.152 C 
BRANCH  10  11
ATOM     11  C   UNL     1      34.455 -17.623 -23.645  0.00  0.00    +0.000 C 
ATOM     12  C   UNL     1      33.821 -16.497 -24.157  0.00  0.00    -0.003 C 
ATOM     13  C   UNL     1      34.257 -18.873 -24.221  0.00  0.00    -0.003 C 
ATOM     14  C   UNL     1      32.774 -17.873 -25.845  0.00  0.00    -0.022 C 
ATOM     15  C   UNL     1      32.978 -16.623 -25.262  0.00  0.00    -0.005 C 
ATOM     16  C   UNL     1      33.414 -18.998 -25.324  0.00  0.00    -0.005 C 
ATOM     17  C   UNL     1      31.873 -18.007 -27.025  0.00  0.00    +0.031 C 
ENDBRANCH  10  11
ENDBRANCH   4  10
ENDBRANCH   2   7
ENDBRANCH   1   2
BRANCH   1  18
ATOM     18  C   UNL     1      33.283 -22.668 -17.828  0.00  0.00    +0.027 C 
BRANCH  18  19
ATOM     19  C   UNL     1      34.323 -22.936 -16.771  0.00  0.00    -0.022 C 
ATOM     20  C   UNL     1      33.949 -23.559 -15.590  0.00  0.00    -0.001 C 
ATOM     21  C   UNL     1      35.637 -22.555 -16.997  0.00  0.00    -0.001 C 
ATOM     22  C   UNL     1      36.238 -23.431 -14.827  0.00  0.00    +0.139 C 
ATOM     23  C   UNL     1      34.912 -23.808 -14.612  0.00  0.00    +0.037 C 
ATOM     24  C   UNL     1      36.600 -22.804 -16.019  0.00  0.00    +0.037 C 
BRANCH  22  25
ATOM     25  O   UNL     1      37.177 -23.672 -13.872  0.00  0.00    -0.472 OA
BRANCH  25  26
ATOM     26  C   UNL     1      37.569 -25.030 -13.675  0.00  0.00    +0.221 C 
ATOM     27  C   UNL     1      36.795 -25.893 -14.666  0.00  0.00    +0.055 C 
ATOM     28  C   UNL     1      39.078 -25.122 -13.881  0.00  0.00    +0.055 C 
BRANCH  26  30
ATOM     29  O   UNL     1      36.603 -26.382 -11.895  0.00  0.00    -0.246 OA
ATOM     30  C   UNL     1      37.187 -25.362 -12.239  0.00  0.00    +0.350 C 
BRANCH  30  31
ATOM     31  O   UNL     1      37.558 -24.405 -11.348  0.00  0.00    -0.478 OA
ATOM     32  H   UNL     1      37.307 -23.514 -11.487  0.00  0.00    +0.295 HD
ENDBRANCH  30  31
ENDBRANCH  26  30
ENDBRANCH  25  26
ENDBRANCH  22  25
ENDBRANCH  18  19
ENDBRANCH   1  18
TORSDOF 10
ENDMDL
MODEL 3
REMARK VINA RESULT:     -11.6      0.895      1.637
REMARK  Name = 9909438
REMARK  10 active torsions:
REMARK  status: ('A' for Active; 'I' for Inactive)
REMARK    1  A    between atoms: C_1  and  C_2
REMARK    2  A    between atoms: C_1  and  C_18
REMARK    3  A    between atoms: C_2  and  C_7
REMARK    4  A    between atoms: N_4  and  C_10
REMARK    5  A    between atoms: C_10  and  C_11
REMARK    6  A    between atoms: C_18  and  C_19
REMARK    7  A    between atoms: C_22  and  O_25
REMARK    8  A    between atoms: O_25  and  C_26
REMARK    9  A    between atoms: C_26  and  C_30
REMARK   10  A    between atoms: C_30  and  O_31
REMARK                            x       y       z     vdW  Elec       q    Type
REMARK                         _______ _______ _______ _____ _____    ______ ____
ROOT
ATOM      1  C   UNL     1      33.521 -22.335 -19.153  0.00  0.00    +0.014 C 
ENDROOT
BRANCH   1   2
ATOM      2  C   UNL     1      32.997 -21.014 -19.711  0.00  0.00    +0.078 C 
BRANCH   2   7
ATOM      3  O   UNL     1      37.100 -19.089 -21.035  0.00  0.00    -0.191 OA
ATOM      4  N   UNL     1      35.034 -19.252 -22.093  0.00  0.00    -0.151 N 
ATOM      5  N   UNL     1      33.840 -19.791 -21.724  0.00  0.00    -0.229 N 
ATOM      6  N   UNL     1      35.277 -20.132 -20.031  0.00  0.00    -0.308 NA
ATOM      7  C   UNL     1      34.055 -20.299 -20.479  0.00  0.00    +0.187 C 
ATOM      8  C   UNL     1      35.930 -19.448 -21.057  0.00  0.00    +0.286 C 
ATOM      9  H   UNL     1      33.004 -19.811 -22.244  0.00  0.00    +0.173 HD
BRANCH   4  10
ATOM     10  C   UNL     1      35.191 -18.604 -23.365  0.00  0.00    +0.152 C 
BRANCH  10  11
ATOM     11  C   UNL     1      34.711 -17.182 -23.336  0.00  0.00    +0.000 C 
ATOM     12  C   UNL     1      34.091 -16.644 -24.457  0.00  0.00    -0.003 C 
ATOM     13  C   UNL     1      34.893 -16.419 -22.189  0.00  0.00    -0.003 C 
ATOM     14  C   UNL     1      33.823 -14.549 -23.283  0.00  0.00    -0.022 C 
ATOM     15  C   UNL     1      33.645 -15.322 -24.430  0.00  0.00    -0.005 C 
ATOM     16  C   UNL     1      34.447 -15.098 -22.162  0.00  0.00    -0.005 C 
ATOM     17  C   UNL     1      33.346 -13.136 -23.254  0.00  0.00    +0.031 C 
ENDBRANCH  10  11
ENDBRANCH   4  10
ENDBRANCH   2   7
ENDBRANCH   1   2
BRANCH   1  18
ATOM     18  C   UNL     1      32.917 -22.673 -17.785  0.00  0.00    +0.027 C 
BRANCH  18  19
ATOM     19  C   UNL     1      33.978 -23.076 -16.793  0.00  0.00    -0.022 C 
ATOM     20  C   UNL     1      35.285 -22.655 -16.986  0.00  0.00    -0.001 C 
ATOM     21  C   UNL     1      33.629 -23.860 -15.704  0.00  0.00    -0.001 C 
ATOM     22  C   UNL     1      35.930 -23.814 -14.967  0.00  0.00    +0.139 C 
ATOM     23  C   UNL     1      36.267 -23.026 -16.068  0.00  0.00    +0.037 C 
ATOM     24  C   UNL     1      34.612 -24.232 -14.786  0.00  0.00    +0.037 C 
BRANCH  22  25
ATOM     25  O   UNL     1      36.888 -24.178 -14.072  0.00  0.00    -0.472 OA
BRANCH  25  26
ATOM     26  C   UNL     1      37.199 -25.568 -13.983  0.00  0.00    +0.221 C 
ATOM     27  C   UNL     1      36.770 -26.060 -12.604  0.00  0.00    +0.055 C 
ATOM     28  C   UNL     1      36.465 -26.289 -15.110  0.00  0.00    +0.055 C 
BRANCH  26  30
ATOM     29  O   UNL     1      39.280 -26.559 -14.765  0.00  0.00    -0.246 OA
ATOM     30  C   UNL     1      38.708 -25.662 -14.158  0.00  0.00    +0.350 C 
BRANCH  30  31
ATOM     31  O   UNL     1      39.383 -24.642 -13.568  0.00  0.00    -0.478 OA
ATOM     32  H   UNL     1      40.309 -24.706 -13.438  0.00  0.00    +0.295 HD
ENDBRANCH  30  31
ENDBRANCH  26  30
ENDBRANCH  25  26
ENDBRANCH  22  25
ENDBRANCH  18  19
ENDBRANCH   1  18
TORSDOF 10
ENDMDL
MODEL 4
REMARK VINA RESULT:     -11.2      5.736     12.749
REMARK  Name = 9909438
REMARK  10 active torsions:
REMARK  status: ('A' for Active; 'I' for Inactive)
REMARK    1  A    between atoms: C_1  and  C_2
REMARK    2  A    between atoms: C_1  and  C_18
REMARK    3  A    between atoms: C_2  and  C_7
REMARK    4  A    between atoms: N_4  and  C_10
REMARK    5  A    between atoms: C_10  and  C_11
REMARK    6  A    between atoms: C_18  and  C_19
REMARK    7  A    between atoms: C_22  and  O_25
REMARK    8  A    between atoms: O_25  and  C_26
REMARK    9  A    between atoms: C_26  and  C_30
REMARK   10  A    between atoms: C_30  and  O_31
REMARK                            x       y       z     vdW  Elec       q    Type
REMARK                         _______ _______ _______ _____ _____    ______ ____
ROOT
ATOM      1  C   UNL     1      33.047 -13.773 -21.363  0.00  0.00    +0.014 C 
ENDROOT
BRANCH   1   2
ATOM      2  C   UNL     1      34.151 -14.579 -20.682  0.00  0.00    +0.078 C 
BRANCH   2   7
ATOM      3  O   UNL     1      34.968 -17.471 -24.323  0.00  0.00    -0.191 OA
ATOM      4  N   UNL     1      35.352 -17.685 -22.039  0.00  0.00    -0.151 N 
ATOM      5  N   UNL     1      35.114 -16.869 -20.975  0.00  0.00    -0.229 N 
ATOM      6  N   UNL     1      34.408 -15.789 -22.815  0.00  0.00    -0.308 NA
ATOM      7  C   UNL     1      34.547 -15.752 -21.510  0.00  0.00    +0.187 C 
ATOM      8  C   UNL     1      34.917 -17.035 -23.180  0.00  0.00    +0.286 C 
ATOM      9  H   UNL     1      35.310 -17.047 -20.027  0.00  0.00    +0.173 HD
BRANCH   4  10
ATOM     10  C   UNL     1      35.946 -18.980 -21.859  0.00  0.00    +0.152 C 
BRANCH  10  11
ATOM     11  C   UNL     1      35.110 -19.865 -20.982  0.00  0.00    +0.000 C 
ATOM     12  C   UNL     1      33.724 -19.804 -21.067  0.00  0.00    -0.003 C 
ATOM     13  C   UNL     1      35.729 -20.736 -20.093  0.00  0.00    -0.003 C 
ATOM     14  C   UNL     1      33.559 -21.504 -19.358  0.00  0.00    -0.022 C 
ATOM     15  C   UNL     1      32.946 -20.628 -20.252  0.00  0.00    -0.005 C 
ATOM     16  C   UNL     1      34.951 -21.558 -19.279  0.00  0.00    -0.005 C 
ATOM     17  C   UNL     1      32.727 -22.383 -18.487  0.00  0.00    +0.031 C 
ENDBRANCH  10  11
ENDBRANCH   4  10
ENDBRANCH   2   7
ENDBRANCH   1   2
BRANCH   1  18
ATOM     18  C   UNL     1      32.021 -13.227 -20.364  0.00  0.00    +0.027 C 
BRANCH  18  19
ATOM     19  C   UNL     1      31.727 -11.769 -20.610  0.00  0.00    -0.022 C 
ATOM     20  C   UNL     1      31.712 -11.288 -21.911  0.00  0.00    -0.001 C 
ATOM     21  C   UNL     1      31.476 -10.934 -19.533  0.00  0.00    -0.001 C 
ATOM     22  C   UNL     1      31.184  -9.088 -21.064  0.00  0.00    +0.139 C 
ATOM     23  C   UNL     1      31.439  -9.940 -22.140  0.00  0.00    +0.037 C 
ATOM     24  C   UNL     1      31.204  -9.585 -19.761  0.00  0.00    +0.037 C 
BRANCH  22  25
ATOM     25  O   UNL     1      30.920  -7.772 -21.286  0.00  0.00    -0.472 OA
BRANCH  25  26
ATOM     26  C   UNL     1      32.036  -6.884 -21.335  0.00  0.00    +0.221 C 
ATOM     27  C   UNL     1      33.168  -7.589 -22.076  0.00  0.00    +0.055 C 
ATOM     28  C   UNL     1      31.592  -5.605 -22.038  0.00  0.00    +0.055 C 
BRANCH  26  30
ATOM     29  O   UNL     1      31.727  -5.962 -19.103  0.00  0.00    -0.246 OA
ATOM     30  C   UNL     1      32.409  -6.615 -19.883  0.00  0.00    +0.350 C 
BRANCH  30  31
ATOM     31  O   UNL     1      33.591  -7.176 -19.519  0.00  0.00    -0.478 OA
ATOM     32  H   UNL     1      33.605  -8.028 -19.130  0.00  0.00    +0.295 HD
ENDBRANCH  30  31
ENDBRANCH  26  30
ENDBRANCH  25  26
ENDBRANCH  22  25
ENDBRANCH  18  19
ENDBRANCH   1  18
TORSDOF 10
ENDMDL
MODEL 5
REMARK VINA RESULT:     -11.2      3.337     10.302
REMARK  Name = 9909438
REMARK  10 active torsions:
REMARK  status: ('A' for Active; 'I' for Inactive)
REMARK    1  A    between atoms: C_1  and  C_2
REMARK    2  A    between atoms: C_1  and  C_18
REMARK    3  A    between atoms: C_2  and  C_7
REMARK    4  A    between atoms: N_4  and  C_10
REMARK    5  A    between atoms: C_10  and  C_11
REMARK    6  A    between atoms: C_18  and  C_19
REMARK    7  A    between atoms: C_22  and  O_25
REMARK    8  A    between atoms: O_25  and  C_26
REMARK    9  A    between atoms: C_26  and  C_30
REMARK   10  A    between atoms: C_30  and  O_31
REMARK                            x       y       z     vdW  Elec       q    Type
REMARK                         _______ _______ _______ _____ _____    ______ ____
ROOT
ATOM      1  C   UNL     1      36.307 -21.898 -18.076  0.00  0.00    +0.014 C 
ENDROOT
BRANCH   1   2
ATOM      2  C   UNL     1      36.514 -21.716 -16.575  0.00  0.00    +0.078 C 
BRANCH   2   7
ATOM      3  O   UNL     1      35.562 -25.959 -14.735  0.00  0.00    -0.191 OA
ATOM      4  N   UNL     1      34.572 -23.872 -14.451  0.00  0.00    -0.151 N 
ATOM      5  N   UNL     1      34.825 -22.644 -14.979  0.00  0.00    -0.229 N 
ATOM      6  N   UNL     1      36.333 -24.065 -15.847  0.00  0.00    -0.308 NA
ATOM      7  C   UNL     1      35.890 -22.830 -15.808  0.00  0.00    +0.187 C 
ATOM      8  C   UNL     1      35.491 -24.761 -14.981  0.00  0.00    +0.286 C 
ATOM      9  H   UNL     1      34.344 -21.803 -14.801  0.00  0.00    +0.173 HD
BRANCH   4  10
ATOM     10  C   UNL     1      33.494 -24.071 -13.524  0.00  0.00    +0.152 C 
BRANCH  10  11
ATOM     11  C   UNL     1      32.161 -24.118 -14.213  0.00  0.00    +0.000 C 
ATOM     12  C   UNL     1      31.908 -23.262 -15.278  0.00  0.00    -0.003 C 
ATOM     13  C   UNL     1      31.194 -25.017 -13.780  0.00  0.00    -0.003 C 
ATOM     14  C   UNL     1      29.694 -24.205 -15.490  0.00  0.00    -0.022 C 
ATOM     15  C   UNL     1      30.669 -23.306 -15.919  0.00  0.00    -0.005 C 
ATOM     16  C   UNL     1      29.957 -25.061 -14.421  0.00  0.00    -0.005 C 
ATOM     17  C   UNL     1      28.370 -24.251 -16.175  0.00  0.00    +0.031 C 
ENDBRANCH  10  11
ENDBRANCH   4  10
ENDBRANCH   2   7
ENDBRANCH   1   2
BRANCH   1  18
ATOM     18  C   UNL     1      34.831 -22.089 -18.444  0.00  0.00    +0.027 C 
BRANCH  18  19
ATOM     19  C   UNL     1      34.423 -21.192 -19.585  0.00  0.00    -0.022 C 
ATOM     20  C   UNL     1      33.076 -21.036 -19.878  0.00  0.00    -0.001 C 
ATOM     21  C   UNL     1      35.399 -20.539 -20.321  0.00  0.00    -0.001 C 
ATOM     22  C   UNL     1      33.669 -19.542 -21.682  0.00  0.00    +0.139 C 
ATOM     23  C   UNL     1      32.697 -20.206 -20.933  0.00  0.00    +0.037 C 
ATOM     24  C   UNL     1      35.020 -19.709 -21.377  0.00  0.00    +0.037 C 
BRANCH  22  25
ATOM     25  O   UNL     1      33.300 -18.733 -22.712  0.00  0.00    -0.472 OA
BRANCH  25  26
ATOM     26  C   UNL     1      34.286 -18.459 -23.707  0.00  0.00    +0.221 C 
ATOM     27  C   UNL     1      35.382 -17.614 -23.066  0.00  0.00    +0.055 C 
ATOM     28  C   UNL     1      34.812 -19.792 -24.230  0.00  0.00    +0.055 C 
BRANCH  26  30
ATOM     29  O   UNL     1      32.412 -17.910 -25.162  0.00  0.00    -0.246 OA
ATOM     30  C   UNL     1      33.560 -17.685 -24.800  0.00  0.00    +0.350 C 
BRANCH  30  31
ATOM     31  O   UNL     1      34.314 -16.699 -25.352  0.00  0.00    -0.478 OA
ATOM     32  H   UNL     1      33.976 -15.827 -25.407  0.00  0.00    +0.295 HD
ENDBRANCH  30  31
ENDBRANCH  26  30
ENDBRANCH  25  26
ENDBRANCH  22  25
ENDBRANCH  18  19
ENDBRANCH   1  18
TORSDOF 10
ENDMDL
MODEL 6
REMARK VINA RESULT:     -11.2      1.373      1.849
REMARK  Name = 9909438
REMARK  10 active torsions:
REMARK  status: ('A' for Active; 'I' for Inactive)
REMARK    1  A    between atoms: C_1  and  C_2
REMARK    2  A    between atoms: C_1  and  C_18
REMARK    3  A    between atoms: C_2  and  C_7
REMARK    4  A    between atoms: N_4  and  C_10
REMARK    5  A    between atoms: C_10  and  C_11
REMARK    6  A    between atoms: C_18  and  C_19
REMARK    7  A    between atoms: C_22  and  O_25
REMARK    8  A    between atoms: O_25  and  C_26
REMARK    9  A    between atoms: C_26  and  C_30
REMARK   10  A    between atoms: C_30  and  O_31
REMARK                            x       y       z     vdW  Elec       q    Type
REMARK                         _______ _______ _______ _____ _____    ______ ____
ROOT
ATOM      1  C   UNL     1      35.933 -21.523 -19.865  0.00  0.00    +0.014 C 
ENDROOT
BRANCH   1   2
ATOM      2  C   UNL     1      36.257 -20.034 -19.965  0.00  0.00    +0.078 C 
BRANCH   2   7
ATOM      3  O   UNL     1      33.035 -18.962 -23.245  0.00  0.00    -0.191 OA
ATOM      4  N   UNL     1      35.123 -18.062 -22.750  0.00  0.00    -0.151 N 
ATOM      5  N   UNL     1      36.068 -18.364 -21.819  0.00  0.00    -0.229 N 
ATOM      6  N   UNL     1      34.356 -19.788 -21.516  0.00  0.00    -0.308 NA
ATOM      7  C   UNL     1      35.546 -19.407 -21.115  0.00  0.00    +0.187 C 
ATOM      8  C   UNL     1      34.063 -18.935 -22.580  0.00  0.00    +0.286 C 
ATOM      9  H   UNL     1      36.939 -17.925 -21.683  0.00  0.00    +0.173 HD
BRANCH   4  10
ATOM     10  C   UNL     1      35.329 -17.002 -23.696  0.00  0.00    +0.152 C 
BRANCH  10  11
ATOM     11  C   UNL     1      34.536 -15.776 -23.349  0.00  0.00    +0.000 C 
ATOM     12  C   UNL     1      33.792 -15.138 -24.334  0.00  0.00    -0.003 C 
ATOM     13  C   UNL     1      34.554 -15.291 -22.047  0.00  0.00    -0.003 C 
ATOM     14  C   UNL     1      33.067 -13.506 -22.707  0.00  0.00    -0.022 C 
ATOM     15  C   UNL     1      33.054 -13.998 -24.011  0.00  0.00    -0.005 C 
ATOM     16  C   UNL     1      33.817 -14.152 -21.724  0.00  0.00    -0.005 C 
ATOM     17  C   UNL     1      32.279 -12.287 -22.363  0.00  0.00    +0.031 C 
ENDBRANCH  10  11
ENDBRANCH   4  10
ENDBRANCH   2   7
ENDBRANCH   1   2
BRANCH   1  18
ATOM     18  C   UNL     1      34.749 -21.802 -18.933  0.00  0.00    +0.027 C 
BRANCH  18  19
ATOM     19  C   UNL     1      35.207 -22.303 -17.587  0.00  0.00    -0.022 C 
ATOM     20  C   UNL     1      34.308 -22.968 -16.767  0.00  0.00    -0.001 C 
ATOM     21  C   UNL     1      36.519 -22.092 -17.192  0.00  0.00    -0.001 C 
ATOM     22  C   UNL     1      36.049 -23.228 -15.112  0.00  0.00    +0.139 C 
ATOM     23  C   UNL     1      34.731 -23.434 -15.522  0.00  0.00    +0.037 C 
ATOM     24  C   UNL     1      36.943 -22.557 -15.947  0.00  0.00    +0.037 C 
BRANCH  22  25
ATOM     25  O   UNL     1      36.463 -23.680 -13.897  0.00  0.00    -0.472 OA
BRANCH  25  26
ATOM     26  C   UNL     1      36.858 -25.049 -13.814  0.00  0.00    +0.221 C 
ATOM     27  C   UNL     1      36.259 -25.787 -15.007  0.00  0.00    +0.055 C 
ATOM     28  C   UNL     1      38.383 -25.100 -13.807  0.00  0.00    +0.055 C 
BRANCH  26  30
ATOM     29  O   UNL     1      36.878 -26.301 -11.726  0.00  0.00    -0.246 OA
ATOM     30  C   UNL     1      36.283 -25.562 -12.501  0.00  0.00    +0.350 C 
BRANCH  30  31
ATOM     31  O   UNL     1      35.022 -25.120 -12.256  0.00  0.00    -0.478 OA
ATOM     32  H   UNL     1      34.518 -24.738 -12.946  0.00  0.00    +0.295 HD
ENDBRANCH  30  31
ENDBRANCH  26  30
ENDBRANCH  25  26
ENDBRANCH  22  25
ENDBRANCH  18  19
ENDBRANCH   1  18
TORSDOF 10
ENDMDL
MODEL 7
REMARK VINA RESULT:     -11.0      3.401     10.828
REMARK  Name = 9909438
REMARK  10 active torsions:
REMARK  status: ('A' for Active; 'I' for Inactive)
REMARK    1  A    between atoms: C_1  and  C_2
REMARK    2  A    between atoms: C_1  and  C_18
REMARK    3  A    between atoms: C_2  and  C_7
REMARK    4  A    between atoms: N_4  and  C_10
REMARK    5  A    between atoms: C_10  and  C_11
REMARK    6  A    between atoms: C_18  and  C_19
REMARK    7  A    between atoms: C_22  and  O_25
REMARK    8  A    between atoms: O_25  and  C_26
REMARK    9  A    between atoms: C_26  and  C_30
REMARK   10  A    between atoms: C_30  and  O_31
REMARK                            x       y       z     vdW  Elec       q    Type
REMARK                         _______ _______ _______ _____ _____    ______ ____
ROOT
ATOM      1  C   UNL     1      33.798 -22.790 -17.493  0.00  0.00    +0.014 C 
ENDROOT
BRANCH   1   2
ATOM      2  C   UNL     1      32.418 -23.042 -16.892  0.00  0.00    +0.078 C 
BRANCH   2   7
ATOM      3  O   UNL     1      31.507 -25.233 -12.810  0.00  0.00    -0.191 OA
ATOM      4  N   UNL     1      33.365 -24.061 -13.576  0.00  0.00    -0.151 N 
ATOM      5  N   UNL     1      33.642 -23.415 -14.741  0.00  0.00    -0.229 N 
ATOM      6  N   UNL     1      31.573 -24.272 -14.929  0.00  0.00    -0.308 NA
ATOM      7  C   UNL     1      32.526 -23.578 -15.506  0.00  0.00    +0.187 C 
ATOM      8  C   UNL     1      32.091 -24.590 -13.673  0.00  0.00    +0.286 C 
ATOM      9  H   UNL     1      34.467 -22.934 -14.981  0.00  0.00    +0.173 HD
BRANCH   4  10
ATOM     10  C   UNL     1      34.322 -24.095 -12.505  0.00  0.00    +0.152 C 
BRANCH  10  11
ATOM     11  C   UNL     1      35.669 -24.566 -12.969  0.00  0.00    +0.000 C 
ATOM     12  C   UNL     1      36.805 -24.211 -12.251  0.00  0.00    -0.003 C 
ATOM     13  C   UNL     1      35.767 -25.351 -14.112  0.00  0.00    -0.003 C 
ATOM     14  C   UNL     1      38.165 -25.438 -13.827  0.00  0.00    -0.022 C 
ATOM     15  C   UNL     1      38.058 -24.650 -12.682  0.00  0.00    -0.005 C 
ATOM     16  C   UNL     1      37.020 -25.789 -14.542  0.00  0.00    -0.005 C 
ATOM     17  C   UNL     1      39.504 -25.905 -14.288  0.00  0.00    +0.031 C 
ENDBRANCH  10  11
ENDBRANCH   4  10
ENDBRANCH   2   7
ENDBRANCH   1   2
BRANCH   1  18
ATOM     18  C   UNL     1      33.815 -22.972 -19.015  0.00  0.00    +0.027 C 
BRANCH  18  19
ATOM     19  C   UNL     1      33.971 -21.654 -19.730  0.00  0.00    -0.022 C 
ATOM     20  C   UNL     1      35.242 -21.144 -19.948  0.00  0.00    -0.001 C 
ATOM     21  C   UNL     1      32.842 -20.974 -20.159  0.00  0.00    -0.001 C 
ATOM     22  C   UNL     1      34.260 -19.231 -21.048  0.00  0.00    +0.139 C 
ATOM     23  C   UNL     1      35.388 -19.926 -20.611  0.00  0.00    +0.037 C 
ATOM     24  C   UNL     1      32.987 -19.755 -20.822  0.00  0.00    +0.037 C 
BRANCH  22  25
ATOM     25  O   UNL     1      34.401 -18.041 -21.693  0.00  0.00    -0.472 OA
BRANCH  25  26
ATOM     26  C   UNL     1      35.029 -18.068 -22.974  0.00  0.00    +0.221 C 
ATOM     27  C   UNL     1      36.465 -18.546 -22.786  0.00  0.00    +0.055 C 
ATOM     28  C   UNL     1      34.222 -18.996 -23.877  0.00  0.00    +0.055 C 
BRANCH  26  30
ATOM     29  O   UNL     1      34.923 -15.645 -22.759  0.00  0.00    -0.246 OA
ATOM     30  C   UNL     1      34.986 -16.632 -23.481  0.00  0.00    +0.350 C 
BRANCH  30  31
ATOM     31  O   UNL     1      35.026 -16.538 -24.835  0.00  0.00    -0.478 OA
ATOM     32  H   UNL     1      35.807 -16.247 -25.262  0.00  0.00    +0.295 HD
ENDBRANCH  30  31
ENDBRANCH  26  30
ENDBRANCH  25  26
ENDBRANCH  22  25
ENDBRANCH  18  19
ENDBRANCH   1  18
TORSDOF 10
ENDMDL
MODEL 8
REMARK VINA RESULT:     -11.0      6.441      9.383
REMARK  Name = 9909438
REMARK  10 active torsions:
REMARK  status: ('A' for Active; 'I' for Inactive)
REMARK    1  A    between atoms: C_1  and  C_2
REMARK    2  A    between atoms: C_1  and  C_18
REMARK    3  A    between atoms: C_2  and  C_7
REMARK    4  A    between atoms: N_4  and  C_10
REMARK    5  A    between atoms: C_10  and  C_11
REMARK    6  A    between atoms: C_18  and  C_19
REMARK    7  A    between atoms: C_22  and  O_25
REMARK    8  A    between atoms: O_25  and  C_26
REMARK    9  A    between atoms: C_26  and  C_30
REMARK   10  A    between atoms: C_30  and  O_31
REMARK                            x       y       z     vdW  Elec       q    Type
REMARK                         _______ _______ _______ _____ _____    ______ ____
ROOT
ATOM      1  C   UNL     1      31.987 -16.149 -27.796  0.00  0.00    +0.014 C 
ENDROOT
BRANCH   1   2
ATOM      2  C   UNL     1      31.259 -14.817 -27.629  0.00  0.00    +0.078 C 
BRANCH   2   7
ATOM      3  O   UNL     1      34.744 -11.635 -27.771  0.00  0.00    -0.191 OA
ATOM      4  N   UNL     1      33.141 -12.129 -26.159  0.00  0.00    -0.151 N 
ATOM      5  N   UNL     1      32.138 -13.047 -26.095  0.00  0.00    -0.229 N 
ATOM      6  N   UNL     1      33.165 -13.318 -28.076  0.00  0.00    -0.308 NA
ATOM      7  C   UNL     1      32.210 -13.727 -27.273  0.00  0.00    +0.187 C 
ATOM      8  C   UNL     1      33.787 -12.287 -27.372  0.00  0.00    +0.286 C 
ATOM      9  H   UNL     1      31.500 -13.189 -25.359  0.00  0.00    +0.173 HD
BRANCH   4  10
ATOM     10  C   UNL     1      33.383 -11.223 -25.072  0.00  0.00    +0.152 C 
BRANCH  10  11
ATOM     11  C   UNL     1      32.977 -11.808 -23.750  0.00  0.00    +0.000 C 
ATOM     12  C   UNL     1      33.522 -13.018 -23.339  0.00  0.00    -0.003 C 
ATOM     13  C   UNL     1      32.060 -11.134 -22.952  0.00  0.00    -0.003 C 
ATOM     14  C   UNL     1      32.226 -12.892 -21.304  0.00  0.00    -0.022 C 
ATOM     15  C   UNL     1      33.145 -13.562 -22.110  0.00  0.00    -0.005 C 
ATOM     16  C   UNL     1      31.683 -11.678 -21.725  0.00  0.00    -0.005 C 
ATOM     17  C   UNL     1      31.822 -13.474 -19.991  0.00  0.00    +0.031 C 
ENDBRANCH  10  11
ENDBRANCH   4  10
ENDBRANCH   2   7
ENDBRANCH   1   2
BRANCH   1  18
ATOM     18  C   UNL     1      31.558 -17.185 -26.751  0.00  0.00    +0.027 C 
BRANCH  18  19
ATOM     19  C   UNL     1      32.655 -17.454 -25.753  0.00  0.00    -0.022 C 
ATOM     20  C   UNL     1      33.052 -18.761 -25.514  0.00  0.00    -0.001 C 
ATOM     21  C   UNL     1      33.250 -16.390 -25.092  0.00  0.00    -0.001 C 
ATOM     22  C   UNL     1      34.676 -17.950 -23.919  0.00  0.00    +0.139 C 
ATOM     23  C   UNL     1      34.068 -19.011 -24.592  0.00  0.00    +0.037 C 
ATOM     24  C   UNL     1      34.266 -16.640 -24.168  0.00  0.00    +0.037 C 
BRANCH  22  25
ATOM     25  O   UNL     1      35.666 -18.193 -23.018  0.00  0.00    -0.472 OA
BRANCH  25  26
ATOM     26  C   UNL     1      35.271 -18.438 -21.669  0.00  0.00    +0.221 C 
ATOM     27  C   UNL     1      34.910 -17.100 -21.032  0.00  0.00    +0.055 C 
ATOM     28  C   UNL     1      34.091 -19.406 -21.691  0.00  0.00    +0.055 C 
BRANCH  26  30
ATOM     29  O   UNL     1      36.456 -19.632 -19.909  0.00  0.00    -0.246 OA
ATOM     30  C   UNL     1      36.484 -19.063 -20.993  0.00  0.00    +0.350 C 
BRANCH  30  31
ATOM     31  O   UNL     1      37.628 -18.932 -21.714  0.00  0.00    -0.478 OA
ATOM     32  H   UNL     1      38.190 -18.196 -21.571  0.00  0.00    +0.295 HD
ENDBRANCH  30  31
ENDBRANCH  26  30
ENDBRANCH  25  26
ENDBRANCH  22  25
ENDBRANCH  18  19
ENDBRANCH   1  18
TORSDOF 10
ENDMDL
MODEL 9
REMARK VINA RESULT:     -11.0      5.366     12.833
REMARK  Name = 9909438
REMARK  10 active torsions:
REMARK  status: ('A' for Active; 'I' for Inactive)
REMARK    1  A    between atoms: C_1  and  C_2
REMARK    2  A    between atoms: C_1  and  C_18
REMARK    3  A    between atoms: C_2  and  C_7
REMARK    4  A    between atoms: N_4  and  C_10
REMARK    5  A    between atoms: C_10  and  C_11
REMARK    6  A    between atoms: C_18  and  C_19
REMARK    7  A    between atoms: C_22  and  O_25
REMARK    8  A    between atoms: O_25  and  C_26
REMARK    9  A    between atoms: C_26  and  C_30
REMARK   10  A    between atoms: C_30  and  O_31
REMARK                            x       y       z     vdW  Elec       q    Type
REMARK                         _______ _______ _______ _____ _____    ______ ____
ROOT
ATOM      1  C   UNL     1      32.772 -16.441 -25.929  0.00  0.00    +0.014 C 
ENDROOT
BRANCH   1   2
ATOM      2  C   UNL     1      34.111 -17.162 -25.795  0.00  0.00    +0.078 C 
BRANCH   2   7
ATOM      3  O   UNL     1      34.789 -16.096 -21.245  0.00  0.00    -0.191 OA
ATOM      4  N   UNL     1      35.509 -17.876 -22.560  0.00  0.00    -0.151 N 
ATOM      5  N   UNL     1      35.334 -18.194 -23.871  0.00  0.00    -0.229 N 
ATOM      6  N   UNL     1      34.238 -16.268 -23.501  0.00  0.00    -0.308 NA
ATOM      7  C   UNL     1      34.566 -17.189 -24.376  0.00  0.00    +0.187 C 
ATOM      8  C   UNL     1      34.844 -16.687 -22.316  0.00  0.00    +0.286 C 
ATOM      9  H   UNL     1      35.685 -18.979 -24.351  0.00  0.00    +0.173 HD
BRANCH   4  10
ATOM     10  C   UNL     1      36.288 -18.715 -21.693  0.00  0.00    +0.152 C 
BRANCH  10  11
ATOM     11  C   UNL     1      35.432 -19.675 -20.919  0.00  0.00    +0.000 C 
ATOM     12  C   UNL     1      34.050 -19.624 -21.055  0.00  0.00    -0.003 C 
ATOM     13  C   UNL     1      36.029 -20.603 -20.075  0.00  0.00    -0.003 C 
ATOM     14  C   UNL     1      33.844 -21.450 -19.487  0.00  0.00    -0.022 C 
ATOM     15  C   UNL     1      33.253 -20.516 -20.336  0.00  0.00    -0.005 C 
ATOM     16  C   UNL     1      35.232 -21.494 -19.357  0.00  0.00    -0.005 C 
ATOM     17  C   UNL     1      32.992 -22.403 -18.718  0.00  0.00    +0.031 C 
ENDBRANCH  10  11
ENDBRANCH   4  10
ENDBRANCH   2   7
ENDBRANCH   1   2
BRANCH   1  18
ATOM     18  C   UNL     1      32.736 -15.493 -27.133  0.00  0.00    +0.027 C 
BRANCH  18  19
ATOM     19  C   UNL     1      32.734 -14.049 -26.702  0.00  0.00    -0.022 C 
ATOM     20  C   UNL     1      32.350 -13.070 -27.606  0.00  0.00    -0.001 C 
ATOM     21  C   UNL     1      33.115 -13.723 -25.410  0.00  0.00    -0.001 C 
ATOM     22  C   UNL     1      32.727 -11.391 -25.911  0.00  0.00    +0.139 C 
ATOM     23  C   UNL     1      32.346 -11.733 -27.209  0.00  0.00    +0.037 C 
ATOM     24  C   UNL     1      33.113 -12.385 -25.012  0.00  0.00    +0.037 C 
BRANCH  22  25
ATOM     25  O   UNL     1      32.726 -10.087 -25.522  0.00  0.00    -0.472 OA
BRANCH  25  26
ATOM     26  C   UNL     1      33.949  -9.365 -25.666  0.00  0.00    +0.221 C 
ATOM     27  C   UNL     1      34.874 -10.178 -26.566  0.00  0.00    +0.055 C 
ATOM     28  C   UNL     1      33.623  -7.996 -26.256  0.00  0.00    +0.055 C 
BRANCH  26  30
ATOM     29  O   UNL     1      33.995  -8.599 -23.356  0.00  0.00    -0.246 OA
ATOM     30  C   UNL     1      34.518  -9.239 -24.259  0.00  0.00    +0.350 C 
BRANCH  30  31
ATOM     31  O   UNL     1      35.684  -9.914 -24.088  0.00  0.00    -0.478 OA
ATOM     32  H   UNL     1      35.815 -10.436 -23.322  0.00  0.00    +0.295 HD
ENDBRANCH  30  31
ENDBRANCH  26  30
ENDBRANCH  25  26
ENDBRANCH  22  25
ENDBRANCH  18  19
ENDBRANCH   1  18
TORSDOF 10
ENDMDL
