MODEL 1
REMARK VINA RESULT:     -11.6      0.000      0.000
REMARK  Name = 11507920
REMARK  4 active torsions:
REMARK  status: ('A' for Active; 'I' for Inactive)
REMARK    1  A    between atoms: C_1  and  C_8
REMARK    2  A    between atoms: C_2  and  C_17
REMARK    3  A    between atoms: C_17  and  N_18
REMARK    4  A    between atoms: N_18  and  C_21
REMARK                            x       y       z     vdW  Elec       q    Type
REMARK                         _______ _______ _______ _____ _____    ______ ____
ROOT
ATOM      1  C   UNL     1      34.115 -24.083 -14.653  0.00  0.00    -0.000 C 
ATOM      2  C   UNL     1      32.491 -23.223 -16.221  0.00  0.00    -0.003 C 
ATOM      3  C   UNL     1      33.785 -23.665 -15.942  0.00  0.00    -0.003 C 
ATOM      4  C   UNL     1      33.155 -24.058 -13.643  0.00  0.00    -0.000 C 
ATOM      5  C   UNL     1      31.530 -23.198 -15.211  0.00  0.00    -0.003 C 
ATOM      6  C   UNL     1      31.862 -23.614 -13.921  0.00  0.00    -0.000 C 
ENDROOT
BRANCH   1   8
ATOM      7  N   UNL     1      38.957 -24.595 -15.634  0.00  0.00    -0.312 N 
ATOM      8  C   UNL     1      35.458 -24.541 -14.363  0.00  0.00    +0.001 C 
ATOM      9  C   UNL     1      37.771 -24.721 -14.947  0.00  0.00    +0.048 C 
ATOM     10  C   UNL     1      38.046 -25.437 -13.780  0.00  0.00    +0.015 C 
ATOM     11  C   UNL     1      36.488 -24.260 -15.265  0.00  0.00    +0.015 C 
ATOM     12  C   UNL     1      35.703 -25.254 -13.191  0.00  0.00    +0.000 C 
ATOM     13  C   UNL     1      36.991 -25.709 -12.886  0.00  0.00    +0.001 C 
ATOM     14  C   UNL     1      39.437 -25.735 -13.792  0.00  0.00    +0.017 C 
ATOM     15  C   UNL     1      39.969 -25.205 -14.944  0.00  0.00    +0.062 C 
ATOM     16  H   UNL     1      39.062 -24.132 -16.497  0.00  0.00    +0.152 HD
ENDBRANCH   1   8
BRANCH   2  17
ATOM     17  C   UNL     1      32.136 -22.776 -17.599  0.00  0.00    +0.114 C 
BRANCH  17  18
ATOM     18  N   UNL     1      33.268 -22.798 -18.490  0.00  0.00    -0.327 N 
ATOM     19  H   UNL     1      33.813 -23.617 -18.527  0.00  0.00    +0.147 HD
BRANCH  18  21
ATOM     20  N   UNL     1      35.343 -20.231 -20.169  0.00  0.00    -0.228 NA
ATOM     21  C   UNL     1      33.634 -21.731 -19.299  0.00  0.00    +0.077 C 
ATOM     22  C   UNL     1      34.947 -21.265 -19.393  0.00  0.00    +0.139 C 
ATOM     23  C   UNL     1      32.676 -21.064 -20.074  0.00  0.00    +0.019 C 
ATOM     24  C   UNL     1      33.046 -19.996 -20.884  0.00  0.00    +0.022 C 
ATOM     25  C   UNL     1      34.380 -19.622 -20.897  0.00  0.00    +0.100 C 
ATOM     26  N   UNL     1      35.934 -21.922 -18.617  0.00  0.00    -0.342 N 
ATOM     27  H   UNL     1      36.871 -21.623 -18.657  0.00  0.00    +0.144 HD
ATOM     28  H   UNL     1      35.684 -22.679 -18.040  0.00  0.00    +0.144 HD
ENDBRANCH  18  21
ENDBRANCH  17  18
ENDBRANCH   2  17
TORSDOF 4
ENDMDL
MODEL 2
REMARK VINA RESULT:     -11.6      1.800      7.236
REMARK  Name = 11507920
REMARK  4 active torsions:
REMARK  status: ('A' for Active; 'I' for Inactive)
REMARK    1  A    between atoms: C_1  and  C_8
REMARK    2  A    between atoms: C_2  and  C_17
REMARK    3  A    between atoms: C_17  and  N_18
REMARK    4  A    between atoms: N_18  and  C_21
REMARK                            x       y       z     vdW  Elec       q    Type
REMARK                         _______ _______ _______ _____ _____    ______ ____
ROOT
ATOM      1  C   UNL     1      32.975 -22.678 -17.325  0.00  0.00    -0.000 C 
ATOM      2  C   UNL     1      33.248 -23.843 -15.227  0.00  0.00    -0.003 C 
ATOM      3  C   UNL     1      33.801 -23.162 -16.312  0.00  0.00    -0.003 C 
ATOM      4  C   UNL     1      31.596 -22.874 -17.256  0.00  0.00    -0.000 C 
ATOM      5  C   UNL     1      31.869 -24.039 -15.157  0.00  0.00    -0.003 C 
ATOM      6  C   UNL     1      31.043 -23.555 -16.173  0.00  0.00    -0.000 C 
ENDROOT
BRANCH   1   8
ATOM      7  N   UNL     1      32.749 -19.784 -21.356  0.00  0.00    -0.312 N 
ATOM      8  C   UNL     1      33.549 -21.972 -18.452  0.00  0.00    +0.001 C 
ATOM      9  C   UNL     1      33.311 -20.571 -20.376  0.00  0.00    +0.048 C 
ATOM     10  C   UNL     1      34.684 -20.618 -20.624  0.00  0.00    +0.015 C 
ATOM     11  C   UNL     1      32.716 -21.237 -19.299  0.00  0.00    +0.015 C 
ATOM     12  C   UNL     1      34.924 -22.038 -18.676  0.00  0.00    +0.000 C 
ATOM     13  C   UNL     1      35.506 -21.366 -19.757  0.00  0.00    +0.001 C 
ATOM     14  C   UNL     1      34.925 -19.832 -21.786  0.00  0.00    +0.017 C 
ATOM     15  C   UNL     1      33.716 -19.334 -22.212  0.00  0.00    +0.062 C 
ATOM     16  H   UNL     1      31.789 -19.576 -21.430  0.00  0.00    +0.152 HD
ENDBRANCH   1   8
BRANCH   2  17
ATOM     17  C   UNL     1      34.130 -24.362 -14.143  0.00  0.00    +0.114 C 
BRANCH  17  18
ATOM     18  N   UNL     1      34.921 -25.487 -14.572  0.00  0.00    -0.327 N 
ATOM     19  H   UNL     1      34.470 -26.207 -15.069  0.00  0.00    +0.147 HD
BRANCH  18  21
ATOM     20  N   UNL     1      38.432 -26.637 -14.831  0.00  0.00    -0.228 NA
ATOM     21  C   UNL     1      36.281 -25.614 -14.325  0.00  0.00    +0.077 C 
ATOM     22  C   UNL     1      37.105 -26.486 -15.040  0.00  0.00    +0.139 C 
ATOM     23  C   UNL     1      36.896 -24.852 -13.324  0.00  0.00    +0.019 C 
ATOM     24  C   UNL     1      38.259 -24.980 -13.078  0.00  0.00    +0.022 C 
ATOM     25  C   UNL     1      38.976 -25.878 -13.852  0.00  0.00    +0.100 C 
ATOM     26  N   UNL     1      36.505 -27.269 -16.058  0.00  0.00    -0.342 N 
ATOM     27  H   UNL     1      37.053 -27.895 -16.584  0.00  0.00    +0.144 HD
ATOM     28  H   UNL     1      35.541 -27.187 -16.240  0.00  0.00    +0.144 HD
ENDBRANCH  18  21
ENDBRANCH  17  18
ENDBRANCH   2  17
TORSDOF 4
ENDMDL
MODEL 3
REMARK VINA RESULT:     -11.5      3.391      8.930
REMARK  Name = 11507920
REMARK  4 active torsions:
REMARK  status: ('A' for Active; 'I' for Inactive)
REMARK    1  A    between atoms: C_1  and  C_8
REMARK    2  A    between atoms: C_2  and  C_17
REMARK    3  A    between atoms: C_17  and  N_18
REMARK    4  A    between atoms: N_18  and  C_21
REMARK                            x       y       z     vdW  Elec       q    Type
REMARK                         _______ _______ _______ _____ _____    ______ ____
ROOT
ATOM      1  C   UNL     1      34.793 -20.009 -20.729  0.00  0.00    -0.000 C 
ATOM      2  C   UNL     1      33.734 -21.575 -19.226  0.00  0.00    -0.003 C 
ATOM      3  C   UNL     1      33.637 -20.586 -20.205  0.00  0.00    -0.003 C 
ATOM      4  C   UNL     1      36.046 -20.420 -20.277  0.00  0.00    -0.000 C 
ATOM      5  C   UNL     1      34.987 -21.986 -18.772  0.00  0.00    -0.003 C 
ATOM      6  C   UNL     1      36.144 -21.408 -19.297  0.00  0.00    -0.000 C 
ENDROOT
BRANCH   1   8
ATOM      7  N   UNL     1      33.956 -18.370 -25.342  0.00  0.00    -0.312 N 
ATOM      8  C   UNL     1      34.691 -18.981 -21.745  0.00  0.00    +0.001 C 
ATOM      9  C   UNL     1      34.265 -18.316 -24.002  0.00  0.00    +0.048 C 
ATOM     10  C   UNL     1      34.503 -16.975 -23.689  0.00  0.00    +0.015 C 
ATOM     11  C   UNL     1      34.352 -19.339 -23.052  0.00  0.00    +0.015 C 
ATOM     12  C   UNL     1      34.934 -17.652 -21.403  0.00  0.00    +0.000 C 
ATOM     13  C   UNL     1      34.844 -16.638 -22.364  0.00  0.00    +0.001 C 
ATOM     14  C   UNL     1      34.324 -16.230 -24.888  0.00  0.00    +0.017 C 
ATOM     15  C   UNL     1      33.990 -17.115 -25.886  0.00  0.00    +0.062 C 
ATOM     16  H   UNL     1      33.742 -19.193 -25.838  0.00  0.00    +0.152 HD
ENDBRANCH   1   8
BRANCH   2  17
ATOM     17  C   UNL     1      32.498 -22.193 -18.663  0.00  0.00    +0.114 C 
BRANCH  17  18
ATOM     18  N   UNL     1      32.792 -23.272 -17.755  0.00  0.00    -0.327 N 
ATOM     19  H   UNL     1      33.383 -23.994 -18.068  0.00  0.00    +0.147 HD
BRANCH  18  21
ATOM     20  N   UNL     1      32.625 -23.768 -14.088  0.00  0.00    -0.228 NA
ATOM     21  C   UNL     1      32.288 -23.353 -16.464  0.00  0.00    +0.077 C 
ATOM     22  C   UNL     1      33.078 -23.680 -15.359  0.00  0.00    +0.139 C 
ATOM     23  C   UNL     1      30.933 -23.102 -16.212  0.00  0.00    +0.019 C 
ATOM     24  C   UNL     1      30.431 -23.183 -14.918  0.00  0.00    +0.022 C 
ATOM     25  C   UNL     1      31.310 -23.516 -13.900  0.00  0.00    +0.100 C 
ATOM     26  N   UNL     1      34.452 -23.941 -15.589  0.00  0.00    -0.342 N 
ATOM     27  H   UNL     1      35.041 -24.174 -14.836  0.00  0.00    +0.144 HD
ATOM     28  H   UNL     1      34.818 -23.887 -16.501  0.00  0.00    +0.144 HD
ENDBRANCH  18  21
ENDBRANCH  17  18
ENDBRANCH   2  17
TORSDOF 4
ENDMDL
MODEL 4
REMARK VINA RESULT:     -11.5      2.379      8.380
REMARK  Name = 11507920
REMARK  4 active torsions:
REMARK  status: ('A' for Active; 'I' for Inactive)
REMARK    1  A    between atoms: C_1  and  C_8
REMARK    2  A    between atoms: C_2  and  C_17
REMARK    3  A    between atoms: C_17  and  N_18
REMARK    4  A    between atoms: N_18  and  C_21
REMARK                            x       y       z     vdW  Elec       q    Type
REMARK                         _______ _______ _______ _____ _____    ______ ____
ROOT
ATOM      1  C   UNL     1      34.707 -21.410 -19.146  0.00  0.00    -0.000 C 
ATOM      2  C   UNL     1      35.496 -22.508 -17.145  0.00  0.00    -0.003 C 
ATOM      3  C   UNL     1      35.717 -21.638 -18.213  0.00  0.00    -0.003 C 
ATOM      4  C   UNL     1      33.476 -22.051 -19.014  0.00  0.00    -0.000 C 
ATOM      5  C   UNL     1      34.264 -23.150 -17.012  0.00  0.00    -0.003 C 
ATOM      6  C   UNL     1      33.254 -22.922 -17.948  0.00  0.00    -0.000 C 
ENDROOT
BRANCH   1   8
ATOM      7  N   UNL     1      33.320 -18.855 -23.173  0.00  0.00    -0.312 N 
ATOM      8  C   UNL     1      34.937 -20.507 -20.255  0.00  0.00    +0.001 C 
ATOM      9  C   UNL     1      34.149 -19.327 -22.181  0.00  0.00    +0.048 C 
ATOM     10  C   UNL     1      35.408 -18.761 -22.392  0.00  0.00    +0.015 C 
ATOM     11  C   UNL     1      33.884 -20.203 -21.122  0.00  0.00    +0.015 C 
ATOM     12  C   UNL     1      36.204 -19.957 -20.442  0.00  0.00    +0.000 C 
ATOM     13  C   UNL     1      36.455 -19.083 -21.506  0.00  0.00    +0.001 C 
ATOM     14  C   UNL     1      35.304 -17.933 -23.545  0.00  0.00    +0.017 C 
ATOM     15  C   UNL     1      34.009 -18.013 -24.002  0.00  0.00    +0.062 C 
ATOM     16  H   UNL     1      32.369 -19.090 -23.272  0.00  0.00    +0.152 HD
ENDBRANCH   1   8
BRANCH   2  17
ATOM     17  C   UNL     1      36.575 -22.754 -16.146  0.00  0.00    +0.114 C 
BRANCH  17  18
ATOM     18  N   UNL     1      36.055 -22.960 -14.819  0.00  0.00    -0.327 N 
ATOM     19  H   UNL     1      35.390 -22.320 -14.476  0.00  0.00    +0.147 HD
BRANCH  18  21
ATOM     20  N   UNL     1      36.025 -25.438 -12.065  0.00  0.00    -0.228 NA
ATOM     21  C   UNL     1      36.438 -24.009 -13.994  0.00  0.00    +0.077 C 
ATOM     22  C   UNL     1      35.687 -24.421 -12.891  0.00  0.00    +0.139 C 
ATOM     23  C   UNL     1      37.622 -24.715 -14.243  0.00  0.00    +0.019 C 
ATOM     24  C   UNL     1      38.003 -25.766 -13.416  0.00  0.00    +0.022 C 
ATOM     25  C   UNL     1      37.177 -26.085 -12.350  0.00  0.00    +0.100 C 
ATOM     26  N   UNL     1      34.485 -23.722 -12.616  0.00  0.00    -0.342 N 
ATOM     27  H   UNL     1      33.928 -23.983 -11.848  0.00  0.00    +0.144 HD
ATOM     28  H   UNL     1      34.206 -22.976 -13.195  0.00  0.00    +0.144 HD
ENDBRANCH  18  21
ENDBRANCH  17  18
ENDBRANCH   2  17
TORSDOF 4
ENDMDL
MODEL 5
REMARK VINA RESULT:     -11.4      5.158      9.235
REMARK  Name = 11507920
REMARK  4 active torsions:
REMARK  status: ('A' for Active; 'I' for Inactive)
REMARK    1  A    between atoms: C_1  and  C_8
REMARK    2  A    between atoms: C_2  and  C_17
REMARK    3  A    between atoms: C_17  and  N_18
REMARK    4  A    between atoms: N_18  and  C_21
REMARK                            x       y       z     vdW  Elec       q    Type
REMARK                         _______ _______ _______ _____ _____    ______ ____
ROOT
ATOM      1  C   UNL     1      34.519 -18.668 -22.113  0.00  0.00    -0.000 C 
ATOM      2  C   UNL     1      34.588 -16.328 -22.707  0.00  0.00    -0.003 C 
ATOM      3  C   UNL     1      34.587 -17.328 -21.734  0.00  0.00    -0.003 C 
ATOM      4  C   UNL     1      34.453 -19.010 -23.463  0.00  0.00    -0.000 C 
ATOM      5  C   UNL     1      34.521 -16.669 -24.058  0.00  0.00    -0.003 C 
ATOM      6  C   UNL     1      34.453 -18.010 -24.436  0.00  0.00    -0.000 C 
ENDROOT
BRANCH   1   8
ATOM      7  N   UNL     1      32.316 -21.844 -18.994  0.00  0.00    -0.312 N 
ATOM      8  C   UNL     1      34.517 -19.706 -21.103  0.00  0.00    +0.001 C 
ATOM      9  C   UNL     1      33.340 -21.191 -19.643  0.00  0.00    +0.048 C 
ATOM     10  C   UNL     1      34.538 -21.713 -19.150  0.00  0.00    +0.015 C 
ATOM     11  C   UNL     1      33.298 -20.188 -20.618  0.00  0.00    +0.015 C 
ATOM     12  C   UNL     1      35.728 -20.208 -20.629  0.00  0.00    +0.000 C 
ATOM     13  C   UNL     1      35.755 -21.210 -19.653  0.00  0.00    +0.001 C 
ATOM     14  C   UNL     1      34.196 -22.701 -18.185  0.00  0.00    +0.017 C 
ATOM     15  C   UNL     1      32.824 -22.758 -18.112  0.00  0.00    +0.062 C 
ATOM     16  H   UNL     1      31.357 -21.678 -19.144  0.00  0.00    +0.152 HD
ENDBRANCH   1   8
BRANCH   2  17
ATOM     17  C   UNL     1      34.660 -14.894 -22.303  0.00  0.00    +0.114 C 
BRANCH  17  18
ATOM     18  N   UNL     1      33.666 -14.089 -22.966  0.00  0.00    -0.327 N 
ATOM     19  H   UNL     1      33.535 -14.216 -23.934  0.00  0.00    +0.147 HD
BRANCH  18  21
ATOM     20  N   UNL     1      31.736 -10.995 -22.318  0.00  0.00    -0.228 NA
ATOM     21  C   UNL     1      32.881 -13.143 -22.320  0.00  0.00    +0.077 C 
ATOM     22  C   UNL     1      32.499 -11.939 -22.914  0.00  0.00    +0.139 C 
ATOM     23  C   UNL     1      32.429 -13.368 -21.013  0.00  0.00    +0.019 C 
ATOM     24  C   UNL     1      31.643 -12.420 -20.368  0.00  0.00    +0.022 C 
ATOM     25  C   UNL     1      31.327 -11.260 -21.057  0.00  0.00    +0.100 C 
ATOM     26  N   UNL     1      32.946 -11.688 -24.235  0.00  0.00    -0.342 N 
ATOM     27  H   UNL     1      32.697 -10.850 -24.688  0.00  0.00    +0.144 HD
ATOM     28  H   UNL     1      33.503 -12.352 -24.702  0.00  0.00    +0.144 HD
ENDBRANCH  18  21
ENDBRANCH  17  18
ENDBRANCH   2  17
TORSDOF 4
ENDMDL
MODEL 6
REMARK VINA RESULT:     -11.4      2.152      5.336
REMARK  Name = 11507920
REMARK  4 active torsions:
REMARK  status: ('A' for Active; 'I' for Inactive)
REMARK    1  A    between atoms: C_1  and  C_8
REMARK    2  A    between atoms: C_2  and  C_17
REMARK    3  A    between atoms: C_17  and  N_18
REMARK    4  A    between atoms: N_18  and  C_21
REMARK                            x       y       z     vdW  Elec       q    Type
REMARK                         _______ _______ _______ _____ _____    ______ ____
ROOT
ATOM      1  C   UNL     1      34.148 -23.393 -15.334  0.00  0.00    -0.000 C 
ATOM      2  C   UNL     1      35.867 -22.379 -16.695  0.00  0.00    -0.003 C 
ATOM      3  C   UNL     1      34.537 -22.764 -16.515  0.00  0.00    -0.003 C 
ATOM      4  C   UNL     1      35.086 -23.640 -14.332  0.00  0.00    -0.000 C 
ATOM      5  C   UNL     1      36.805 -22.626 -15.693  0.00  0.00    -0.003 C 
ATOM      6  C   UNL     1      36.415 -23.257 -14.511  0.00  0.00    -0.000 C 
ENDROOT
BRANCH   1   8
ATOM      7  N   UNL     1      29.332 -23.478 -16.543  0.00  0.00    -0.312 N 
ATOM      8  C   UNL     1      32.769 -23.793 -15.148  0.00  0.00    +0.001 C 
ATOM      9  C   UNL     1      30.477 -23.756 -15.832  0.00  0.00    +0.048 C 
ATOM     10  C   UNL     1      30.109 -24.580 -14.766  0.00  0.00    +0.015 C 
ATOM     11  C   UNL     1      31.798 -23.347 -16.048  0.00  0.00    +0.015 C 
ATOM     12  C   UNL     1      32.430 -24.616 -14.075  0.00  0.00    +0.000 C 
ATOM     13  C   UNL     1      31.105 -25.018 -13.871  0.00  0.00    +0.001 C 
ATOM     14  C   UNL     1      28.704 -24.786 -14.865  0.00  0.00    +0.017 C 
ATOM     15  C   UNL     1      28.256 -24.095 -15.966  0.00  0.00    +0.062 C 
ATOM     16  H   UNL     1      29.293 -22.915 -17.351  0.00  0.00    +0.152 HD
ENDBRANCH   1   8
BRANCH   2  17
ATOM     17  C   UNL     1      36.285 -21.706 -17.958  0.00  0.00    +0.114 C 
BRANCH  17  18
ATOM     18  N   UNL     1      35.413 -22.022 -19.061  0.00  0.00    -0.327 N 
ATOM     19  H   UNL     1      35.202 -22.968 -19.229  0.00  0.00    +0.147 HD
BRANCH  18  21
ATOM     20  N   UNL     1      32.894 -20.030 -20.906  0.00  0.00    -0.228 NA
ATOM     21  C   UNL     1      34.854 -21.068 -19.900  0.00  0.00    +0.077 C 
ATOM     22  C   UNL     1      33.477 -20.945 -20.099  0.00  0.00    +0.139 C 
ATOM     23  C   UNL     1      35.669 -20.166 -20.596  0.00  0.00    +0.019 C 
ATOM     24  C   UNL     1      35.107 -19.211 -21.435  0.00  0.00    +0.022 C 
ATOM     25  C   UNL     1      33.727 -19.184 -21.555  0.00  0.00    +0.100 C 
ATOM     26  N   UNL     1      32.631 -21.847 -19.407  0.00  0.00    -0.342 N 
ATOM     27  H   UNL     1      31.654 -21.791 -19.522  0.00  0.00    +0.144 HD
ATOM     28  H   UNL     1      33.018 -22.527 -18.811  0.00  0.00    +0.144 HD
ENDBRANCH  18  21
ENDBRANCH  17  18
ENDBRANCH   2  17
TORSDOF 4
ENDMDL
MODEL 7
REMARK VINA RESULT:     -11.3      5.479      9.588
REMARK  Name = 11507920
REMARK  4 active torsions:
REMARK  status: ('A' for Active; 'I' for Inactive)
REMARK    1  A    between atoms: C_1  and  C_8
REMARK    2  A    between atoms: C_2  and  C_17
REMARK    3  A    between atoms: C_17  and  N_18
REMARK    4  A    between atoms: N_18  and  C_21
REMARK                            x       y       z     vdW  Elec       q    Type
REMARK                         _______ _______ _______ _____ _____    ______ ____
ROOT
ATOM      1  C   UNL     1      34.481 -18.743 -22.479  0.00  0.00    -0.000 C 
ATOM      2  C   UNL     1      34.486 -16.458 -23.262  0.00  0.00    -0.003 C 
ATOM      3  C   UNL     1      34.503 -17.375 -22.211  0.00  0.00    -0.003 C 
ATOM      4  C   UNL     1      34.439 -19.196 -23.797  0.00  0.00    -0.000 C 
ATOM      5  C   UNL     1      34.444 -16.911 -24.581  0.00  0.00    -0.003 C 
ATOM      6  C   UNL     1      34.420 -18.280 -24.849  0.00  0.00    -0.000 C 
ENDROOT
BRANCH   1   8
ATOM      7  N   UNL     1      32.341 -21.753 -19.158  0.00  0.00    -0.312 N 
ATOM      8  C   UNL     1      34.498 -19.695 -21.387  0.00  0.00    +0.001 C 
ATOM      9  C   UNL     1      33.351 -21.108 -19.836  0.00  0.00    +0.048 C 
ATOM     10  C   UNL     1      34.558 -21.533 -19.276  0.00  0.00    +0.015 C 
ATOM     11  C   UNL     1      33.290 -20.191 -20.891  0.00  0.00    +0.015 C 
ATOM     12  C   UNL     1      35.718 -20.100 -20.848  0.00  0.00    +0.000 C 
ATOM     13  C   UNL     1      35.764 -21.018 -19.793  0.00  0.00    +0.001 C 
ATOM     14  C   UNL     1      34.236 -22.454 -18.241  0.00  0.00    +0.017 C 
ATOM     15  C   UNL     1      32.866 -22.568 -18.192  0.00  0.00    +0.062 C 
ATOM     16  H   UNL     1      31.380 -21.644 -19.342  0.00  0.00    +0.152 HD
ENDBRANCH   1   8
BRANCH   2  17
ATOM     17  C   UNL     1      34.510 -14.995 -22.978  0.00  0.00    +0.114 C 
BRANCH  17  18
ATOM     18  N   UNL     1      33.352 -14.316 -23.502  0.00  0.00    -0.327 N 
ATOM     19  H   UNL     1      32.463 -14.624 -23.213  0.00  0.00    +0.147 HD
BRANCH  18  21
ATOM     20  N   UNL     1      33.017 -12.328 -26.610  0.00  0.00    -0.228 NA
ATOM     21  C   UNL     1      33.418 -13.254 -24.393  0.00  0.00    +0.077 C 
ATOM     22  C   UNL     1      32.971 -13.340 -25.713  0.00  0.00    +0.139 C 
ATOM     23  C   UNL     1      33.948 -12.021 -23.992  0.00  0.00    +0.019 C 
ATOM     24  C   UNL     1      34.013 -10.957 -24.885  0.00  0.00    +0.022 C 
ATOM     25  C   UNL     1      33.538 -11.160 -26.171  0.00  0.00    +0.100 C 
ATOM     26  N   UNL     1      32.432 -14.578 -26.144  0.00  0.00    -0.342 N 
ATOM     27  H   UNL     1      32.105 -14.677 -27.068  0.00  0.00    +0.144 HD
ATOM     28  H   UNL     1      32.382 -15.337 -25.520  0.00  0.00    +0.144 HD
ENDBRANCH  18  21
ENDBRANCH  17  18
ENDBRANCH   2  17
TORSDOF 4
ENDMDL
MODEL 8
REMARK VINA RESULT:     -11.3      4.261     10.834
REMARK  Name = 11507920
REMARK  4 active torsions:
REMARK  status: ('A' for Active; 'I' for Inactive)
REMARK    1  A    between atoms: C_1  and  C_8
REMARK    2  A    between atoms: C_2  and  C_17
REMARK    3  A    between atoms: C_17  and  N_18
REMARK    4  A    between atoms: N_18  and  C_21
REMARK                            x       y       z     vdW  Elec       q    Type
REMARK                         _______ _______ _______ _____ _____    ______ ____
ROOT
ATOM      1  C   UNL     1      34.350 -18.445 -23.260  0.00  0.00    -0.000 C 
ATOM      2  C   UNL     1      34.434 -19.704 -21.200  0.00  0.00    -0.003 C 
ATOM      3  C   UNL     1      33.720 -19.245 -22.307  0.00  0.00    -0.003 C 
ATOM      4  C   UNL     1      35.693 -18.103 -23.107  0.00  0.00    -0.000 C 
ATOM      5  C   UNL     1      35.778 -19.362 -21.046  0.00  0.00    -0.003 C 
ATOM      6  C   UNL     1      36.408 -18.561 -22.000  0.00  0.00    -0.000 C 
ENDROOT
BRANCH   1   8
ATOM      7  N   UNL     1      32.748 -14.930 -26.381  0.00  0.00    -0.312 N 
ATOM      8  C   UNL     1      33.608 -17.967 -24.408  0.00  0.00    +0.001 C 
ATOM      9  C   UNL     1      32.904 -16.186 -25.841  0.00  0.00    +0.048 C 
ATOM     10  C   UNL     1      32.165 -17.069 -26.633  0.00  0.00    +0.015 C 
ATOM     11  C   UNL     1      33.634 -16.606 -24.724  0.00  0.00    +0.015 C 
ATOM     12  C   UNL     1      32.880 -18.871 -25.180  0.00  0.00    +0.000 C 
ATOM     13  C   UNL     1      32.154 -18.437 -26.295  0.00  0.00    +0.001 C 
ATOM     14  C   UNL     1      31.563 -16.297 -27.666  0.00  0.00    +0.017 C 
ATOM     15  C   UNL     1      31.939 -14.987 -27.483  0.00  0.00    +0.062 C 
ATOM     16  H   UNL     1      33.159 -14.109 -26.025  0.00  0.00    +0.152 HD
ENDBRANCH   1   8
BRANCH   2  17
ATOM     17  C   UNL     1      33.762 -20.559 -20.180  0.00  0.00    +0.114 C 
BRANCH  17  18
ATOM     18  N   UNL     1      34.525 -21.740 -19.868  0.00  0.00    -0.327 N 
ATOM     19  H   UNL     1      34.757 -22.351 -20.604  0.00  0.00    +0.147 HD
BRANCH  18  21
ATOM     20  N   UNL     1      34.548 -23.129 -16.434  0.00  0.00    -0.228 NA
ATOM     21  C   UNL     1      34.952 -22.068 -18.588  0.00  0.00    +0.077 C 
ATOM     22  C   UNL     1      34.168 -22.790 -17.686  0.00  0.00    +0.139 C 
ATOM     23  C   UNL     1      36.221 -21.678 -18.140  0.00  0.00    +0.019 C 
ATOM     24  C   UNL     1      36.648 -22.008 -16.858  0.00  0.00    +0.022 C 
ATOM     25  C   UNL     1      35.782 -22.728 -16.051  0.00  0.00    +0.100 C 
ATOM     26  N   UNL     1      32.879 -23.194 -18.116  0.00  0.00    -0.342 N 
ATOM     27  H   UNL     1      32.296 -23.705 -17.508  0.00  0.00    +0.144 HD
ATOM     28  H   UNL     1      32.567 -22.966 -19.021  0.00  0.00    +0.144 HD
ENDBRANCH  18  21
ENDBRANCH  17  18
ENDBRANCH   2  17
TORSDOF 4
ENDMDL
MODEL 9
REMARK VINA RESULT:     -11.2      1.704      6.642
REMARK  Name = 11507920
REMARK  4 active torsions:
REMARK  status: ('A' for Active; 'I' for Inactive)
REMARK    1  A    between atoms: C_1  and  C_8
REMARK    2  A    between atoms: C_2  and  C_17
REMARK    3  A    between atoms: C_17  and  N_18
REMARK    4  A    between atoms: N_18  and  C_21
REMARK                            x       y       z     vdW  Elec       q    Type
REMARK                         _______ _______ _______ _____ _____    ______ ____
ROOT
ATOM      1  C   UNL     1      33.304 -23.368 -15.856  0.00  0.00    -0.000 C 
ATOM      2  C   UNL     1      33.905 -24.109 -13.637  0.00  0.00    -0.003 C 
ATOM      3  C   UNL     1      34.252 -23.495 -14.841  0.00  0.00    -0.003 C 
ATOM      4  C   UNL     1      32.011 -23.855 -15.670  0.00  0.00    -0.000 C 
ATOM      5  C   UNL     1      32.611 -24.597 -13.450  0.00  0.00    -0.003 C 
ATOM      6  C   UNL     1      31.664 -24.470 -14.467  0.00  0.00    -0.000 C 
ENDROOT
BRANCH   1   8
ATOM      7  N   UNL     1      36.470 -21.157 -18.979  0.00  0.00    -0.312 N 
ATOM      8  C   UNL     1      33.665 -22.731 -17.106  0.00  0.00    +0.001 C 
ATOM      9  C   UNL     1      35.283 -21.679 -18.519  0.00  0.00    +0.048 C 
ATOM     10  C   UNL     1      34.336 -21.502 -19.530  0.00  0.00    +0.015 C 
ATOM     11  C   UNL     1      34.977 -22.289 -17.297  0.00  0.00    +0.015 C 
ATOM     12  C   UNL     1      32.699 -22.567 -18.097  0.00  0.00    +0.000 C 
ATOM     13  C   UNL     1      33.019 -21.955 -19.314  0.00  0.00    +0.001 C 
ATOM     14  C   UNL     1      34.998 -20.857 -20.612  0.00  0.00    +0.017 C 
ATOM     15  C   UNL     1      36.308 -20.657 -20.243  0.00  0.00    +0.062 C 
ATOM     16  H   UNL     1      37.315 -21.145 -18.472  0.00  0.00    +0.152 HD
ENDBRANCH   1   8
BRANCH   2  17
ATOM     17  C   UNL     1      34.917 -24.246 -12.550  0.00  0.00    +0.114 C 
BRANCH  17  18
ATOM     18  N   UNL     1      35.629 -25.496 -12.621  0.00  0.00    -0.327 N 
ATOM     19  H   UNL     1      35.261 -26.269 -12.135  0.00  0.00    +0.147 HD
BRANCH  18  21
ATOM     20  N   UNL     1      37.995 -26.588 -15.253  0.00  0.00    -0.228 NA
ATOM     21  C   UNL     1      36.807 -25.674 -13.334  0.00  0.00    +0.077 C 
ATOM     22  C   UNL     1      36.870 -26.394 -14.529  0.00  0.00    +0.139 C 
ATOM     23  C   UNL     1      38.009 -25.121 -12.873  0.00  0.00    +0.019 C 
ATOM     24  C   UNL     1      39.187 -25.299 -13.590  0.00  0.00    +0.022 C 
ATOM     25  C   UNL     1      39.128 -26.034 -14.763  0.00  0.00    +0.100 C 
ATOM     26  N   UNL     1      35.667 -26.965 -15.015  0.00  0.00    -0.342 N 
ATOM     27  H   UNL     1      35.671 -27.480 -15.855  0.00  0.00    +0.144 HD
ATOM     28  H   UNL     1      34.828 -26.845 -14.516  0.00  0.00    +0.144 HD
ENDBRANCH  18  21
ENDBRANCH  17  18
ENDBRANCH   2  17
TORSDOF 4
ENDMDL
