MODEL 1
REMARK VINA RESULT:     -12.3      0.000      0.000
REMARK  Name = 100472
REMARK  3 active torsions:
REMARK  status: ('A' for Active; 'I' for Inactive)
REMARK    1  A    between atoms: C_1  and  C_13
REMARK    2  A    between atoms: C_2  and  C_7
REMARK    3  A    between atoms: C_13  and  C_16
REMARK                            x       y       z     vdW  Elec       q    Type
REMARK                         _______ _______ _______ _____ _____    ______ ____
ROOT
ATOM      1  C   UNL     1      34.266 -21.524 -19.519  0.00  0.00    -0.013 C 
ATOM      2  C   UNL     1      34.331 -19.427 -21.358  0.00  0.00    -0.000 C 
ATOM      3  C   UNL     1      35.490 -21.005 -19.942  0.00  0.00    -0.004 C 
ATOM      4  C   UNL     1      33.075 -20.994 -20.015  0.00  0.00    -0.004 C 
ATOM      5  C   UNL     1      35.522 -19.956 -20.862  0.00  0.00    -0.000 C 
ATOM      6  C   UNL     1      33.107 -19.946 -20.935  0.00  0.00    -0.000 C 
ENDROOT
BRANCH   2   7
ATOM      7  C   UNL     1      34.364 -18.340 -22.313  0.00  0.00    -0.000 C 
ATOM      8  C   UNL     1      34.809 -17.079 -21.919  0.00  0.00    -0.000 C 
ATOM      9  C   UNL     1      33.951 -18.555 -23.628  0.00  0.00    -0.000 C 
ATOM     10  C   UNL     1      34.842 -16.031 -22.839  0.00  0.00    +0.000 C 
ATOM     11  C   UNL     1      33.984 -17.507 -24.549  0.00  0.00    +0.000 C 
ATOM     12  C   UNL     1      34.429 -16.246 -24.153  0.00  0.00    +0.000 C 
ENDBRANCH   2   7
BRANCH   1  13
ATOM     13  C   UNL     1      34.231 -22.644 -18.535  0.00  0.00    +0.112 C 
BRANCH  13  16
ATOM     14  O   UNL     1      31.859 -22.333 -18.244  0.00  0.00    -0.274 OA
ATOM     15  N   UNL     1      33.090 -23.417 -16.564  0.00  0.00    -0.269 N 
ATOM     16  C   UNL     1      32.909 -22.768 -17.782  0.00  0.00    +0.232 C 
ATOM     17  H   UNL     1      34.009 -23.700 -16.353  0.00  0.00    +0.156 HD
ATOM     18  N   UNL     1      32.497 -24.356 -14.475  0.00  0.00    -0.229 NA
ATOM     19  C   UNL     1      32.105 -23.717 -15.592  0.00  0.00    +0.134 C 
ATOM     20  C   UNL     1      30.813 -23.330 -15.874  0.00  0.00    +0.034 C 
ATOM     21  C   UNL     1      29.838 -23.621 -14.927  0.00  0.00    +0.004 C 
ATOM     22  C   UNL     1      30.191 -24.280 -13.754  0.00  0.00    +0.021 C 
ATOM     23  C   UNL     1      31.522 -24.623 -13.578  0.00  0.00    +0.100 C 
ENDBRANCH  13  16
ENDBRANCH   1  13
TORSDOF 3
ENDMDL
MODEL 2
REMARK VINA RESULT:     -12.1      3.149      4.020
REMARK  Name = 100472
REMARK  3 active torsions:
REMARK  status: ('A' for Active; 'I' for Inactive)
REMARK    1  A    between atoms: C_1  and  C_13
REMARK    2  A    between atoms: C_2  and  C_7
REMARK    3  A    between atoms: C_13  and  C_16
REMARK                            x       y       z     vdW  Elec       q    Type
REMARK                         _______ _______ _______ _____ _____    ______ ____
ROOT
ATOM      1  C   UNL     1      33.663 -22.502 -18.095  0.00  0.00    -0.013 C 
ATOM      2  C   UNL     1      34.281 -20.715 -20.148  0.00  0.00    -0.000 C 
ATOM      3  C   UNL     1      32.639 -21.880 -18.810  0.00  0.00    -0.004 C 
ATOM      4  C   UNL     1      34.996 -22.230 -18.406  0.00  0.00    -0.004 C 
ATOM      5  C   UNL     1      32.948 -20.988 -19.837  0.00  0.00    -0.000 C 
ATOM      6  C   UNL     1      35.304 -21.337 -19.432  0.00  0.00    -0.000 C 
ENDROOT
BRANCH   2   7
ATOM      7  C   UNL     1      34.601 -19.789 -21.212  0.00  0.00    -0.000 C 
ATOM      8  C   UNL     1      33.639 -19.464 -22.167  0.00  0.00    -0.000 C 
ATOM      9  C   UNL     1      35.873 -19.221 -21.281  0.00  0.00    -0.000 C 
ATOM     10  C   UNL     1      33.948 -18.570 -23.192  0.00  0.00    +0.000 C 
ATOM     11  C   UNL     1      36.183 -18.327 -22.307  0.00  0.00    +0.000 C 
ATOM     12  C   UNL     1      35.219 -18.002 -23.262  0.00  0.00    +0.000 C 
ENDBRANCH   2   7
BRANCH   1  13
ATOM     13  C   UNL     1      33.333 -23.456 -16.998  0.00  0.00    +0.112 C 
BRANCH  13  16
ATOM     14  O   UNL     1      34.490 -22.491 -15.116  0.00  0.00    -0.274 OA
ATOM     15  N   UNL     1      35.025 -24.674 -15.797  0.00  0.00    -0.269 N 
ATOM     16  C   UNL     1      34.344 -23.461 -15.854  0.00  0.00    +0.232 C 
ATOM     17  H   UNL     1      34.778 -25.344 -16.475  0.00  0.00    +0.156 HD
ATOM     18  N   UNL     1      36.564 -26.285 -15.002  0.00  0.00    -0.229 NA
ATOM     19  C   UNL     1      36.032 -25.056 -14.879  0.00  0.00    +0.134 C 
ATOM     20  C   UNL     1      36.388 -24.128 -13.923  0.00  0.00    +0.034 C 
ATOM     21  C   UNL     1      37.376 -24.494 -13.016  0.00  0.00    +0.004 C 
ATOM     22  C   UNL     1      37.957 -25.754 -13.100  0.00  0.00    +0.021 C 
ATOM     23  C   UNL     1      37.519 -26.605 -14.102  0.00  0.00    +0.100 C 
ENDBRANCH  13  16
ENDBRANCH   1  13
TORSDOF 3
ENDMDL
MODEL 3
REMARK VINA RESULT:     -12.0      1.407      2.072
REMARK  Name = 100472
REMARK  3 active torsions:
REMARK  status: ('A' for Active; 'I' for Inactive)
REMARK    1  A    between atoms: C_1  and  C_13
REMARK    2  A    between atoms: C_2  and  C_7
REMARK    3  A    between atoms: C_13  and  C_16
REMARK                            x       y       z     vdW  Elec       q    Type
REMARK                         _______ _______ _______ _____ _____    ______ ____
ROOT
ATOM      1  C   UNL     1      34.031 -22.022 -19.461  0.00  0.00    -0.013 C 
ATOM      2  C   UNL     1      34.312 -19.646 -20.897  0.00  0.00    -0.000 C 
ATOM      3  C   UNL     1      32.899 -21.308 -19.857  0.00  0.00    -0.004 C 
ATOM      4  C   UNL     1      35.303 -21.548 -19.783  0.00  0.00    -0.004 C 
ATOM      5  C   UNL     1      33.040 -20.121 -20.575  0.00  0.00    -0.000 C 
ATOM      6  C   UNL     1      35.443 -20.361 -20.501  0.00  0.00    -0.000 C 
ENDROOT
BRANCH   2   7
ATOM      7  C   UNL     1      34.458 -18.414 -21.642  0.00  0.00    -0.000 C 
ATOM      8  C   UNL     1      34.694 -17.216 -20.969  0.00  0.00    -0.000 C 
ATOM      9  C   UNL     1      34.363 -18.426 -23.033  0.00  0.00    -0.000 C 
ATOM     10  C   UNL     1      34.835 -16.028 -21.686  0.00  0.00    +0.000 C 
ATOM     11  C   UNL     1      34.505 -17.238 -23.752  0.00  0.00    +0.000 C 
ATOM     12  C   UNL     1      34.741 -16.040 -23.077  0.00  0.00    +0.000 C 
ENDBRANCH   2   7
BRANCH   1  13
ATOM     13  C   UNL     1      33.880 -23.292 -18.693  0.00  0.00    +0.112 C 
BRANCH  13  16
ATOM     14  O   UNL     1      33.635 -23.140 -16.300  0.00  0.00    -0.274 OA
ATOM     15  N   UNL     1      31.725 -23.014 -17.661  0.00  0.00    -0.269 N 
ATOM     16  C   UNL     1      33.087 -23.142 -17.398  0.00  0.00    +0.232 C 
ATOM     17  H   UNL     1      31.461 -23.038 -18.609  0.00  0.00    +0.156 HD
ATOM     18  N   UNL     1      29.421 -22.751 -17.195  0.00  0.00    -0.229 NA
ATOM     19  C   UNL     1      30.677 -22.856 -16.724  0.00  0.00    +0.134 C 
ATOM     20  C   UNL     1      31.032 -22.820 -15.392  0.00  0.00    +0.034 C 
ATOM     21  C   UNL     1      30.009 -22.663 -14.463  0.00  0.00    +0.004 C 
ATOM     22  C   UNL     1      28.693 -22.550 -14.898  0.00  0.00    +0.021 C 
ATOM     23  C   UNL     1      28.455 -22.598 -16.262  0.00  0.00    +0.100 C 
ENDBRANCH  13  16
ENDBRANCH   1  13
TORSDOF 3
ENDMDL
MODEL 4
REMARK VINA RESULT:     -11.9      2.217      2.868
REMARK  Name = 100472
REMARK  3 active torsions:
REMARK  status: ('A' for Active; 'I' for Inactive)
REMARK    1  A    between atoms: C_1  and  C_13
REMARK    2  A    between atoms: C_2  and  C_7
REMARK    3  A    between atoms: C_13  and  C_16
REMARK                            x       y       z     vdW  Elec       q    Type
REMARK                         _______ _______ _______ _____ _____    ______ ____
ROOT
ATOM      1  C   UNL     1      33.722 -21.812 -19.184  0.00  0.00    -0.013 C 
ATOM      2  C   UNL     1      34.124 -19.792 -21.068  0.00  0.00    -0.000 C 
ATOM      3  C   UNL     1      35.009 -21.537 -19.649  0.00  0.00    -0.004 C 
ATOM      4  C   UNL     1      32.637 -21.077 -19.662  0.00  0.00    -0.004 C 
ATOM      5  C   UNL     1      35.209 -20.527 -20.590  0.00  0.00    -0.000 C 
ATOM      6  C   UNL     1      32.838 -20.067 -20.603  0.00  0.00    -0.000 C 
ENDROOT
BRANCH   2   7
ATOM      7  C   UNL     1      34.332 -18.746 -22.045  0.00  0.00    -0.000 C 
ATOM      8  C   UNL     1      34.095 -18.996 -23.396  0.00  0.00    -0.000 C 
ATOM      9  C   UNL     1      34.769 -17.487 -21.634  0.00  0.00    -0.000 C 
ATOM     10  C   UNL     1      34.295 -17.986 -24.338  0.00  0.00    +0.000 C 
ATOM     11  C   UNL     1      34.969 -16.476 -22.576  0.00  0.00    +0.000 C 
ATOM     12  C   UNL     1      34.731 -16.727 -23.928  0.00  0.00    +0.000 C 
ENDBRANCH   2   7
BRANCH   1  13
ATOM     13  C   UNL     1      33.508 -22.891 -18.178  0.00  0.00    +0.112 C 
BRANCH  13  16
ATOM     14  O   UNL     1      35.688 -22.502 -17.227  0.00  0.00    -0.274 OA
ATOM     15  N   UNL     1      33.997 -23.422 -15.883  0.00  0.00    -0.269 N 
ATOM     16  C   UNL     1      34.542 -22.906 -17.056  0.00  0.00    +0.232 C 
ATOM     17  H   UNL     1      33.053 -23.700 -15.927  0.00  0.00    +0.156 HD
ATOM     18  N   UNL     1      33.924 -24.114 -13.622  0.00  0.00    -0.229 NA
ATOM     19  C   UNL     1      34.640 -23.593 -14.634  0.00  0.00    +0.134 C 
ATOM     20  C   UNL     1      35.961 -23.206 -14.556  0.00  0.00    +0.034 C 
ATOM     21  C   UNL     1      36.602 -23.370 -13.334  0.00  0.00    +0.004 C 
ATOM     22  C   UNL     1      35.906 -23.904 -12.255  0.00  0.00    +0.021 C 
ATOM     23  C   UNL     1      34.580 -24.257 -12.450  0.00  0.00    +0.100 C 
ENDBRANCH  13  16
ENDBRANCH   1  13
TORSDOF 3
ENDMDL
MODEL 5
REMARK VINA RESULT:     -11.8      3.332      4.305
REMARK  Name = 100472
REMARK  3 active torsions:
REMARK  status: ('A' for Active; 'I' for Inactive)
REMARK    1  A    between atoms: C_1  and  C_13
REMARK    2  A    between atoms: C_2  and  C_7
REMARK    3  A    between atoms: C_13  and  C_16
REMARK                            x       y       z     vdW  Elec       q    Type
REMARK                         _______ _______ _______ _____ _____    ______ ____
ROOT
ATOM      1  C   UNL     1      33.770 -22.833 -17.435  0.00  0.00    -0.013 C 
ATOM      2  C   UNL     1      34.453 -21.125 -19.533  0.00  0.00    -0.000 C 
ATOM      3  C   UNL     1      35.098 -22.442 -17.613  0.00  0.00    -0.004 C 
ATOM      4  C   UNL     1      32.785 -22.370 -18.307  0.00  0.00    -0.004 C 
ATOM      5  C   UNL     1      35.439 -21.588 -18.662  0.00  0.00    -0.000 C 
ATOM      6  C   UNL     1      33.125 -21.516 -19.356  0.00  0.00    -0.000 C 
ENDROOT
BRANCH   2   7
ATOM      7  C   UNL     1      34.807 -20.239 -20.622  0.00  0.00    -0.000 C 
ATOM      8  C   UNL     1      33.846 -19.875 -21.565  0.00  0.00    -0.000 C 
ATOM      9  C   UNL     1      36.108 -19.751 -20.727  0.00  0.00    -0.000 C 
ATOM     10  C   UNL     1      34.187 -19.021 -22.614  0.00  0.00    +0.000 C 
ATOM     11  C   UNL     1      36.450 -18.896 -21.776  0.00  0.00    +0.000 C 
ATOM     12  C   UNL     1      35.488 -18.531 -22.719  0.00  0.00    +0.000 C 
ENDBRANCH   2   7
BRANCH   1  13
ATOM     13  C   UNL     1      33.406 -23.746 -16.314  0.00  0.00    +0.112 C 
BRANCH  13  16
ATOM     14  O   UNL     1      35.134 -25.386 -15.949  0.00  0.00    -0.274 OA
ATOM     15  N   UNL     1      34.977 -23.541 -14.504  0.00  0.00    -0.269 N 
ATOM     16  C   UNL     1      34.607 -24.340 -15.583  0.00  0.00    +0.232 C 
ATOM     17  H   UNL     1      34.437 -22.731 -14.357  0.00  0.00    +0.156 HD
ATOM     18  N   UNL     1      36.223 -22.856 -12.614  0.00  0.00    -0.229 NA
ATOM     19  C   UNL     1      36.038 -23.759 -13.593  0.00  0.00    +0.134 C 
ATOM     20  C   UNL     1      36.804 -24.889 -13.788  0.00  0.00    +0.034 C 
ATOM     21  C   UNL     1      37.849 -25.112 -12.899  0.00  0.00    +0.004 C 
ATOM     22  C   UNL     1      38.084 -24.208 -11.869  0.00  0.00    +0.021 C 
ATOM     23  C   UNL     1      37.250 -23.106 -11.771  0.00  0.00    +0.100 C 
ENDBRANCH  13  16
ENDBRANCH   1  13
TORSDOF 3
ENDMDL
MODEL 6
REMARK VINA RESULT:     -11.6      3.679      6.447
REMARK  Name = 100472
REMARK  3 active torsions:
REMARK  status: ('A' for Active; 'I' for Inactive)
REMARK    1  A    between atoms: C_1  and  C_13
REMARK    2  A    between atoms: C_2  and  C_7
REMARK    3  A    between atoms: C_13  and  C_16
REMARK                            x       y       z     vdW  Elec       q    Type
REMARK                         _______ _______ _______ _____ _____    ______ ____
ROOT
ATOM      1  C   UNL     1      34.512 -16.602 -23.482  0.00  0.00    -0.013 C 
ATOM      2  C   UNL     1      33.586 -13.972 -23.362  0.00  0.00    -0.000 C 
ATOM      3  C   UNL     1      34.681 -15.855 -22.316  0.00  0.00    -0.004 C 
ATOM      4  C   UNL     1      33.880 -16.033 -24.588  0.00  0.00    -0.004 C 
ATOM      5  C   UNL     1      34.218 -14.541 -22.256  0.00  0.00    -0.000 C 
ATOM      6  C   UNL     1      33.416 -14.719 -24.528  0.00  0.00    -0.000 C 
ENDROOT
BRANCH   2   7
ATOM      7  C   UNL     1      33.106 -12.609 -23.300  0.00  0.00    -0.000 C 
ATOM      8  C   UNL     1      33.544 -11.672 -24.235  0.00  0.00    -0.000 C 
ATOM      9  C   UNL     1      32.205 -12.232 -22.305  0.00  0.00    -0.000 C 
ATOM     10  C   UNL     1      33.081 -10.358 -24.176  0.00  0.00    +0.000 C 
ATOM     11  C   UNL     1      31.741 -10.917 -22.245  0.00  0.00    +0.000 C 
ATOM     12  C   UNL     1      32.179  -9.981 -23.182  0.00  0.00    +0.000 C 
ENDBRANCH   2   7
BRANCH   1  13
ATOM     13  C   UNL     1      35.007 -18.007 -23.546  0.00  0.00    +0.112 C 
BRANCH  13  16
ATOM     14  O   UNL     1      33.131 -19.189 -22.601  0.00  0.00    -0.274 OA
ATOM     15  N   UNL     1      35.256 -19.451 -21.638  0.00  0.00    -0.269 N 
ATOM     16  C   UNL     1      34.333 -18.947 -22.550  0.00  0.00    +0.232 C 
ATOM     17  H   UNL     1      36.187 -19.147 -21.748  0.00  0.00    +0.156 HD
ATOM     18  N   UNL     1      36.057 -20.711 -19.803  0.00  0.00    -0.229 NA
ATOM     19  C   UNL     1      35.014 -20.349 -20.571  0.00  0.00    +0.134 C 
ATOM     20  C   UNL     1      33.717 -20.786 -20.407  0.00  0.00    +0.034 C 
ATOM     21  C   UNL     1      33.468 -21.668 -19.363  0.00  0.00    +0.004 C 
ATOM     22  C   UNL     1      34.512 -22.074 -18.539  0.00  0.00    +0.021 C 
ATOM     23  C   UNL     1      35.777 -21.571 -18.799  0.00  0.00    +0.100 C 
ENDBRANCH  13  16
ENDBRANCH   1  13
TORSDOF 3
ENDMDL
MODEL 7
REMARK VINA RESULT:     -11.6      3.469      9.025
REMARK  Name = 100472
REMARK  3 active torsions:
REMARK  status: ('A' for Active; 'I' for Inactive)
REMARK    1  A    between atoms: C_1  and  C_13
REMARK    2  A    between atoms: C_2  and  C_7
REMARK    3  A    between atoms: C_13  and  C_16
REMARK                            x       y       z     vdW  Elec       q    Type
REMARK                         _______ _______ _______ _____ _____    ______ ____
ROOT
ATOM      1  C   UNL     1      34.650 -20.545 -20.670  0.00  0.00    -0.013 C 
ATOM      2  C   UNL     1      33.687 -21.982 -18.480  0.00  0.00    -0.000 C 
ATOM      3  C   UNL     1      35.540 -21.211 -19.826  0.00  0.00    -0.004 C 
ATOM      4  C   UNL     1      33.279 -20.597 -20.418  0.00  0.00    -0.004 C 
ATOM      5  C   UNL     1      35.058 -21.930 -18.732  0.00  0.00    -0.000 C 
ATOM      6  C   UNL     1      32.798 -21.315 -19.324  0.00  0.00    -0.000 C 
ENDROOT
BRANCH   2   7
ATOM      7  C   UNL     1      33.188 -22.727 -17.345  0.00  0.00    -0.000 C 
ATOM      8  C   UNL     1      31.816 -22.925 -17.189  0.00  0.00    -0.000 C 
ATOM      9  C   UNL     1      34.078 -23.246 -16.406  0.00  0.00    -0.000 C 
ATOM     10  C   UNL     1      31.334 -23.643 -16.095  0.00  0.00    +0.000 C 
ATOM     11  C   UNL     1      33.597 -23.965 -15.311  0.00  0.00    +0.000 C 
ATOM     12  C   UNL     1      32.225 -24.163 -15.157  0.00  0.00    +0.000 C 
ENDBRANCH   2   7
BRANCH   1  13
ATOM     13  C   UNL     1      35.165 -19.777 -21.840  0.00  0.00    +0.112 C 
BRANCH  13  16
ATOM     14  O   UNL     1      35.286 -17.674 -20.668  0.00  0.00    -0.274 OA
ATOM     15  N   UNL     1      34.526 -17.709 -22.889  0.00  0.00    -0.269 N 
ATOM     16  C   UNL     1      35.007 -18.264 -21.707  0.00  0.00    +0.232 C 
ATOM     17  H   UNL     1      34.355 -18.337 -23.628  0.00  0.00    +0.156 HD
ATOM     18  N   UNL     1      33.789 -16.021 -24.374  0.00  0.00    -0.229 NA
ATOM     19  C   UNL     1      34.252 -16.345 -23.154  0.00  0.00    +0.134 C 
ATOM     20  C   UNL     1      34.488 -15.453 -22.129  0.00  0.00    +0.034 C 
ATOM     21  C   UNL     1      34.223 -14.111 -22.379  0.00  0.00    +0.004 C 
ATOM     22  C   UNL     1      33.743 -13.723 -23.625  0.00  0.00    +0.021 C 
ATOM     23  C   UNL     1      33.545 -14.707 -24.579  0.00  0.00    +0.100 C 
ENDBRANCH  13  16
ENDBRANCH   1  13
TORSDOF 3
ENDMDL
MODEL 8
REMARK VINA RESULT:     -11.5      4.100      9.345
REMARK  Name = 100472
REMARK  3 active torsions:
REMARK  status: ('A' for Active; 'I' for Inactive)
REMARK    1  A    between atoms: C_1  and  C_13
REMARK    2  A    between atoms: C_2  and  C_7
REMARK    3  A    between atoms: C_13  and  C_16
REMARK                            x       y       z     vdW  Elec       q    Type
REMARK                         _______ _______ _______ _____ _____    ______ ____
ROOT
ATOM      1  C   UNL     1      34.863 -19.565 -21.790  0.00  0.00    -0.013 C 
ATOM      2  C   UNL     1      34.411 -21.175 -19.556  0.00  0.00    -0.000 C 
ATOM      3  C   UNL     1      33.558 -19.843 -21.382  0.00  0.00    -0.004 C 
ATOM      4  C   UNL     1      35.942 -20.093 -21.080  0.00  0.00    -0.004 C 
ATOM      5  C   UNL     1      33.332 -20.648 -20.266  0.00  0.00    -0.000 C 
ATOM      6  C   UNL     1      35.716 -20.897 -19.964  0.00  0.00    -0.000 C 
ENDROOT
BRANCH   2   7
ATOM      7  C   UNL     1      34.177 -22.010 -18.398  0.00  0.00    -0.000 C 
ATOM      8  C   UNL     1      35.207 -22.242 -17.486  0.00  0.00    -0.000 C 
ATOM      9  C   UNL     1      32.922 -22.582 -18.194  0.00  0.00    -0.000 C 
ATOM     10  C   UNL     1      34.981 -23.047 -16.369  0.00  0.00    +0.000 C 
ATOM     11  C   UNL     1      32.696 -23.387 -17.077  0.00  0.00    +0.000 C 
ATOM     12  C   UNL     1      33.726 -23.619 -16.165  0.00  0.00    +0.000 C 
ENDBRANCH   2   7
BRANCH   1  13
ATOM     13  C   UNL     1      35.104 -18.705 -22.984  0.00  0.00    +0.112 C 
BRANCH  13  16
ATOM     14  O   UNL     1      35.063 -16.679 -21.678  0.00  0.00    -0.274 OA
ATOM     15  N   UNL     1      34.265 -16.639 -23.886  0.00  0.00    -0.269 N 
ATOM     16  C   UNL     1      34.816 -17.225 -22.750  0.00  0.00    +0.232 C 
ATOM     17  H   UNL     1      34.135 -17.232 -24.662  0.00  0.00    +0.156 HD
ATOM     18  N   UNL     1      33.353 -14.932 -25.246  0.00  0.00    -0.229 NA
ATOM     19  C   UNL     1      33.867 -15.291 -24.056  0.00  0.00    +0.134 C 
ATOM     20  C   UNL     1      34.044 -14.449 -22.979  0.00  0.00    +0.034 C 
ATOM     21  C   UNL     1      33.658 -13.123 -23.136  0.00  0.00    +0.004 C 
ATOM     22  C   UNL     1      33.121 -12.700 -24.347  0.00  0.00    +0.021 C 
ATOM     23  C   UNL     1      32.991 -13.635 -25.361  0.00  0.00    +0.100 C 
ENDBRANCH  13  16
ENDBRANCH   1  13
TORSDOF 3
ENDMDL
MODEL 9
REMARK VINA RESULT:     -11.4      5.029      8.987
REMARK  Name = 100472
REMARK  3 active torsions:
REMARK  status: ('A' for Active; 'I' for Inactive)
REMARK    1  A    between atoms: C_1  and  C_13
REMARK    2  A    between atoms: C_2  and  C_7
REMARK    3  A    between atoms: C_13  and  C_16
REMARK                            x       y       z     vdW  Elec       q    Type
REMARK                         _______ _______ _______ _____ _____    ______ ____
ROOT
ATOM      1  C   UNL     1      34.587 -16.790 -23.374  0.00  0.00    -0.013 C 
ATOM      2  C   UNL     1      34.357 -18.943 -21.615  0.00  0.00    -0.000 C 
ATOM      3  C   UNL     1      35.069 -16.680 -22.069  0.00  0.00    -0.004 C 
ATOM      4  C   UNL     1      33.989 -17.977 -23.798  0.00  0.00    -0.004 C 
ATOM      5  C   UNL     1      34.954 -17.756 -21.190  0.00  0.00    -0.000 C 
ATOM      6  C   UNL     1      33.874 -19.053 -22.919  0.00  0.00    -0.000 C 
ENDROOT
BRANCH   2   7
ATOM      7  C   UNL     1      34.237 -20.060 -20.703  0.00  0.00    -0.000 C 
ATOM      8  C   UNL     1      35.381 -20.701 -20.230  0.00  0.00    -0.000 C 
ATOM      9  C   UNL     1      32.976 -20.496 -20.297  0.00  0.00    -0.000 C 
ATOM     10  C   UNL     1      35.266 -21.777 -19.350  0.00  0.00    +0.000 C 
ATOM     11  C   UNL     1      32.859 -21.572 -19.417  0.00  0.00    +0.000 C 
ATOM     12  C   UNL     1      34.005 -22.212 -18.944  0.00  0.00    +0.000 C 
ENDBRANCH   2   7
BRANCH   1  13
ATOM     13  C   UNL     1      34.710 -15.638 -24.314  0.00  0.00    +0.112 C 
BRANCH  13  16
ATOM     14  O   UNL     1      33.311 -13.758 -24.877  0.00  0.00    -0.274 OA
ATOM     15  N   UNL     1      33.551 -14.378 -22.624  0.00  0.00    -0.269 N 
ATOM     16  C   UNL     1      33.774 -14.475 -23.995  0.00  0.00    +0.232 C 
ATOM     17  H   UNL     1      34.008 -15.044 -22.060  0.00  0.00    +0.156 HD
ATOM     18  N   UNL     1      32.666 -13.518 -20.607  0.00  0.00    -0.229 NA
ATOM     19  C   UNL     1      32.744 -13.433 -21.947  0.00  0.00    +0.134 C 
ATOM     20  C   UNL     1      32.096 -12.496 -22.723  0.00  0.00    +0.034 C 
ATOM     21  C   UNL     1      31.301 -11.564 -22.067  0.00  0.00    +0.004 C 
ATOM     22  C   UNL     1      31.186 -11.608 -20.682  0.00  0.00    +0.021 C 
ATOM     23  C   UNL     1      31.882 -12.596 -20.005  0.00  0.00    +0.100 C 
ENDBRANCH  13  16
ENDBRANCH   1  13
TORSDOF 3
ENDMDL
