MODEL 1
REMARK VINA RESULT:     -12.6      0.000      0.000
REMARK  Name = 25243853
REMARK  6 active torsions:
REMARK  status: ('A' for Active; 'I' for Inactive)
REMARK    1  A    between atoms: N_1  and  C_6
REMARK    2  A    between atoms: N_1  and  C_21
REMARK    3  A    between atoms: C_3  and  C_16
REMARK    4  A    between atoms: C_11  and  C_18
REMARK    5  A    between atoms: C_18  and  O_19
REMARK    6  A    between atoms: C_21  and  C_28
REMARK                            x       y       z     vdW  Elec       q    Type
REMARK                         _______ _______ _______ _____ _____    ______ ____
ROOT
ATOM      1  N   UNL     1      33.541 -23.132 -18.818  0.00  0.00    -0.327 N 
ATOM      2  H   UNL     1      33.920 -23.972 -19.165  0.00  0.00    +0.147 HD
ENDROOT
BRANCH   1   6
ATOM      3  C   UNL     1      34.640 -19.523 -20.665  0.00  0.00    +0.054 C 
ATOM      4  C   UNL     1      35.624 -20.391 -20.191  0.00  0.00    +0.006 C 
ATOM      5  C   UNL     1      33.292 -19.854 -20.526  0.00  0.00    +0.006 C 
ATOM      6  C   UNL     1      33.911 -21.920 -19.439  0.00  0.00    +0.045 C 
ATOM      7  C   UNL     1      35.259 -21.590 -19.578  0.00  0.00    +0.014 C 
ATOM      8  C   UNL     1      32.927 -21.051 -19.913  0.00  0.00    +0.014 C 
BRANCH   3  16
ATOM      9  O   UNL     1      35.539 -17.414 -20.582  0.00  0.00    -0.270 OA
ATOM     10  N   UNL     1      34.782 -18.121 -22.679  0.00  0.00    -0.276 N 
ATOM     11  C   UNL     1      33.150 -17.225 -24.908  0.00  0.00    +0.102 C 
ATOM     12  C   UNL     1      33.898 -16.243 -24.001  0.00  0.00    +0.033 C 
ATOM     13  C   UNL     1      32.914 -18.575 -24.225  0.00  0.00    +0.033 C 
ATOM     14  C   UNL     1      35.129 -16.871 -23.350  0.00  0.00    +0.094 C 
ATOM     15  C   UNL     1      34.166 -19.133 -23.546  0.00  0.00    +0.094 C 
ATOM     16  C   UNL     1      35.024 -18.261 -21.310  0.00  0.00    +0.249 C 
BRANCH  11  18
ATOM     17  O   UNL     1      34.350 -18.459 -26.595  0.00  0.00    -0.250 OA
ATOM     18  C   UNL     1      33.885 -17.396 -26.207  0.00  0.00    +0.317 C 
BRANCH  18  19
ATOM     19  O   UNL     1      33.943 -16.200 -26.858  0.00  0.00    -0.444 OA
ATOM     20  C   UNL     1      32.689 -15.693 -27.324  0.00  0.00    +0.256 C 
ENDBRANCH  18  19
ENDBRANCH  11  18
ENDBRANCH   3  16
ENDBRANCH   1   6
BRANCH   1  21
ATOM     21  C   UNL     1      32.640 -23.193 -17.710  0.00  0.00    +0.145 C 
BRANCH  21  28
ATOM     22  N   UNL     1      34.725 -23.198 -16.446  0.00  0.00    -0.392 NA
ATOM     23  N   UNL     1      33.414 -23.912 -14.115  0.00  0.00    -0.200 NA
ATOM     24  N   UNL     1      35.423 -23.901 -12.964  0.00  0.00    -0.271 NA
ATOM     25  N   UNL     1      37.479 -23.366 -14.077  0.00  0.00    -0.310 NA
ATOM     26  N   UNL     1      37.458 -22.843 -16.381  0.00  0.00    -0.329 N 
ATOM     27  N   UNL     1      37.459 -23.892 -11.796  0.00  0.00    -0.283 N 
ATOM     28  C   UNL     1      33.397 -23.384 -16.425  0.00  0.00    +0.133 C 
ATOM     29  C   UNL     1      32.749 -23.736 -15.272  0.00  0.00    +0.193 C 
ATOM     30  C   UNL     1      35.389 -23.374 -15.287  0.00  0.00    +0.248 C 
ATOM     31  C   UNL     1      34.741 -23.733 -14.103  0.00  0.00    +0.131 C 
ATOM     32  C   UNL     1      36.758 -23.206 -15.201  0.00  0.00    +0.231 C 
ATOM     33  C   UNL     1      36.756 -23.710 -13.006  0.00  0.00    +0.207 C 
ATOM     34  H   UNL     1      38.434 -22.717 -16.355  0.00  0.00    +0.145 HD
ATOM     35  H   UNL     1      36.969 -22.719 -17.226  0.00  0.00    +0.145 HD
ATOM     36  H   UNL     1      36.973 -24.146 -10.978  0.00  0.00    +0.156 HD
ATOM     37  H   UNL     1      38.435 -23.765 -11.769  0.00  0.00    +0.156 HD
ENDBRANCH  21  28
ENDBRANCH   1  21
TORSDOF 6
ENDMDL
MODEL 2
REMARK VINA RESULT:     -11.9      3.761     11.466
REMARK  Name = 25243853
REMARK  6 active torsions:
REMARK  status: ('A' for Active; 'I' for Inactive)
REMARK    1  A    between atoms: N_1  and  C_6
REMARK    2  A    between atoms: N_1  and  C_21
REMARK    3  A    between atoms: C_3  and  C_16
REMARK    4  A    between atoms: C_11  and  C_18
REMARK    5  A    between atoms: C_18  and  O_19
REMARK    6  A    between atoms: C_21  and  C_28
REMARK                            x       y       z     vdW  Elec       q    Type
REMARK                         _______ _______ _______ _____ _____    ______ ____
ROOT
ATOM      1  N   UNL     1      34.735 -18.625 -22.656  0.00  0.00    -0.327 N 
ATOM      2  H   UNL     1      35.342 -17.883 -22.434  0.00  0.00    +0.147 HD
ENDROOT
BRANCH   1   6
ATOM      3  C   UNL     1      33.521 -21.216 -19.581  0.00  0.00    +0.054 C 
ATOM      4  C   UNL     1      34.875 -21.084 -19.888  0.00  0.00    +0.006 C 
ATOM      5  C   UNL     1      32.570 -20.486 -20.295  0.00  0.00    +0.006 C 
ATOM      6  C   UNL     1      34.327 -19.495 -21.622  0.00  0.00    +0.045 C 
ATOM      7  C   UNL     1      35.278 -20.223 -20.909  0.00  0.00    +0.014 C 
ATOM      8  C   UNL     1      32.973 -19.626 -21.316  0.00  0.00    +0.014 C 
BRANCH   3  16
ATOM      9  O   UNL     1      31.884 -22.294 -18.391  0.00  0.00    -0.270 OA
ATOM     10  N   UNL     1      34.084 -22.710 -17.713  0.00  0.00    -0.276 N 
ATOM     11  C   UNL     1      35.730 -22.791 -15.322  0.00  0.00    +0.102 C 
ATOM     12  C   UNL     1      34.226 -23.079 -15.284  0.00  0.00    +0.033 C 
ATOM     13  C   UNL     1      36.128 -21.967 -16.550  0.00  0.00    +0.033 C 
ATOM     14  C   UNL     1      33.697 -23.598 -16.619  0.00  0.00    +0.094 C 
ATOM     15  C   UNL     1      35.530 -22.501 -17.852  0.00  0.00    +0.094 C 
ATOM     16  C   UNL     1      33.096 -22.121 -18.506  0.00  0.00    +0.249 C 
BRANCH  11  18
ATOM     17  O   UNL     1      36.009 -25.184 -15.391  0.00  0.00    -0.250 OA
ATOM     18  C   UNL     1      36.507 -24.075 -15.255  0.00  0.00    +0.317 C 
BRANCH  18  19
ATOM     19  O   UNL     1      37.822 -23.800 -15.024  0.00  0.00    -0.444 OA
ATOM     20  C   UNL     1      38.651 -24.938 -14.766  0.00  0.00    +0.256 C 
ENDBRANCH  18  19
ENDBRANCH  11  18
ENDBRANCH   3  16
ENDBRANCH   1   6
BRANCH   1  21
ATOM     21  C   UNL     1      34.304 -18.774 -24.011  0.00  0.00    +0.145 C 
BRANCH  21  28
ATOM     22  N   UNL     1      33.092 -17.437 -25.652  0.00  0.00    -0.392 NA
ATOM     23  N   UNL     1      34.026 -15.075 -24.552  0.00  0.00    -0.200 NA
ATOM     24  N   UNL     1      32.855 -13.858 -26.134  0.00  0.00    -0.271 NA
ATOM     25  N   UNL     1      31.530 -14.957 -27.805  0.00  0.00    -0.310 NA
ATOM     26  N   UNL     1      31.418 -17.316 -27.839  0.00  0.00    -0.329 N 
ATOM     27  N   UNL     1      31.669 -12.621 -27.738  0.00  0.00    -0.283 N 
ATOM     28  C   UNL     1      33.909 -17.442 -24.588  0.00  0.00    +0.133 C 
ATOM     29  C   UNL     1      34.370 -16.274 -24.044  0.00  0.00    +0.193 C 
ATOM     30  C   UNL     1      32.748 -16.237 -26.158  0.00  0.00    +0.248 C 
ATOM     31  C   UNL     1      33.211 -15.037 -25.613  0.00  0.00    +0.131 C 
ATOM     32  C   UNL     1      31.911 -16.123 -27.251  0.00  0.00    +0.231 C 
ATOM     33  C   UNL     1      32.034 -13.874 -27.202  0.00  0.00    +0.207 C 
ATOM     34  H   UNL     1      30.820 -17.271 -28.620  0.00  0.00    +0.145 HD
ATOM     35  H   UNL     1      31.674 -18.191 -27.467  0.00  0.00    +0.145 HD
ATOM     36  H   UNL     1      32.012 -11.792 -27.332  0.00  0.00    +0.156 HD
ATOM     37  H   UNL     1      31.070 -12.574 -28.519  0.00  0.00    +0.156 HD
ENDBRANCH  21  28
ENDBRANCH   1  21
TORSDOF 6
ENDMDL
MODEL 3
REMARK VINA RESULT:     -11.9      3.573     11.155
REMARK  Name = 25243853
REMARK  6 active torsions:
REMARK  status: ('A' for Active; 'I' for Inactive)
REMARK    1  A    between atoms: N_1  and  C_6
REMARK    2  A    between atoms: N_1  and  C_21
REMARK    3  A    between atoms: C_3  and  C_16
REMARK    4  A    between atoms: C_11  and  C_18
REMARK    5  A    between atoms: C_18  and  O_19
REMARK    6  A    between atoms: C_21  and  C_28
REMARK                            x       y       z     vdW  Elec       q    Type
REMARK                         _______ _______ _______ _____ _____    ______ ____
ROOT
ATOM      1  N   UNL     1      34.925 -18.809 -22.579  0.00  0.00    -0.327 N 
ATOM      2  H   UNL     1      35.431 -17.999 -22.342  0.00  0.00    +0.147 HD
ENDROOT
BRANCH   1   6
ATOM      3  C   UNL     1      33.607 -21.329 -19.487  0.00  0.00    +0.054 C 
ATOM      4  C   UNL     1      34.971 -21.209 -19.756  0.00  0.00    +0.006 C 
ATOM      5  C   UNL     1      32.682 -20.611 -20.246  0.00  0.00    +0.006 C 
ATOM      6  C   UNL     1      34.483 -19.655 -21.540  0.00  0.00    +0.045 C 
ATOM      7  C   UNL     1      35.409 -20.372 -20.782  0.00  0.00    +0.014 C 
ATOM      8  C   UNL     1      33.119 -19.775 -21.272  0.00  0.00    +0.014 C 
BRANCH   3  16
ATOM      9  O   UNL     1      31.931 -22.378 -18.326  0.00  0.00    -0.270 OA
ATOM     10  N   UNL     1      34.107 -22.783 -17.570  0.00  0.00    -0.276 N 
ATOM     11  C   UNL     1      35.677 -22.815 -15.127  0.00  0.00    +0.102 C 
ATOM     12  C   UNL     1      34.171 -23.099 -15.130  0.00  0.00    +0.033 C 
ATOM     13  C   UNL     1      36.116 -22.020 -16.360  0.00  0.00    +0.033 C 
ATOM     14  C   UNL     1      33.684 -23.646 -16.470  0.00  0.00    +0.094 C 
ATOM     15  C   UNL     1      35.557 -22.581 -17.668  0.00  0.00    +0.094 C 
ATOM     16  C   UNL     1      33.146 -22.210 -18.407  0.00  0.00    +0.249 C 
BRANCH  11  18
ATOM     17  O   UNL     1      36.050 -25.178 -15.427  0.00  0.00    -0.250 OA
ATOM     18  C   UNL     1      36.448 -24.099 -15.008  0.00  0.00    +0.317 C 
BRANCH  18  19
ATOM     19  O   UNL     1      37.630 -23.863 -14.373  0.00  0.00    -0.444 OA
ATOM     20  C   UNL     1      38.255 -25.012 -13.792  0.00  0.00    +0.256 C 
ENDBRANCH  18  19
ENDBRANCH  11  18
ENDBRANCH   3  16
ENDBRANCH   1   6
BRANCH   1  21
ATOM     21  C   UNL     1      34.669 -19.077 -23.960  0.00  0.00    +0.145 C 
BRANCH  21  28
ATOM     22  N   UNL     1      34.142 -16.696 -23.947  0.00  0.00    -0.392 NA
ATOM     23  N   UNL     1      33.514 -16.728 -26.643  0.00  0.00    -0.200 NA
ATOM     24  N   UNL     1      33.027 -14.466 -26.572  0.00  0.00    -0.271 NA
ATOM     25  N   UNL     1      33.230 -13.224 -24.530  0.00  0.00    -0.310 NA
ATOM     26  N   UNL     1      33.936 -14.322 -22.561  0.00  0.00    -0.329 N 
ATOM     27  N   UNL     1      32.532 -12.173 -26.503  0.00  0.00    -0.283 N 
ATOM     28  C   UNL     1      34.225 -17.826 -24.666  0.00  0.00    +0.133 C 
ATOM     29  C   UNL     1      33.915 -17.841 -25.999  0.00  0.00    +0.193 C 
ATOM     30  C   UNL     1      33.741 -15.583 -24.593  0.00  0.00    +0.248 C 
ATOM     31  C   UNL     1      33.422 -15.585 -25.953  0.00  0.00    +0.131 C 
ATOM     32  C   UNL     1      33.624 -14.370 -23.945  0.00  0.00    +0.231 C 
ATOM     33  C   UNL     1      32.951 -13.343 -25.833  0.00  0.00    +0.207 C 
ATOM     34  H   UNL     1      33.862 -13.473 -22.069  0.00  0.00    +0.145 HD
ATOM     35  H   UNL     1      34.225 -15.138 -22.093  0.00  0.00    +0.145 HD
ATOM     36  H   UNL     1      32.313 -12.206 -27.462  0.00  0.00    +0.156 HD
ATOM     37  H   UNL     1      32.458 -11.323 -26.011  0.00  0.00    +0.156 HD
ENDBRANCH  21  28
ENDBRANCH   1  21
TORSDOF 6
ENDMDL
MODEL 4
REMARK VINA RESULT:     -11.9      3.954     11.025
REMARK  Name = 25243853
REMARK  6 active torsions:
REMARK  status: ('A' for Active; 'I' for Inactive)
REMARK    1  A    between atoms: N_1  and  C_6
REMARK    2  A    between atoms: N_1  and  C_21
REMARK    3  A    between atoms: C_3  and  C_16
REMARK    4  A    between atoms: C_11  and  C_18
REMARK    5  A    between atoms: C_18  and  O_19
REMARK    6  A    between atoms: C_21  and  C_28
REMARK                            x       y       z     vdW  Elec       q    Type
REMARK                         _______ _______ _______ _____ _____    ______ ____
ROOT
ATOM      1  N   UNL     1      35.395 -20.688 -20.727  0.00  0.00    -0.327 N 
ATOM      2  H   UNL     1      35.193 -21.102 -21.597  0.00  0.00    +0.147 HD
ENDROOT
BRANCH   1   6
ATOM      3  C   UNL     1      34.335 -22.759 -17.229  0.00  0.00    +0.054 C 
ATOM      4  C   UNL     1      35.614 -22.216 -17.358  0.00  0.00    +0.006 C 
ATOM      5  C   UNL     1      33.409 -22.613 -18.262  0.00  0.00    +0.006 C 
ATOM      6  C   UNL     1      35.039 -21.383 -19.552  0.00  0.00    +0.045 C 
ATOM      7  C   UNL     1      35.965 -21.527 -18.519  0.00  0.00    +0.014 C 
ATOM      8  C   UNL     1      33.761 -21.926 -19.423  0.00  0.00    +0.014 C 
BRANCH   3  16
ATOM      9  O   UNL     1      32.761 -23.647 -15.818  0.00  0.00    -0.270 OA
ATOM     10  N   UNL     1      34.990 -23.927 -15.169  0.00  0.00    -0.276 N 
ATOM     11  C   UNL     1      36.726 -23.607 -12.862  0.00  0.00    +0.102 C 
ATOM     12  C   UNL     1      35.228 -23.898 -12.720  0.00  0.00    +0.033 C 
ATOM     13  C   UNL     1      37.065 -22.988 -14.221  0.00  0.00    +0.033 C 
ATOM     14  C   UNL     1      34.659 -24.631 -13.933  0.00  0.00    +0.094 C 
ATOM     15  C   UNL     1      36.427 -23.731 -15.396  0.00  0.00    +0.094 C 
ATOM     16  C   UNL     1      33.965 -23.483 -16.007  0.00  0.00    +0.249 C 
BRANCH  11  18
ATOM     17  O   UNL     1      37.111 -25.822 -11.994  0.00  0.00    -0.250 OA
ATOM     18  C   UNL     1      37.524 -24.856 -12.621  0.00  0.00    +0.317 C 
BRANCH  18  19
ATOM     19  O   UNL     1      38.751 -24.731 -13.201  0.00  0.00    -0.444 OA
ATOM     20  C   UNL     1      39.187 -25.860 -13.965  0.00  0.00    +0.256 C 
ENDBRANCH  18  19
ENDBRANCH  11  18
ENDBRANCH   3  16
ENDBRANCH   1   6
BRANCH   1  21
ATOM     21  C   UNL     1      36.037 -19.410 -20.709  0.00  0.00    +0.145 C 
BRANCH  21  28
ATOM     22  N   UNL     1      35.174 -17.240 -21.411  0.00  0.00    -0.392 NA
ATOM     23  N   UNL     1      34.658 -18.171 -23.966  0.00  0.00    -0.200 NA
ATOM     24  N   UNL     1      33.851 -16.089 -24.577  0.00  0.00    -0.271 NA
ATOM     25  N   UNL     1      33.798 -14.276 -23.006  0.00  0.00    -0.310 NA
ATOM     26  N   UNL     1      34.580 -14.618 -20.803  0.00  0.00    -0.329 N 
ATOM     27  N   UNL     1      33.030 -13.979 -25.198  0.00  0.00    -0.283 N 
ATOM     28  C   UNL     1      35.445 -18.508 -21.756  0.00  0.00    +0.133 C 
ATOM     29  C   UNL     1      35.190 -18.967 -23.020  0.00  0.00    +0.193 C 
ATOM     30  C   UNL     1      34.643 -16.444 -22.359  0.00  0.00    +0.248 C 
ATOM     31  C   UNL     1      34.378 -16.900 -23.652  0.00  0.00    +0.131 C 
ATOM     32  C   UNL     1      34.329 -15.123 -22.106  0.00  0.00    +0.231 C 
ATOM     33  C   UNL     1      33.587 -14.820 -24.211  0.00  0.00    +0.207 C 
ATOM     34  H   UNL     1      34.367 -13.681 -20.589  0.00  0.00    +0.145 HD
ATOM     35  H   UNL     1      34.965 -15.204 -20.113  0.00  0.00    +0.145 HD
ATOM     36  H   UNL     1      32.854 -14.330 -26.101  0.00  0.00    +0.156 HD
ATOM     37  H   UNL     1      32.817 -13.042 -24.985  0.00  0.00    +0.156 HD
ENDBRANCH  21  28
ENDBRANCH   1  21
TORSDOF 6
ENDMDL
MODEL 5
REMARK VINA RESULT:     -11.7      3.756     11.181
REMARK  Name = 25243853
REMARK  6 active torsions:
REMARK  status: ('A' for Active; 'I' for Inactive)
REMARK    1  A    between atoms: N_1  and  C_6
REMARK    2  A    between atoms: N_1  and  C_21
REMARK    3  A    between atoms: C_3  and  C_16
REMARK    4  A    between atoms: C_11  and  C_18
REMARK    5  A    between atoms: C_18  and  O_19
REMARK    6  A    between atoms: C_21  and  C_28
REMARK                            x       y       z     vdW  Elec       q    Type
REMARK                         _______ _______ _______ _____ _____    ______ ____
ROOT
ATOM      1  N   UNL     1      35.138 -18.703 -22.531  0.00  0.00    -0.327 N 
ATOM      2  H   UNL     1      36.064 -18.377 -22.459  0.00  0.00    +0.147 HD
ENDROOT
BRANCH   1   6
ATOM      3  C   UNL     1      33.680 -21.277 -19.549  0.00  0.00    +0.054 C 
ATOM      4  C   UNL     1      35.053 -21.171 -19.768  0.00  0.00    +0.006 C 
ATOM      5  C   UNL     1      32.791 -20.528 -20.320  0.00  0.00    +0.006 C 
ATOM      6  C   UNL     1      34.648 -19.567 -21.528  0.00  0.00    +0.045 C 
ATOM      7  C   UNL     1      35.537 -20.315 -20.758  0.00  0.00    +0.014 C 
ATOM      8  C   UNL     1      33.275 -19.674 -21.310  0.00  0.00    +0.014 C 
BRANCH   3  16
ATOM      9  O   UNL     1      31.953 -22.354 -18.492  0.00  0.00    -0.270 OA
ATOM     10  N   UNL     1      34.090 -22.757 -17.630  0.00  0.00    -0.276 N 
ATOM     11  C   UNL     1      35.531 -22.816 -15.109  0.00  0.00    +0.102 C 
ATOM     12  C   UNL     1      34.030 -23.109 -15.195  0.00  0.00    +0.033 C 
ATOM     13  C   UNL     1      36.028 -21.998 -16.306  0.00  0.00    +0.033 C 
ATOM     14  C   UNL     1      33.616 -23.639 -16.566  0.00  0.00    +0.094 C 
ATOM     15  C   UNL     1      35.541 -22.544 -17.649  0.00  0.00    +0.094 C 
ATOM     16  C   UNL     1      33.170 -22.177 -18.507  0.00  0.00    +0.249 C 
BRANCH  11  18
ATOM     17  O   UNL     1      35.938 -25.170 -15.426  0.00  0.00    -0.250 OA
ATOM     18  C   UNL     1      36.304 -24.096 -14.969  0.00  0.00    +0.317 C 
BRANCH  18  19
ATOM     19  O   UNL     1      37.449 -23.862 -14.267  0.00  0.00    -0.444 OA
ATOM     20  C   UNL     1      37.354 -24.067 -12.853  0.00  0.00    +0.256 C 
ENDBRANCH  18  19
ENDBRANCH  11  18
ENDBRANCH   3  16
ENDBRANCH   1   6
BRANCH   1  21
ATOM     21  C   UNL     1      34.347 -18.278 -23.643  0.00  0.00    +0.145 C 
BRANCH  21  28
ATOM     22  N   UNL     1      33.595 -16.213 -24.701  0.00  0.00    -0.392 NA
ATOM     23  N   UNL     1      34.605 -14.678 -22.631  0.00  0.00    -0.200 NA
ATOM     24  N   UNL     1      33.869 -12.751 -23.681  0.00  0.00    -0.271 NA
ATOM     25  N   UNL     1      32.723 -12.853 -25.785  0.00  0.00    -0.310 NA
ATOM     26  N   UNL     1      32.339 -14.950 -26.805  0.00  0.00    -0.329 N 
ATOM     27  N   UNL     1      33.125 -10.795 -24.744  0.00  0.00    -0.283 N 
ATOM     28  C   UNL     1      34.216 -16.780 -23.655  0.00  0.00    +0.133 C 
ATOM     29  C   UNL     1      34.715 -16.021 -22.632  0.00  0.00    +0.193 C 
ATOM     30  C   UNL     1      33.486 -14.870 -24.698  0.00  0.00    +0.248 C 
ATOM     31  C   UNL     1      33.991 -14.083 -23.660  0.00  0.00    +0.131 C 
ATOM     32  C   UNL     1      32.864 -14.190 -25.727  0.00  0.00    +0.231 C 
ATOM     33  C   UNL     1      33.243 -12.201 -24.739  0.00  0.00    +0.207 C 
ATOM     34  H   UNL     1      31.891 -14.496 -27.554  0.00  0.00    +0.145 HD
ATOM     35  H   UNL     1      32.423 -15.930 -26.803  0.00  0.00    +0.145 HD
ATOM     36  H   UNL     1      33.491 -10.268 -23.998  0.00  0.00    +0.156 HD
ATOM     37  H   UNL     1      32.676 -10.341 -25.493  0.00  0.00    +0.156 HD
ENDBRANCH  21  28
ENDBRANCH   1  21
TORSDOF 6
ENDMDL
MODEL 6
REMARK VINA RESULT:     -11.7      3.877     11.085
REMARK  Name = 25243853
REMARK  6 active torsions:
REMARK  status: ('A' for Active; 'I' for Inactive)
REMARK    1  A    between atoms: N_1  and  C_6
REMARK    2  A    between atoms: N_1  and  C_21
REMARK    3  A    between atoms: C_3  and  C_16
REMARK    4  A    between atoms: C_11  and  C_18
REMARK    5  A    between atoms: C_18  and  O_19
REMARK    6  A    between atoms: C_21  and  C_28
REMARK                            x       y       z     vdW  Elec       q    Type
REMARK                         _______ _______ _______ _____ _____    ______ ____
ROOT
ATOM      1  N   UNL     1      35.194 -20.637 -20.776  0.00  0.00    -0.327 N 
ATOM      2  H   UNL     1      34.970 -21.037 -21.647  0.00  0.00    +0.147 HD
ENDROOT
BRANCH   1   6
ATOM      3  C   UNL     1      34.221 -22.761 -17.286  0.00  0.00    +0.054 C 
ATOM      4  C   UNL     1      35.506 -22.244 -17.452  0.00  0.00    +0.006 C 
ATOM      5  C   UNL     1      33.260 -22.573 -18.279  0.00  0.00    +0.006 C 
ATOM      6  C   UNL     1      34.867 -21.350 -19.603  0.00  0.00    +0.045 C 
ATOM      7  C   UNL     1      35.828 -21.537 -18.611  0.00  0.00    +0.014 C 
ATOM      8  C   UNL     1      33.583 -21.868 -19.438  0.00  0.00    +0.014 C 
BRANCH   3  16
ATOM      9  O   UNL     1      32.682 -23.690 -15.861  0.00  0.00    -0.270 OA
ATOM     10  N   UNL     1      34.925 -23.941 -15.248  0.00  0.00    -0.276 N 
ATOM     11  C   UNL     1      36.689 -23.616 -12.964  0.00  0.00    +0.102 C 
ATOM     12  C   UNL     1      35.199 -23.933 -12.802  0.00  0.00    +0.033 C 
ATOM     13  C   UNL     1      36.998 -22.977 -14.321  0.00  0.00    +0.033 C 
ATOM     14  C   UNL     1      34.623 -24.662 -14.014  0.00  0.00    +0.094 C 
ATOM     15  C   UNL     1      36.354 -23.718 -15.494  0.00  0.00    +0.094 C 
ATOM     16  C   UNL     1      33.880 -23.504 -16.067  0.00  0.00    +0.249 C 
BRANCH  11  18
ATOM     17  O   UNL     1      37.134 -25.821 -12.100  0.00  0.00    -0.250 OA
ATOM     18  C   UNL     1      37.512 -24.854 -12.747  0.00  0.00    +0.317 C 
BRANCH  18  19
ATOM     19  O   UNL     1      38.713 -24.718 -13.377  0.00  0.00    -0.444 OA
ATOM     20  C   UNL     1      39.211 -25.901 -14.011  0.00  0.00    +0.256 C 
ENDBRANCH  18  19
ENDBRANCH  11  18
ENDBRANCH   3  16
ENDBRANCH   1   6
BRANCH   1  21
ATOM     21  C   UNL     1      35.837 -19.360 -20.754  0.00  0.00    +0.145 C 
BRANCH  21  28
ATOM     22  N   UNL     1      34.955 -19.035 -23.005  0.00  0.00    -0.392 NA
ATOM     23  N   UNL     1      34.618 -16.321 -22.577  0.00  0.00    -0.200 NA
ATOM     24  N   UNL     1      33.787 -16.071 -24.723  0.00  0.00    -0.271 NA
ATOM     25  N   UNL     1      33.592 -17.953 -26.197  0.00  0.00    -0.310 NA
ATOM     26  N   UNL     1      34.257 -20.094 -25.452  0.00  0.00    -0.329 N 
ATOM     27  N   UNL     1      32.946 -15.815 -26.899  0.00  0.00    -0.283 N 
ATOM     28  C   UNL     1      35.281 -18.471 -21.832  0.00  0.00    +0.133 C 
ATOM     29  C   UNL     1      35.114 -17.129 -21.621  0.00  0.00    +0.193 C 
ATOM     30  C   UNL     1      34.459 -18.225 -23.960  0.00  0.00    +0.248 C 
ATOM     31  C   UNL     1      34.283 -16.854 -23.758  0.00  0.00    +0.131 C 
ATOM     32  C   UNL     1      34.092 -18.706 -25.202  0.00  0.00    +0.231 C 
ATOM     33  C   UNL     1      33.466 -16.656 -25.893  0.00  0.00    +0.207 C 
ATOM     34  H   UNL     1      34.006 -20.469 -26.326  0.00  0.00    +0.145 HD
ATOM     35  H   UNL     1      34.622 -20.681 -24.751  0.00  0.00    +0.145 HD
ATOM     36  H   UNL     1      32.834 -14.852 -26.727  0.00  0.00    +0.156 HD
ATOM     37  H   UNL     1      32.694 -16.190 -27.775  0.00  0.00    +0.156 HD
ENDBRANCH  21  28
ENDBRANCH   1  21
TORSDOF 6
ENDMDL
MODEL 7
REMARK VINA RESULT:     -11.6      0.958      1.996
REMARK  Name = 25243853
REMARK  6 active torsions:
REMARK  status: ('A' for Active; 'I' for Inactive)
REMARK    1  A    between atoms: N_1  and  C_6
REMARK    2  A    between atoms: N_1  and  C_21
REMARK    3  A    between atoms: C_3  and  C_16
REMARK    4  A    between atoms: C_11  and  C_18
REMARK    5  A    between atoms: C_18  and  O_19
REMARK    6  A    between atoms: C_21  and  C_28
REMARK                            x       y       z     vdW  Elec       q    Type
REMARK                         _______ _______ _______ _____ _____    ______ ____
ROOT
ATOM      1  N   UNL     1      34.265 -22.579 -19.302  0.00  0.00    -0.327 N 
ATOM      2  H   UNL     1      34.680 -23.339 -19.770  0.00  0.00    +0.147 HD
ENDROOT
BRANCH   1   6
ATOM      3  C   UNL     1      34.638 -18.746 -20.980  0.00  0.00    +0.054 C 
ATOM      4  C   UNL     1      33.374 -19.303 -20.787  0.00  0.00    +0.006 C 
ATOM      5  C   UNL     1      35.778 -19.462 -20.614  0.00  0.00    +0.006 C 
ATOM      6  C   UNL     1      34.390 -21.291 -19.865  0.00  0.00    +0.045 C 
ATOM      7  C   UNL     1      33.250 -20.576 -20.229  0.00  0.00    +0.014 C 
ATOM      8  C   UNL     1      35.655 -20.734 -20.058  0.00  0.00    +0.014 C 
BRANCH   3  16
ATOM      9  O   UNL     1      35.050 -16.498 -20.786  0.00  0.00    -0.270 OA
ATOM     10  N   UNL     1      34.572 -17.268 -22.942  0.00  0.00    -0.276 N 
ATOM     11  C   UNL     1      32.898 -16.658 -25.236  0.00  0.00    +0.102 C 
ATOM     12  C   UNL     1      33.367 -15.575 -24.260  0.00  0.00    +0.033 C 
ATOM     13  C   UNL     1      32.928 -18.054 -24.605  0.00  0.00    +0.033 C 
ATOM     14  C   UNL     1      34.671 -15.947 -23.557  0.00  0.00    +0.094 C 
ATOM     15  C   UNL     1      34.235 -18.354 -23.871  0.00  0.00    +0.094 C 
ATOM     16  C   UNL     1      34.769 -17.407 -21.566  0.00  0.00    +0.249 C 
BRANCH  11  18
ATOM     17  O   UNL     1      34.907 -16.890 -26.546  0.00  0.00    -0.250 OA
ATOM     18  C   UNL     1      33.716 -16.615 -26.494  0.00  0.00    +0.317 C 
BRANCH  18  19
ATOM     19  O   UNL     1      32.929 -16.226 -27.537  0.00  0.00    -0.444 OA
ATOM     20  C   UNL     1      32.715 -14.816 -27.653  0.00  0.00    +0.256 C 
ENDBRANCH  18  19
ENDBRANCH  11  18
ENDBRANCH   3  16
ENDBRANCH   1   6
BRANCH   1  21
ATOM     21  C   UNL     1      33.560 -22.829 -18.084  0.00  0.00    +0.145 C 
BRANCH  21  28
ATOM     22  N   UNL     1      34.094 -23.526 -15.809  0.00  0.00    -0.392 NA
ATOM     23  N   UNL     1      36.654 -22.490 -15.996  0.00  0.00    -0.200 NA
ATOM     24  N   UNL     1      37.105 -23.176 -13.831  0.00  0.00    -0.271 NA
ATOM     25  N   UNL     1      35.446 -24.314 -12.526  0.00  0.00    -0.310 NA
ATOM     26  N   UNL     1      33.318 -24.741 -13.459  0.00  0.00    -0.329 N 
ATOM     27  N   UNL     1      37.565 -23.869 -11.636  0.00  0.00    -0.283 N 
ATOM     28  C   UNL     1      34.519 -22.924 -16.930  0.00  0.00    +0.133 C 
ATOM     29  C   UNL     1      35.786 -22.413 -17.022  0.00  0.00    +0.193 C 
ATOM     30  C   UNL     1      34.965 -23.603 -14.783  0.00  0.00    +0.248 C 
ATOM     31  C   UNL     1      36.259 -23.086 -14.864  0.00  0.00    +0.131 C 
ATOM     32  C   UNL     1      34.625 -24.204 -13.587  0.00  0.00    +0.231 C 
ATOM     33  C   UNL     1      36.660 -23.784 -12.715  0.00  0.00    +0.207 C 
ATOM     34  H   UNL     1      33.044 -25.175 -12.620  0.00  0.00    +0.145 HD
ATOM     35  H   UNL     1      32.685 -24.680 -14.211  0.00  0.00    +0.145 HD
ATOM     36  H   UNL     1      38.471 -23.494 -11.723  0.00  0.00    +0.156 HD
ATOM     37  H   UNL     1      37.291 -24.303 -10.796  0.00  0.00    +0.156 HD
ENDBRANCH  21  28
ENDBRANCH   1  21
TORSDOF 6
ENDMDL
MODEL 8
REMARK VINA RESULT:     -11.5      3.443      6.280
REMARK  Name = 25243853
REMARK  6 active torsions:
REMARK  status: ('A' for Active; 'I' for Inactive)
REMARK    1  A    between atoms: N_1  and  C_6
REMARK    2  A    between atoms: N_1  and  C_21
REMARK    3  A    between atoms: C_3  and  C_16
REMARK    4  A    between atoms: C_11  and  C_18
REMARK    5  A    between atoms: C_18  and  O_19
REMARK    6  A    between atoms: C_21  and  C_28
REMARK                            x       y       z     vdW  Elec       q    Type
REMARK                         _______ _______ _______ _____ _____    ______ ____
ROOT
ATOM      1  N   UNL     1      34.536 -19.238 -23.245  0.00  0.00    -0.327 N 
ATOM      2  H   UNL     1      34.403 -20.146 -23.601  0.00  0.00    +0.147 HD
ENDROOT
BRANCH   1   6
ATOM      3  C   UNL     1      33.532 -15.964 -25.677  0.00  0.00    +0.054 C 
ATOM      4  C   UNL     1      32.901 -17.193 -25.868  0.00  0.00    +0.006 C 
ATOM      5  C   UNL     1      34.495 -15.822 -24.679  0.00  0.00    +0.006 C 
ATOM      6  C   UNL     1      34.198 -18.138 -24.062  0.00  0.00    +0.045 C 
ATOM      7  C   UNL     1      33.234 -18.280 -25.059  0.00  0.00    +0.014 C 
ATOM      8  C   UNL     1      34.829 -16.909 -23.871  0.00  0.00    +0.014 C 
BRANCH   3  16
ATOM      9  O   UNL     1      33.104 -15.044 -27.734  0.00  0.00    -0.270 OA
ATOM     10  N   UNL     1      32.963 -13.584 -25.911  0.00  0.00    -0.276 N 
ATOM     11  C   UNL     1      33.868 -10.965 -25.043  0.00  0.00    +0.102 C 
ATOM     12  C   UNL     1      33.661 -11.305 -26.523  0.00  0.00    +0.033 C 
ATOM     13  C   UNL     1      34.080 -12.217 -24.188  0.00  0.00    +0.033 C 
ATOM     14  C   UNL     1      32.636 -12.418 -26.727  0.00  0.00    +0.094 C 
ATOM     15  C   UNL     1      33.056 -13.319 -24.471  0.00  0.00    +0.094 C 
ATOM     16  C   UNL     1      33.182 -14.819 -26.527  0.00  0.00    +0.249 C 
BRANCH  11  18
ATOM     17  O   UNL     1      32.216 -10.289 -23.424  0.00  0.00    -0.250 OA
ATOM     18  C   UNL     1      32.716 -10.147 -24.531  0.00  0.00    +0.317 C 
BRANCH  18  19
ATOM     19  O   UNL     1      32.337  -9.249 -25.484  0.00  0.00    -0.444 OA
ATOM     20  C   UNL     1      32.230  -7.893 -25.040  0.00  0.00    +0.256 C 
ENDBRANCH  18  19
ENDBRANCH  11  18
ENDBRANCH   3  16
ENDBRANCH   1   6
BRANCH   1  21
ATOM     21  C   UNL     1      35.061 -19.091 -21.923  0.00  0.00    +0.145 C 
BRANCH  21  28
ATOM     22  N   UNL     1      35.031 -20.624 -20.027  0.00  0.00    -0.392 NA
ATOM     23  N   UNL     1      32.281 -20.900 -20.178  0.00  0.00    -0.200 NA
ATOM     24  N   UNL     1      32.313 -22.350 -18.373  0.00  0.00    -0.271 NA
ATOM     25  N   UNL     1      34.374 -22.927 -17.290  0.00  0.00    -0.310 NA
ATOM     26  N   UNL     1      36.402 -22.005 -18.075  0.00  0.00    -0.329 N 
ATOM     27  N   UNL     1      32.342 -23.821 -16.544  0.00  0.00    -0.283 N 
ATOM     28  C   UNL     1      34.318 -19.974 -20.960  0.00  0.00    +0.133 C 
ATOM     29  C   UNL     1      32.958 -20.111 -21.033  0.00  0.00    +0.193 C 
ATOM     30  C   UNL     1      34.352 -21.413 -19.172  0.00  0.00    +0.248 C 
ATOM     31  C   UNL     1      32.964 -21.561 -19.235  0.00  0.00    +0.131 C 
ATOM     32  C   UNL     1      34.992 -22.123 -18.175  0.00  0.00    +0.231 C 
ATOM     33  C   UNL     1      33.046 -22.993 -17.445  0.00  0.00    +0.207 C 
ATOM     34  H   UNL     1      36.890 -22.499 -17.376  0.00  0.00    +0.145 HD
ATOM     35  H   UNL     1      36.894 -21.429 -18.704  0.00  0.00    +0.145 HD
ATOM     36  H   UNL     1      31.364 -23.906 -16.615  0.00  0.00    +0.156 HD
ATOM     37  H   UNL     1      32.829 -24.315 -15.845  0.00  0.00    +0.156 HD
ENDBRANCH  21  28
ENDBRANCH   1  21
TORSDOF 6
ENDMDL
MODEL 9
REMARK VINA RESULT:     -11.2      1.733      2.841
REMARK  Name = 25243853
REMARK  6 active torsions:
REMARK  status: ('A' for Active; 'I' for Inactive)
REMARK    1  A    between atoms: N_1  and  C_6
REMARK    2  A    between atoms: N_1  and  C_21
REMARK    3  A    between atoms: C_3  and  C_16
REMARK    4  A    between atoms: C_11  and  C_18
REMARK    5  A    between atoms: C_18  and  O_19
REMARK    6  A    between atoms: C_21  and  C_28
REMARK                            x       y       z     vdW  Elec       q    Type
REMARK                         _______ _______ _______ _____ _____    ______ ____
ROOT
ATOM      1  N   UNL     1      34.873 -22.234 -19.495  0.00  0.00    -0.327 N 
ATOM      2  H   UNL     1      34.604 -22.989 -20.068  0.00  0.00    +0.147 HD
ENDROOT
BRANCH   1   6
ATOM      3  C   UNL     1      34.801 -18.361 -21.119  0.00  0.00    +0.054 C 
ATOM      4  C   UNL     1      36.016 -18.940 -20.750  0.00  0.00    +0.006 C 
ATOM      5  C   UNL     1      33.611 -19.068 -20.949  0.00  0.00    +0.006 C 
ATOM      6  C   UNL     1      34.849 -20.933 -20.041  0.00  0.00    +0.045 C 
ATOM      7  C   UNL     1      36.039 -20.227 -20.212  0.00  0.00    +0.014 C 
ATOM      8  C   UNL     1      33.635 -20.354 -20.410  0.00  0.00    +0.014 C 
BRANCH   3  16
ATOM      9  O   UNL     1      34.922 -16.082 -20.888  0.00  0.00    -0.270 OA
ATOM     10  N   UNL     1      34.594 -16.874 -23.065  0.00  0.00    -0.276 N 
ATOM     11  C   UNL     1      32.910 -16.445 -25.392  0.00  0.00    +0.102 C 
ATOM     12  C   UNL     1      33.216 -15.325 -24.391  0.00  0.00    +0.033 C 
ATOM     13  C   UNL     1      33.101 -17.835 -24.777  0.00  0.00    +0.033 C 
ATOM     14  C   UNL     1      34.540 -15.542 -23.661  0.00  0.00    +0.094 C 
ATOM     15  C   UNL     1      34.419 -17.979 -24.015  0.00  0.00    +0.094 C 
ATOM     16  C   UNL     1      34.776 -17.007 -21.686  0.00  0.00    +0.249 C 
BRANCH  11  18
ATOM     17  O   UNL     1      34.931 -16.574 -26.698  0.00  0.00    -0.250 OA
ATOM     18  C   UNL     1      33.746 -16.280 -26.629  0.00  0.00    +0.317 C 
BRANCH  18  19
ATOM     19  O   UNL     1      32.980 -15.760 -27.630  0.00  0.00    -0.444 OA
ATOM     20  C   UNL     1      31.601 -16.144 -27.609  0.00  0.00    +0.256 C 
ENDBRANCH  18  19
ENDBRANCH  11  18
ENDBRANCH   3  16
ENDBRANCH   1   6
BRANCH   1  21
ATOM     21  C   UNL     1      35.268 -22.504 -18.148  0.00  0.00    +0.145 C 
BRANCH  21  28
ATOM     22  N   UNL     1      34.313 -23.449 -16.113  0.00  0.00    -0.392 NA
ATOM     23  N   UNL     1      31.734 -23.123 -17.065  0.00  0.00    -0.200 NA
ATOM     24  N   UNL     1      30.883 -24.028 -15.111  0.00  0.00    -0.271 NA
ATOM     25  N   UNL     1      32.341 -24.758 -13.352  0.00  0.00    -0.310 NA
ATOM     26  N   UNL     1      34.680 -24.554 -13.615  0.00  0.00    -0.329 N 
ATOM     27  N   UNL     1      30.017 -24.945 -13.132  0.00  0.00    -0.283 N 
ATOM     28  C   UNL     1      34.081 -22.917 -17.323  0.00  0.00    +0.133 C 
ATOM     29  C   UNL     1      32.806 -22.756 -17.793  0.00  0.00    +0.193 C 
ATOM     30  C   UNL     1      33.239 -23.815 -15.386  0.00  0.00    +0.248 C 
ATOM     31  C   UNL     1      31.932 -23.656 -15.853  0.00  0.00    +0.131 C 
ATOM     32  C   UNL     1      33.369 -24.371 -14.129  0.00  0.00    +0.231 C 
ATOM     33  C   UNL     1      31.136 -24.559 -13.900  0.00  0.00    +0.207 C 
ATOM     34  H   UNL     1      34.808 -24.948 -12.722  0.00  0.00    +0.145 HD
ATOM     35  H   UNL     1      35.461 -24.287 -14.151  0.00  0.00    +0.145 HD
ATOM     36  H   UNL     1      29.108 -24.821 -13.489  0.00  0.00    +0.156 HD
ATOM     37  H   UNL     1      30.145 -25.340 -12.239  0.00  0.00    +0.156 HD
ENDBRANCH  21  28
ENDBRANCH   1  21
TORSDOF 6
ENDMDL
