MODEL 1
REMARK VINA RESULT:     -12.7      0.000      0.000
REMARK  Name = 54713659
REMARK  4 active torsions:
REMARK  status: ('A' for Active; 'I' for Inactive)
REMARK    1  A    between atoms: C_14  and  O_30
REMARK    2  A    between atoms: C_15  and  C_19
REMARK    3  A    between atoms: N_18  and  C_21
REMARK    4  A    between atoms: C_21  and  C_24
REMARK                            x       y       z     vdW  Elec       q    Type
REMARK                         _______ _______ _______ _____ _____    ______ ____
ROOT
ATOM      1  O   UNL     1      32.877 -12.043 -24.802  0.00  0.00    -0.334 OA
ATOM      2  O   UNL     1      33.504 -15.787 -27.382  0.00  0.00    -0.268 OA
ATOM      3  O   UNL     1      34.469 -19.419 -23.901  0.00  0.00    -0.283 OA
ATOM      4  N   UNL     1      33.086 -14.007 -25.986  0.00  0.00    -0.251 N 
ATOM      5  N   UNL     1      34.201 -15.371 -23.853  0.00  0.00    -0.275 N 
ATOM      6  C   UNL     1      32.950 -13.468 -24.659  0.00  0.00    +0.215 C 
ATOM      7  C   UNL     1      32.816 -12.986 -26.967  0.00  0.00    +0.107 C 
ATOM      8  C   UNL     1      34.128 -13.905 -23.815  0.00  0.00    +0.147 C 
ATOM      9  C   UNL     1      33.165 -11.734 -26.181  0.00  0.00    +0.164 C 
ATOM     10  C   UNL     1      33.464 -15.306 -26.252  0.00  0.00    +0.268 C 
ATOM     11  C   UNL     1      33.886 -16.086 -25.024  0.00  0.00    +0.143 C 
ATOM     12  C   UNL     1      31.356 -13.014 -27.406  0.00  0.00    +0.024 C 
ATOM     13  C   UNL     1      34.639 -16.076 -22.742  0.00  0.00    +0.074 C 
ATOM     14  C   UNL     1      33.959 -17.432 -25.101  0.00  0.00    +0.191 C 
ATOM     15  C   UNL     1      34.760 -17.408 -22.679  0.00  0.00    +0.110 C 
ATOM     16  C   UNL     1      34.401 -18.194 -23.889  0.00  0.00    +0.236 C 
ENDROOT
BRANCH  15  19
ATOM     17  O   UNL     1      35.188 -17.387 -20.370  0.00  0.00    -0.270 OA
ATOM     18  N   UNL     1      35.709 -19.299 -21.597  0.00  0.00    -0.297 N 
ATOM     19  C   UNL     1      35.232 -18.009 -21.432  0.00  0.00    +0.251 C 
ATOM     20  H   UNL     1      35.692 -19.690 -22.501  0.00  0.00    +0.150 HD
BRANCH  18  21
ATOM     21  C   UNL     1      36.232 -20.101 -20.515  0.00  0.00    +0.119 C 
BRANCH  21  24
ATOM     22  F   UNL     1      36.750 -21.877 -18.374  0.00  0.00    -0.204 F 
ATOM     23  F   UNL     1      32.175 -22.983 -17.880  0.00  0.00    -0.204 F 
ATOM     24  C   UNL     1      35.151 -20.870 -19.811  0.00  0.00    +0.025 C 
ATOM     25  C   UNL     1      35.475 -21.731 -18.762  0.00  0.00    +0.140 C 
ATOM     26  C   UNL     1      33.821 -20.723 -20.208  0.00  0.00    +0.002 C 
ATOM     27  C   UNL     1      34.470 -22.444 -18.110  0.00  0.00    +0.059 C 
ATOM     28  C   UNL     1      32.817 -21.438 -19.556  0.00  0.00    +0.030 C 
ATOM     29  C   UNL     1      33.140 -22.298 -18.506  0.00  0.00    +0.142 C 
ENDBRANCH  21  24
ENDBRANCH  18  21
ENDBRANCH  15  19
BRANCH  14  30
ATOM     30  O   UNL     1      33.641 -18.158 -26.226  0.00  0.00    -0.502 OA
ATOM     31  H   UNL     1      32.894 -18.722 -26.224  0.00  0.00    +0.292 HD
ENDBRANCH  14  30
TORSDOF 4
ENDMDL
MODEL 2
REMARK VINA RESULT:     -11.9      6.341     12.066
REMARK  Name = 54713659
REMARK  4 active torsions:
REMARK  status: ('A' for Active; 'I' for Inactive)
REMARK    1  A    between atoms: C_14  and  O_30
REMARK    2  A    between atoms: C_15  and  C_19
REMARK    3  A    between atoms: N_18  and  C_21
REMARK    4  A    between atoms: C_21  and  C_24
REMARK                            x       y       z     vdW  Elec       q    Type
REMARK                         _______ _______ _______ _____ _____    ______ ____
ROOT
ATOM      1  O   UNL     1      38.261 -24.496 -14.161  0.00  0.00    -0.334 OA
ATOM      2  O   UNL     1      34.321 -24.885 -11.838  0.00  0.00    -0.268 OA
ATOM      3  O   UNL     1      30.789 -23.917 -15.419  0.00  0.00    -0.283 OA
ATOM      4  N   UNL     1      36.224 -24.789 -13.128  0.00  0.00    -0.251 N 
ATOM      5  N   UNL     1      34.822 -23.554 -15.169  0.00  0.00    -0.275 N 
ATOM      6  C   UNL     1      36.854 -24.618 -14.410  0.00  0.00    +0.215 C 
ATOM      7  C   UNL     1      37.217 -25.060 -12.118  0.00  0.00    +0.107 C 
ATOM      8  C   UNL     1      36.279 -23.395 -15.094  0.00  0.00    +0.147 C 
ATOM      9  C   UNL     1      38.438 -24.398 -12.734  0.00  0.00    +0.164 C 
ATOM     10  C   UNL     1      34.867 -24.663 -12.917  0.00  0.00    +0.268 C 
ATOM     11  C   UNL     1      34.101 -24.165 -14.125  0.00  0.00    +0.143 C 
ATOM     12  C   UNL     1      37.403 -26.560 -11.916  0.00  0.00    +0.024 C 
ATOM     13  C   UNL     1      34.120 -23.049 -16.253  0.00  0.00    +0.074 C 
ATOM     14  C   UNL     1      32.759 -24.311 -14.151  0.00  0.00    +0.191 C 
ATOM     15  C   UNL     1      32.793 -23.124 -16.408  0.00  0.00    +0.110 C 
ATOM     16  C   UNL     1      32.008 -23.794 -15.338  0.00  0.00    +0.236 C 
ENDROOT
BRANCH  15  19
ATOM     17  O   UNL     1      30.975 -22.427 -17.723  0.00  0.00    -0.270 OA
ATOM     18  N   UNL     1      33.136 -22.177 -18.560  0.00  0.00    -0.297 N 
ATOM     19  C   UNL     1      32.196 -22.547 -17.613  0.00  0.00    +0.251 C 
ATOM     20  H   UNL     1      34.088 -22.325 -18.355  0.00  0.00    +0.150 HD
BRANCH  18  21
ATOM     21  C   UNL     1      32.795 -21.587 -19.835  0.00  0.00    +0.119 C 
BRANCH  21  24
ATOM     22  F   UNL     1      32.389 -19.602 -21.809  0.00  0.00    -0.204 F 
ATOM     23  F   UNL     1      36.961 -18.380 -21.852  0.00  0.00    -0.204 F 
ATOM     24  C   UNL     1      33.905 -20.731 -20.373  0.00  0.00    +0.025 C 
ATOM     25  C   UNL     1      33.637 -19.770 -21.348  0.00  0.00    +0.140 C 
ATOM     26  C   UNL     1      35.207 -20.898 -19.898  0.00  0.00    +0.002 C 
ATOM     27  C   UNL     1      34.668 -18.975 -21.847  0.00  0.00    +0.059 C 
ATOM     28  C   UNL     1      36.238 -20.105 -20.399  0.00  0.00    +0.030 C 
ATOM     29  C   UNL     1      35.970 -19.142 -21.372  0.00  0.00    +0.142 C 
ENDBRANCH  21  24
ENDBRANCH  18  21
ENDBRANCH  15  19
BRANCH  14  30
ATOM     30  O   UNL     1      32.032 -24.919 -13.154  0.00  0.00    -0.502 OA
ATOM     31  H   UNL     1      32.218 -25.804 -12.910  0.00  0.00    +0.292 HD
ENDBRANCH  14  30
TORSDOF 4
ENDMDL
MODEL 3
REMARK VINA RESULT:     -11.8      1.105      2.511
REMARK  Name = 54713659
REMARK  4 active torsions:
REMARK  status: ('A' for Active; 'I' for Inactive)
REMARK    1  A    between atoms: C_14  and  O_30
REMARK    2  A    between atoms: C_15  and  C_19
REMARK    3  A    between atoms: N_18  and  C_21
REMARK    4  A    between atoms: C_21  and  C_24
REMARK                            x       y       z     vdW  Elec       q    Type
REMARK                         _______ _______ _______ _____ _____    ______ ____
ROOT
ATOM      1  O   UNL     1      33.171 -13.892 -27.917  0.00  0.00    -0.334 OA
ATOM      2  O   UNL     1      32.737 -12.510 -23.561  0.00  0.00    -0.268 OA
ATOM      3  O   UNL     1      34.939 -16.318 -20.936  0.00  0.00    -0.283 OA
ATOM      4  N   UNL     1      33.122 -13.241 -25.709  0.00  0.00    -0.251 N 
ATOM      5  N   UNL     1      33.748 -15.769 -24.775  0.00  0.00    -0.275 N 
ATOM      6  C   UNL     1      33.685 -14.206 -26.616  0.00  0.00    +0.215 C 
ATOM      7  C   UNL     1      32.500 -12.169 -26.446  0.00  0.00    +0.107 C 
ATOM      8  C   UNL     1      33.307 -15.601 -26.165  0.00  0.00    +0.147 C 
ATOM      9  C   UNL     1      32.162 -12.876 -27.747  0.00  0.00    +0.164 C 
ATOM     10  C   UNL     1      33.149 -13.371 -24.336  0.00  0.00    +0.268 C 
ATOM     11  C   UNL     1      33.683 -14.704 -23.856  0.00  0.00    +0.143 C 
ATOM     12  C   UNL     1      33.465 -11.005 -26.646  0.00  0.00    +0.024 C 
ATOM     13  C   UNL     1      34.186 -17.007 -24.328  0.00  0.00    +0.074 C 
ATOM     14  C   UNL     1      34.062 -14.828 -22.567  0.00  0.00    +0.191 C 
ATOM     15  C   UNL     1      34.590 -17.270 -23.079  0.00  0.00    +0.110 C 
ATOM     16  C   UNL     1      34.566 -16.157 -22.094  0.00  0.00    +0.236 C 
ENDROOT
BRANCH  15  19
ATOM     17  O   UNL     1      34.938 -19.538 -23.584  0.00  0.00    -0.270 OA
ATOM     18  N   UNL     1      35.536 -18.746 -21.475  0.00  0.00    -0.297 N 
ATOM     19  C   UNL     1      35.031 -18.628 -22.759  0.00  0.00    +0.251 C 
ATOM     20  H   UNL     1      35.558 -17.941 -20.907  0.00  0.00    +0.150 HD
BRANCH  18  21
ATOM     21  C   UNL     1      36.033 -19.986 -20.923  0.00  0.00    +0.119 C 
BRANCH  21  24
ATOM     22  F   UNL     1      36.647 -21.869 -18.903  0.00  0.00    -0.204 F 
ATOM     23  F   UNL     1      32.083 -22.710 -17.976  0.00  0.00    -0.204 F 
ATOM     24  C   UNL     1      34.981 -20.713 -20.137  0.00  0.00    +0.025 C 
ATOM     25  C   UNL     1      35.352 -21.631 -19.154  0.00  0.00    +0.140 C 
ATOM     26  C   UNL     1      33.630 -20.471 -20.390  0.00  0.00    +0.002 C 
ATOM     27  C   UNL     1      34.374 -22.305 -18.424  0.00  0.00    +0.059 C 
ATOM     28  C   UNL     1      32.652 -21.146 -19.661  0.00  0.00    +0.030 C 
ATOM     29  C   UNL     1      33.023 -22.063 -18.677  0.00  0.00    +0.142 C 
ENDBRANCH  21  24
ENDBRANCH  18  21
ENDBRANCH  15  19
BRANCH  14  30
ATOM     30  O   UNL     1      34.026 -13.801 -21.651  0.00  0.00    -0.502 OA
ATOM     31  H   UNL     1      34.476 -13.884 -20.834  0.00  0.00    +0.292 HD
ENDBRANCH  14  30
TORSDOF 4
ENDMDL
MODEL 4
REMARK VINA RESULT:     -11.2      4.590     10.475
REMARK  Name = 54713659
REMARK  4 active torsions:
REMARK  status: ('A' for Active; 'I' for Inactive)
REMARK    1  A    between atoms: C_14  and  O_30
REMARK    2  A    between atoms: C_15  and  C_19
REMARK    3  A    between atoms: N_18  and  C_21
REMARK    4  A    between atoms: C_21  and  C_24
REMARK                            x       y       z     vdW  Elec       q    Type
REMARK                         _______ _______ _______ _____ _____    ______ ____
ROOT
ATOM      1  O   UNL     1      37.903 -23.602 -14.436  0.00  0.00    -0.334 OA
ATOM      2  O   UNL     1      33.375 -23.703 -15.186  0.00  0.00    -0.268 OA
ATOM      3  O   UNL     1      32.980 -21.973 -19.991  0.00  0.00    -0.283 OA
ATOM      4  N   UNL     1      35.665 -23.729 -14.966  0.00  0.00    -0.251 N 
ATOM      5  N   UNL     1      35.937 -22.146 -17.218  0.00  0.00    -0.275 N 
ATOM      6  C   UNL     1      36.975 -23.523 -15.525  0.00  0.00    +0.215 C 
ATOM      7  C   UNL     1      35.775 -24.215 -13.613  0.00  0.00    +0.107 C 
ATOM      8  C   UNL     1      37.017 -22.180 -16.224  0.00  0.00    +0.147 C 
ATOM      9  C   UNL     1      37.132 -23.659 -13.218  0.00  0.00    +0.164 C 
ATOM     10  C   UNL     1      34.492 -23.453 -15.635  0.00  0.00    +0.268 C 
ATOM     11  C   UNL     1      34.693 -22.754 -16.964  0.00  0.00    +0.143 C 
ATOM     12  C   UNL     1      35.730 -25.739 -13.568  0.00  0.00    +0.024 C 
ATOM     13  C   UNL     1      36.109 -21.459 -18.411  0.00  0.00    +0.074 C 
ATOM     14  C   UNL     1      33.672 -22.727 -17.846  0.00  0.00    +0.191 C 
ATOM     15  C   UNL     1      35.183 -21.351 -19.372  0.00  0.00    +0.110 C 
ATOM     16  C   UNL     1      33.871 -22.012 -19.147  0.00  0.00    +0.236 C 
ENDROOT
BRANCH  15  19
ATOM     17  O   UNL     1      36.685 -20.341 -20.869  0.00  0.00    -0.270 OA
ATOM     18  N   UNL     1      34.400 -20.226 -21.313  0.00  0.00    -0.297 N 
ATOM     19  C   UNL     1      35.516 -20.596 -20.580  0.00  0.00    +0.251 C 
ATOM     20  H   UNL     1      33.513 -20.490 -20.977  0.00  0.00    +0.150 HD
BRANCH  18  21
ATOM     21  C   UNL     1      34.468 -19.471 -22.544  0.00  0.00    +0.119 C 
BRANCH  21  24
ATOM     22  F   UNL     1      34.402 -17.555 -24.624  0.00  0.00    -0.204 F 
ATOM     23  F   UNL     1      34.704 -13.925 -21.604  0.00  0.00    -0.204 F 
ATOM     24  C   UNL     1      34.531 -17.993 -22.295  0.00  0.00    +0.025 C 
ATOM     25  C   UNL     1      34.495 -17.101 -23.367  0.00  0.00    +0.140 C 
ATOM     26  C   UNL     1      34.626 -17.509 -20.989  0.00  0.00    +0.002 C 
ATOM     27  C   UNL     1      34.552 -15.727 -23.134  0.00  0.00    +0.059 C 
ATOM     28  C   UNL     1      34.685 -16.136 -20.757  0.00  0.00    +0.030 C 
ATOM     29  C   UNL     1      34.648 -15.244 -21.828  0.00  0.00    +0.142 C 
ENDBRANCH  21  24
ENDBRANCH  18  21
ENDBRANCH  15  19
BRANCH  14  30
ATOM     30  O   UNL     1      32.452 -23.327 -17.632  0.00  0.00    -0.502 OA
ATOM     31  H   UNL     1      31.826 -23.378 -18.326  0.00  0.00    +0.292 HD
ENDBRANCH  14  30
TORSDOF 4
ENDMDL
MODEL 5
REMARK VINA RESULT:     -11.2      4.376      9.998
REMARK  Name = 54713659
REMARK  4 active torsions:
REMARK  status: ('A' for Active; 'I' for Inactive)
REMARK    1  A    between atoms: C_14  and  O_30
REMARK    2  A    between atoms: C_15  and  C_19
REMARK    3  A    between atoms: N_18  and  C_21
REMARK    4  A    between atoms: C_21  and  C_24
REMARK                            x       y       z     vdW  Elec       q    Type
REMARK                         _______ _______ _______ _____ _____    ______ ____
ROOT
ATOM      1  O   UNL     1      37.676 -23.380 -14.925  0.00  0.00    -0.334 OA
ATOM      2  O   UNL     1      33.345 -23.382 -16.444  0.00  0.00    -0.268 OA
ATOM      3  O   UNL     1      33.703 -20.888 -20.904  0.00  0.00    -0.283 OA
ATOM      4  N   UNL     1      35.565 -23.432 -15.843  0.00  0.00    -0.251 N 
ATOM      5  N   UNL     1      36.157 -21.498 -17.731  0.00  0.00    -0.275 N 
ATOM      6  C   UNL     1      36.942 -23.128 -16.130  0.00  0.00    +0.215 C 
ATOM      7  C   UNL     1      35.462 -24.132 -14.587  0.00  0.00    +0.107 C 
ATOM      8  C   UNL     1      37.055 -21.688 -16.586  0.00  0.00    +0.147 C 
ATOM      9  C   UNL     1      36.715 -23.641 -13.882  0.00  0.00    +0.164 C 
ATOM     10  C   UNL     1      34.512 -23.056 -16.650  0.00  0.00    +0.268 C 
ATOM     11  C   UNL     1      34.909 -22.147 -17.794  0.00  0.00    +0.143 C 
ATOM     12  C   UNL     1      35.463 -25.643 -14.797  0.00  0.00    +0.024 C 
ATOM     13  C   UNL     1      36.503 -20.623 -18.751  0.00  0.00    +0.074 C 
ATOM     14  C   UNL     1      34.050 -21.981 -18.823  0.00  0.00    +0.191 C 
ATOM     15  C   UNL     1      35.749 -20.364 -19.826  0.00  0.00    +0.110 C 
ATOM     16  C   UNL     1      34.440 -21.061 -19.938  0.00  0.00    +0.236 C 
ENDROOT
BRANCH  15  19
ATOM     17  O   UNL     1      37.444 -19.400 -21.135  0.00  0.00    -0.270 OA
ATOM     18  N   UNL     1      35.266 -18.593 -21.335  0.00  0.00    -0.297 N 
ATOM     19  C   UNL     1      36.253 -19.419 -20.822  0.00  0.00    +0.251 C 
ATOM     20  H   UNL     1      34.346 -18.705 -21.003  0.00  0.00    +0.150 HD
BRANCH  18  21
ATOM     21  C   UNL     1      35.515 -17.575 -22.330  0.00  0.00    +0.119 C 
BRANCH  21  24
ATOM     22  F   UNL     1      34.396 -15.406 -23.760  0.00  0.00    -0.204 F 
ATOM     23  F   UNL     1      32.286 -18.257 -26.892  0.00  0.00    -0.204 F 
ATOM     24  C   UNL     1      34.654 -17.756 -23.547  0.00  0.00    +0.025 C 
ATOM     25  C   UNL     1      34.133 -16.642 -24.205  0.00  0.00    +0.140 C 
ATOM     26  C   UNL     1      34.375 -19.039 -24.019  0.00  0.00    +0.002 C 
ATOM     27  C   UNL     1      33.333 -16.811 -25.335  0.00  0.00    +0.059 C 
ATOM     28  C   UNL     1      33.575 -19.207 -25.148  0.00  0.00    +0.030 C 
ATOM     29  C   UNL     1      33.054 -18.094 -25.807  0.00  0.00    +0.142 C 
ENDBRANCH  21  24
ENDBRANCH  18  21
ENDBRANCH  15  19
BRANCH  14  30
ATOM     30  O   UNL     1      32.833 -22.616 -18.919  0.00  0.00    -0.502 OA
ATOM     31  H   UNL     1      32.306 -22.739 -18.154  0.00  0.00    +0.292 HD
ENDBRANCH  14  30
TORSDOF 4
ENDMDL
MODEL 6
REMARK VINA RESULT:     -11.1      5.596      8.596
REMARK  Name = 54713659
REMARK  4 active torsions:
REMARK  status: ('A' for Active; 'I' for Inactive)
REMARK    1  A    between atoms: C_14  and  O_30
REMARK    2  A    between atoms: C_15  and  C_19
REMARK    3  A    between atoms: N_18  and  C_21
REMARK    4  A    between atoms: C_21  and  C_24
REMARK                            x       y       z     vdW  Elec       q    Type
REMARK                         _______ _______ _______ _____ _____    ______ ____
ROOT
ATOM      1  O   UNL     1      32.326  -5.501 -22.311  0.00  0.00    -0.334 OA
ATOM      2  O   UNL     1      30.767  -9.318 -20.291  0.00  0.00    -0.268 OA
ATOM      3  O   UNL     1      32.721 -13.036 -23.222  0.00  0.00    -0.283 OA
ATOM      4  N   UNL     1      31.706  -7.481 -21.309  0.00  0.00    -0.251 N 
ATOM      5  N   UNL     1      32.378  -9.004 -23.519  0.00  0.00    -0.275 N 
ATOM      6  C   UNL     1      32.563  -6.915 -22.318  0.00  0.00    +0.215 C 
ATOM      7  C   UNL     1      31.154  -6.435 -20.484  0.00  0.00    +0.107 C 
ATOM      8  C   UNL     1      32.248  -7.548 -23.657  0.00  0.00    +0.147 C 
ATOM      9  C   UNL     1      31.199  -5.259 -21.444  0.00  0.00    +0.164 C 
ATOM     10  C   UNL     1      31.436  -8.828 -21.199  0.00  0.00    +0.268 C 
ATOM     11  C   UNL     1      31.990  -9.661 -22.336  0.00  0.00    +0.143 C 
ATOM     12  C   UNL     1      32.005  -6.208 -19.239  0.00  0.00    +0.024 C 
ATOM     13  C   UNL     1      32.837  -9.767 -24.583  0.00  0.00    +0.074 C 
ATOM     14  C   UNL     1      32.079 -10.999 -22.180  0.00  0.00    +0.191 C 
ATOM     15  C   UNL     1      32.974 -11.099 -24.566  0.00  0.00    +0.110 C 
ATOM     16  C   UNL     1      32.605 -11.817 -23.319  0.00  0.00    +0.236 C 
ENDROOT
BRANCH  15  19
ATOM     17  O   UNL     1      34.374 -11.260 -26.446  0.00  0.00    -0.270 OA
ATOM     18  N   UNL     1      32.843 -12.967 -26.028  0.00  0.00    -0.297 N 
ATOM     19  C   UNL     1      33.477 -11.764 -25.768  0.00  0.00    +0.251 C 
ATOM     20  H   UNL     1      32.137 -13.266 -25.409  0.00  0.00    +0.150 HD
BRANCH  18  21
ATOM     21  C   UNL     1      33.161 -13.810 -27.159  0.00  0.00    +0.119 C 
BRANCH  21  24
ATOM     22  F   UNL     1      30.845 -15.040 -28.220  0.00  0.00    -0.204 F 
ATOM     23  F   UNL     1      31.851 -19.203 -26.206  0.00  0.00    -0.204 F 
ATOM     24  C   UNL     1      32.811 -15.247 -26.905  0.00  0.00    +0.025 C 
ATOM     25  C   UNL     1      31.652 -15.793 -27.459  0.00  0.00    +0.140 C 
ATOM     26  C   UNL     1      33.645 -16.039 -26.115  0.00  0.00    +0.002 C 
ATOM     27  C   UNL     1      31.328 -17.128 -27.223  0.00  0.00    +0.059 C 
ATOM     28  C   UNL     1      33.320 -17.374 -25.878  0.00  0.00    +0.030 C 
ATOM     29  C   UNL     1      32.162 -17.920 -26.433  0.00  0.00    +0.142 C 
ENDBRANCH  21  24
ENDBRANCH  18  21
ENDBRANCH  15  19
BRANCH  14  30
ATOM     30  O   UNL     1      31.723 -11.665 -21.030  0.00  0.00    -0.502 OA
ATOM     31  H   UNL     1      32.031 -12.537 -20.878  0.00  0.00    +0.292 HD
ENDBRANCH  14  30
TORSDOF 4
ENDMDL
MODEL 7
REMARK VINA RESULT:     -11.0      4.499     10.341
REMARK  Name = 54713659
REMARK  4 active torsions:
REMARK  status: ('A' for Active; 'I' for Inactive)
REMARK    1  A    between atoms: C_14  and  O_30
REMARK    2  A    between atoms: C_15  and  C_19
REMARK    3  A    between atoms: N_18  and  C_21
REMARK    4  A    between atoms: C_21  and  C_24
REMARK                            x       y       z     vdW  Elec       q    Type
REMARK                         _______ _______ _______ _____ _____    ______ ____
ROOT
ATOM      1  O   UNL     1      31.249 -23.843 -14.701  0.00  0.00    -0.334 OA
ATOM      2  O   UNL     1      35.708 -24.161 -15.746  0.00  0.00    -0.268 OA
ATOM      3  O   UNL     1      36.174 -20.969 -19.725  0.00  0.00    -0.283 OA
ATOM      4  N   UNL     1      33.490 -23.828 -15.234  0.00  0.00    -0.251 N 
ATOM      5  N   UNL     1      33.073 -22.595 -17.675  0.00  0.00    -0.275 N 
ATOM      6  C   UNL     1      32.240 -23.157 -15.478  0.00  0.00    +0.215 C 
ATOM      7  C   UNL     1      33.360 -24.728 -14.115  0.00  0.00    +0.107 C 
ATOM      8  C   UNL     1      31.935 -23.187 -16.961  0.00  0.00    +0.147 C 
ATOM      9  C   UNL     1      31.871 -25.025 -14.158  0.00  0.00    +0.164 C 
ATOM     10  C   UNL     1      34.621 -23.648 -16.002  0.00  0.00    +0.268 C 
ATOM     11  C   UNL     1      34.395 -22.801 -17.237  0.00  0.00    +0.143 C 
ATOM     12  C   UNL     1      33.784 -24.055 -12.814  0.00  0.00    +0.024 C 
ATOM     13  C   UNL     1      32.864 -21.865 -18.836  0.00  0.00    +0.074 C 
ATOM     14  C   UNL     1      35.466 -22.288 -17.879  0.00  0.00    +0.191 C 
ATOM     15  C   UNL     1      33.831 -21.301 -19.570  0.00  0.00    +0.110 C 
ATOM     16  C   UNL     1      35.236 -21.472 -19.114  0.00  0.00    +0.236 C 
ENDROOT
BRANCH  15  19
ATOM     17  O   UNL     1      32.271 -20.319 -21.026  0.00  0.00    -0.270 OA
ATOM     18  N   UNL     1      34.540 -20.171 -21.536  0.00  0.00    -0.297 N 
ATOM     19  C   UNL     1      33.453 -20.554 -20.770  0.00  0.00    +0.251 C 
ATOM     20  H   UNL     1      35.441 -20.420 -21.225  0.00  0.00    +0.150 HD
BRANCH  18  21
ATOM     21  C   UNL     1      34.425 -19.425 -22.769  0.00  0.00    +0.119 C 
BRANCH  21  24
ATOM     22  F   UNL     1      34.328 -17.534 -24.871  0.00  0.00    -0.204 F 
ATOM     23  F   UNL     1      34.680 -13.868 -21.899  0.00  0.00    -0.204 F 
ATOM     24  C   UNL     1      34.493 -17.943 -22.539  0.00  0.00    +0.025 C 
ATOM     25  C   UNL     1      34.441 -17.064 -23.620  0.00  0.00    +0.140 C 
ATOM     26  C   UNL     1      34.609 -17.445 -21.240  0.00  0.00    +0.002 C 
ATOM     27  C   UNL     1      34.503 -15.688 -23.405  0.00  0.00    +0.059 C 
ATOM     28  C   UNL     1      34.673 -16.069 -21.025  0.00  0.00    +0.030 C 
ATOM     29  C   UNL     1      34.619 -15.189 -22.107  0.00  0.00    +0.142 C 
ENDBRANCH  21  24
ENDBRANCH  18  21
ENDBRANCH  15  19
BRANCH  14  30
ATOM     30  O   UNL     1      36.767 -22.458 -17.464  0.00  0.00    -0.502 OA
ATOM     31  H   UNL     1      37.472 -22.117 -17.978  0.00  0.00    +0.292 HD
ENDBRANCH  14  30
TORSDOF 4
ENDMDL
MODEL 8
REMARK VINA RESULT:     -11.0      5.403      9.449
REMARK  Name = 54713659
REMARK  4 active torsions:
REMARK  status: ('A' for Active; 'I' for Inactive)
REMARK    1  A    between atoms: C_14  and  O_30
REMARK    2  A    between atoms: C_15  and  C_19
REMARK    3  A    between atoms: N_18  and  C_21
REMARK    4  A    between atoms: C_21  and  C_24
REMARK                            x       y       z     vdW  Elec       q    Type
REMARK                         _______ _______ _______ _____ _____    ______ ____
ROOT
ATOM      1  O   UNL     1      35.230 -17.342 -21.781  0.00  0.00    -0.334 OA
ATOM      2  O   UNL     1      32.504 -17.149 -25.469  0.00  0.00    -0.268 OA
ATOM      3  O   UNL     1      32.782 -12.220 -26.833  0.00  0.00    -0.283 OA
ATOM      4  N   UNL     1      33.988 -17.154 -23.712  0.00  0.00    -0.251 N 
ATOM      5  N   UNL     1      33.923 -14.391 -23.601  0.00  0.00    -0.275 N 
ATOM      6  C   UNL     1      34.931 -16.462 -22.873  0.00  0.00    +0.215 C 
ATOM      7  C   UNL     1      33.908 -18.542 -23.328  0.00  0.00    +0.107 C 
ATOM      8  C   UNL     1      34.328 -15.152 -22.413  0.00  0.00    +0.147 C 
ATOM      9  C   UNL     1      34.324 -18.460 -21.870  0.00  0.00    +0.164 C 
ATOM     10  C   UNL     1      33.250 -16.544 -24.703  0.00  0.00    +0.268 C 
ATOM     11  C   UNL     1      33.393 -15.036 -24.734  0.00  0.00    +0.143 C 
ATOM     12  C   UNL     1      34.855 -19.400 -24.160  0.00  0.00    +0.024 C 
ATOM     13  C   UNL     1      34.007 -13.006 -23.604  0.00  0.00    +0.074 C 
ATOM     14  C   UNL     1      32.994 -14.367 -25.837  0.00  0.00    +0.191 C 
ATOM     15  C   UNL     1      33.647 -12.219 -24.626  0.00  0.00    +0.110 C 
ATOM     16  C   UNL     1      33.115 -12.874 -25.850  0.00  0.00    +0.236 C 
ENDROOT
BRANCH  15  19
ATOM     17  O   UNL     1      34.913 -10.258 -24.363  0.00  0.00    -0.270 OA
ATOM     18  N   UNL     1      32.591 -10.096 -24.489  0.00  0.00    -0.297 N 
ATOM     19  C   UNL     1      33.799 -10.772 -24.480  0.00  0.00    +0.251 C 
ATOM     20  H   UNL     1      31.763 -10.621 -24.589  0.00  0.00    +0.150 HD
BRANCH  18  21
ATOM     21  C   UNL     1      32.478  -8.660 -24.358  0.00  0.00    +0.119 C 
BRANCH  21  24
ATOM     22  F   UNL     1      32.710  -5.991 -23.448  0.00  0.00    -0.204 F 
ATOM     23  F   UNL     1      31.296  -7.114 -19.074  0.00  0.00    -0.204 F 
ATOM     24  C   UNL     1      32.163  -8.247 -22.950  0.00  0.00    +0.025 C 
ATOM     25  C   UNL     1      32.300  -6.913 -22.565  0.00  0.00    +0.140 C 
ATOM     26  C   UNL     1      31.734  -9.199 -22.023  0.00  0.00    +0.002 C 
ATOM     27  C   UNL     1      32.007  -6.530 -21.257  0.00  0.00    +0.059 C 
ATOM     28  C   UNL     1      31.443  -8.815 -20.715  0.00  0.00    +0.030 C 
ATOM     29  C   UNL     1      31.578  -7.481 -20.331  0.00  0.00    +0.142 C 
ENDBRANCH  21  24
ENDBRANCH  18  21
ENDBRANCH  15  19
BRANCH  14  30
ATOM     30  O   UNL     1      32.488 -14.973 -26.964  0.00  0.00    -0.502 OA
ATOM     31  H   UNL     1      31.562 -15.072 -27.068  0.00  0.00    +0.292 HD
ENDBRANCH  14  30
TORSDOF 4
ENDMDL
MODEL 9
REMARK VINA RESULT:     -10.8      3.756      6.402
REMARK  Name = 54713659
REMARK  4 active torsions:
REMARK  status: ('A' for Active; 'I' for Inactive)
REMARK    1  A    between atoms: C_14  and  O_30
REMARK    2  A    between atoms: C_15  and  C_19
REMARK    3  A    between atoms: N_18  and  C_21
REMARK    4  A    between atoms: C_21  and  C_24
REMARK                            x       y       z     vdW  Elec       q    Type
REMARK                         _______ _______ _______ _____ _____    ______ ____
ROOT
ATOM      1  O   UNL     1      30.768  -9.710 -20.416  0.00  0.00    -0.334 OA
ATOM      2  O   UNL     1      33.717  -8.018 -23.500  0.00  0.00    -0.268 OA
ATOM      3  O   UNL     1      34.071 -11.804 -26.932  0.00  0.00    -0.283 OA
ATOM      4  N   UNL     1      32.137  -8.914 -22.088  0.00  0.00    -0.251 N 
ATOM      5  N   UNL     1      32.502 -11.417 -23.211  0.00  0.00    -0.275 N 
ATOM      6  C   UNL     1      31.228  -9.977 -21.747  0.00  0.00    +0.215 C 
ATOM      7  C   UNL     1      32.040  -7.849 -21.122  0.00  0.00    +0.107 C 
ATOM      8  C   UNL     1      31.944 -11.306 -21.857  0.00  0.00    +0.147 C 
ATOM      9  C   UNL     1      31.548  -8.611 -19.904  0.00  0.00    +0.164 C 
ATOM     10  C   UNL     1      32.997  -8.956 -23.165  0.00  0.00    +0.268 C 
ATOM     11  C   UNL     1      33.025 -10.292 -23.877  0.00  0.00    +0.143 C 
ATOM     12  C   UNL     1      31.055  -6.778 -21.580  0.00  0.00    +0.024 C 
ATOM     13  C   UNL     1      32.573 -12.653 -23.836  0.00  0.00    +0.074 C 
ATOM     14  C   UNL     1      33.562 -10.361 -25.114  0.00  0.00    +0.191 C 
ATOM     15  C   UNL     1      33.079 -12.864 -25.058  0.00  0.00    +0.110 C 
ATOM     16  C   UNL     1      33.608 -11.691 -25.801  0.00  0.00    +0.236 C 
ENDROOT
BRANCH  15  19
ATOM     17  O   UNL     1      32.588 -14.484 -26.687  0.00  0.00    -0.270 OA
ATOM     18  N   UNL     1      33.673 -15.142 -24.731  0.00  0.00    -0.297 N 
ATOM     19  C   UNL     1      33.080 -14.228 -25.587  0.00  0.00    +0.251 C 
ATOM     20  H   UNL     1      34.032 -14.814 -23.875  0.00  0.00    +0.150 HD
BRANCH  18  21
ATOM     21  C   UNL     1      33.794 -16.551 -25.028  0.00  0.00    +0.119 C 
BRANCH  21  24
ATOM     22  F   UNL     1      33.922 -19.377 -25.004  0.00  0.00    -0.204 F 
ATOM     23  F   UNL     1      35.578 -19.496 -20.572  0.00  0.00    -0.204 F 
ATOM     24  C   UNL     1      34.270 -17.337 -23.841  0.00  0.00    +0.025 C 
ATOM     25  C   UNL     1      34.307 -18.731 -23.895  0.00  0.00    +0.140 C 
ATOM     26  C   UNL     1      34.673 -16.673 -22.682  0.00  0.00    +0.002 C 
ATOM     27  C   UNL     1      34.750 -19.460 -22.792  0.00  0.00    +0.059 C 
ATOM     28  C   UNL     1      35.114 -17.403 -21.579  0.00  0.00    +0.030 C 
ATOM     29  C   UNL     1      35.153 -18.796 -21.633  0.00  0.00    +0.142 C 
ENDBRANCH  21  24
ENDBRANCH  18  21
ENDBRANCH  15  19
BRANCH  14  30
ATOM     30  O   UNL     1      34.065  -9.276 -25.796  0.00  0.00    -0.502 OA
ATOM     31  H   UNL     1      34.964  -9.262 -26.058  0.00  0.00    +0.292 HD
ENDBRANCH  14  30
TORSDOF 4
ENDMDL
