MODEL 1
REMARK VINA RESULT:     -13.1      0.000      0.000
REMARK  Name = 59473233
REMARK  3 active torsions:
REMARK  status: ('A' for Active; 'I' for Inactive)
REMARK    1  A    between atoms: N_1  and  C_25
REMARK    2  A    between atoms: C_7  and  C_14
REMARK    3  A    between atoms: C_22  and  N_29
REMARK                            x       y       z     vdW  Elec       q    Type
REMARK                         _______ _______ _______ _____ _____    ______ ____
ROOT
ATOM      1  N   UNL     1      36.237 -22.943 -16.460  0.00  0.00    -0.286 N 
ATOM      2  N   UNL     1      35.022 -23.805 -13.072  0.00  0.00    -0.260 N 
ATOM      3  N   UNL     1      34.099 -23.430 -15.655  0.00  0.00    -0.387 NA
ATOM      4  N   UNL     1      37.127 -23.373 -13.666  0.00  0.00    -0.224 NA
ATOM      5  C   UNL     1      35.389 -23.280 -15.430  0.00  0.00    +0.216 C 
ATOM      6  C   UNL     1      35.887 -23.476 -14.083  0.00  0.00    +0.180 C 
ATOM      7  C   UNL     1      33.248 -23.772 -14.604  0.00  0.00    +0.131 C 
ATOM      8  C   UNL     1      33.675 -23.955 -13.335  0.00  0.00    +0.156 C 
ATOM      9  C   UNL     1      35.761 -23.920 -11.929  0.00  0.00    +0.088 C 
ATOM     10  C   UNL     1      37.055 -23.649 -12.321  0.00  0.00    +0.117 C 
ATOM     11  H   UNL     1      37.163 -23.270 -16.394  0.00  0.00    +0.155 HD
ENDROOT
BRANCH   7  14
ATOM     12  N   UNL     1      29.039 -22.672 -17.061  0.00  0.00    -0.236 N 
ATOM     13  N   UNL     1      27.773 -23.117 -17.013  0.00  0.00    -0.180 NA
ATOM     14  C   UNL     1      31.809 -23.913 -14.919  0.00  0.00    +0.028 C 
ATOM     15  C   UNL     1      29.883 -23.282 -16.172  0.00  0.00    +0.067 C 
ATOM     16  C   UNL     1      31.244 -23.108 -15.914  0.00  0.00    +0.018 C 
ATOM     17  C   UNL     1      29.094 -24.202 -15.491  0.00  0.00    +0.035 C 
ATOM     18  C   UNL     1      31.039 -24.844 -14.219  0.00  0.00    +0.002 C 
ATOM     19  C   UNL     1      29.675 -25.003 -14.493  0.00  0.00    +0.003 C 
ATOM     20  C   UNL     1      27.809 -24.047 -16.057  0.00  0.00    +0.119 C 
ATOM     21  H   UNL     1      29.335 -21.967 -17.681  0.00  0.00    +0.174 HD
ENDBRANCH   7  14
BRANCH   1  25
ATOM     22  C   UNL     1      35.286 -20.682 -19.847  0.00  0.00    +0.048 C 
ATOM     23  C   UNL     1      36.512 -20.497 -19.206  0.00  0.00    +0.016 C 
ATOM     24  C   UNL     1      34.379 -21.621 -19.357  0.00  0.00    +0.016 C 
ATOM     25  C   UNL     1      35.920 -22.189 -17.586  0.00  0.00    +0.050 C 
ATOM     26  C   UNL     1      36.829 -21.251 -18.075  0.00  0.00    +0.016 C 
ATOM     27  C   UNL     1      34.694 -22.374 -18.227  0.00  0.00    +0.016 C 
BRANCH  22  29
ATOM     28  O   UNL     1      34.305 -18.187 -23.085  0.00  0.00    -0.350 OA
ATOM     29  N   UNL     1      34.969 -19.926 -20.980  0.00  0.00    -0.303 N 
ATOM     30  C   UNL     1      35.897 -18.861 -21.385  0.00  0.00    +0.123 C 
ATOM     31  C   UNL     1      33.564 -19.700 -21.339  0.00  0.00    +0.123 C 
ATOM     32  C   UNL     1      35.674 -18.515 -22.852  0.00  0.00    +0.164 C 
ATOM     33  C   UNL     1      33.466 -19.308 -22.809  0.00  0.00    +0.164 C 
ENDBRANCH  22  29
ENDBRANCH   1  25
TORSDOF 3
ENDMDL
MODEL 2
REMARK VINA RESULT:     -12.3      6.275     11.878
REMARK  Name = 59473233
REMARK  3 active torsions:
REMARK  status: ('A' for Active; 'I' for Inactive)
REMARK    1  A    between atoms: N_1  and  C_25
REMARK    2  A    between atoms: C_7  and  C_14
REMARK    3  A    between atoms: C_22  and  N_29
REMARK                            x       y       z     vdW  Elec       q    Type
REMARK                         _______ _______ _______ _____ _____    ______ ____
ROOT
ATOM      1  N   UNL     1      34.499 -16.200 -24.651  0.00  0.00    -0.286 N 
ATOM      2  N   UNL     1      32.725 -13.236 -25.979  0.00  0.00    -0.260 N 
ATOM      3  N   UNL     1      33.435 -14.418 -23.578  0.00  0.00    -0.387 NA
ATOM      4  N   UNL     1      33.697 -14.854 -27.166  0.00  0.00    -0.224 NA
ATOM      5  C   UNL     1      33.795 -15.019 -24.696  0.00  0.00    +0.216 C 
ATOM      6  C   UNL     1      33.432 -14.410 -25.960  0.00  0.00    +0.180 C 
ATOM      7  C   UNL     1      32.723 -13.220 -23.635  0.00  0.00    +0.131 C 
ATOM      8  C   UNL     1      32.361 -12.628 -24.795  0.00  0.00    +0.156 C 
ATOM      9  C   UNL     1      32.524 -12.906 -27.290  0.00  0.00    +0.088 C 
ATOM     10  C   UNL     1      33.132 -13.918 -28.002  0.00  0.00    +0.117 C 
ATOM     11  H   UNL     1      35.115 -16.375 -25.399  0.00  0.00    +0.155 HD
ENDROOT
BRANCH   7  14
ATOM     12  N   UNL     1      31.186  -9.473 -20.709  0.00  0.00    -0.236 N 
ATOM     13  N   UNL     1      30.935  -9.341 -19.396  0.00  0.00    -0.180 NA
ATOM     14  C   UNL     1      32.339 -12.602 -22.346  0.00  0.00    +0.028 C 
ATOM     15  C   UNL     1      31.602 -10.725 -21.078  0.00  0.00    +0.067 C 
ATOM     16  C   UNL     1      31.954 -11.257 -22.319  0.00  0.00    +0.018 C 
ATOM     17  C   UNL     1      31.620 -11.466 -19.902  0.00  0.00    +0.035 C 
ATOM     18  C   UNL     1      32.368 -13.369 -21.179  0.00  0.00    +0.002 C 
ATOM     19  C   UNL     1      32.009 -12.815 -19.944  0.00  0.00    +0.003 C 
ATOM     20  C   UNL     1      31.201 -10.554 -18.908  0.00  0.00    +0.119 C 
ATOM     21  H   UNL     1      31.081  -8.734 -21.350  0.00  0.00    +0.174 HD
ENDBRANCH   7  14
BRANCH   1  25
ATOM     22  C   UNL     1      34.296 -19.125 -21.669  0.00  0.00    +0.048 C 
ATOM     23  C   UNL     1      33.739 -19.369 -22.925  0.00  0.00    +0.016 C 
ATOM     24  C   UNL     1      34.919 -17.905 -21.409  0.00  0.00    +0.016 C 
ATOM     25  C   UNL     1      34.430 -17.173 -23.658  0.00  0.00    +0.050 C 
ATOM     26  C   UNL     1      33.806 -18.393 -23.920  0.00  0.00    +0.016 C 
ATOM     27  C   UNL     1      34.986 -16.929 -22.402  0.00  0.00    +0.016 C 
BRANCH  22  29
ATOM     28  O   UNL     1      34.140 -22.259 -18.871  0.00  0.00    -0.350 OA
ATOM     29  N   UNL     1      34.228 -20.104 -20.673  0.00  0.00    -0.303 N 
ATOM     30  C   UNL     1      35.446 -20.866 -20.365  0.00  0.00    +0.123 C 
ATOM     31  C   UNL     1      32.968 -20.816 -20.430  0.00  0.00    +0.123 C 
ATOM     32  C   UNL     1      35.332 -21.481 -18.976  0.00  0.00    +0.164 C 
ATOM     33  C   UNL     1      32.986 -21.435 -19.037  0.00  0.00    +0.164 C 
ENDBRANCH  22  29
ENDBRANCH   1  25
TORSDOF 3
ENDMDL
MODEL 3
REMARK VINA RESULT:     -11.9      1.267      1.809
REMARK  Name = 59473233
REMARK  3 active torsions:
REMARK  status: ('A' for Active; 'I' for Inactive)
REMARK    1  A    between atoms: N_1  and  C_25
REMARK    2  A    between atoms: C_7  and  C_14
REMARK    3  A    between atoms: C_22  and  N_29
REMARK                            x       y       z     vdW  Elec       q    Type
REMARK                         _______ _______ _______ _____ _____    ______ ____
ROOT
ATOM      1  N   UNL     1      36.407 -22.522 -17.491  0.00  0.00    -0.286 N 
ATOM      2  N   UNL     1      35.494 -23.656 -14.088  0.00  0.00    -0.260 N 
ATOM      3  N   UNL     1      34.345 -23.063 -16.536  0.00  0.00    -0.387 NA
ATOM      4  N   UNL     1      37.542 -23.186 -14.834  0.00  0.00    -0.224 NA
ATOM      5  C   UNL     1      35.652 -22.939 -16.419  0.00  0.00    +0.216 C 
ATOM      6  C   UNL     1      36.267 -23.249 -15.143  0.00  0.00    +0.180 C 
ATOM      7  C   UNL     1      33.588 -23.487 -15.443  0.00  0.00    +0.131 C 
ATOM      8  C   UNL     1      34.127 -23.776 -14.238  0.00  0.00    +0.156 C 
ATOM      9  C   UNL     1      36.332 -23.868 -13.030  0.00  0.00    +0.088 C 
ATOM     10  C   UNL     1      37.589 -23.572 -13.515  0.00  0.00    +0.117 C 
ATOM     11  H   UNL     1      37.332 -22.858 -17.536  0.00  0.00    +0.155 HD
ENDROOT
BRANCH   7  14
ATOM     12  N   UNL     1      29.039 -25.331 -14.515  0.00  0.00    -0.236 N 
ATOM     13  N   UNL     1      27.808 -25.100 -15.001  0.00  0.00    -0.180 NA
ATOM     14  C   UNL     1      32.125 -23.594 -15.636  0.00  0.00    +0.028 C 
ATOM     15  C   UNL     1      30.021 -24.567 -15.087  0.00  0.00    +0.067 C 
ATOM     16  C   UNL     1      31.398 -24.507 -14.865  0.00  0.00    +0.018 C 
ATOM     17  C   UNL     1      29.368 -23.772 -16.022  0.00  0.00    +0.035 C 
ATOM     18  C   UNL     1      31.495 -22.785 -16.584  0.00  0.00    +0.002 C 
ATOM     19  C   UNL     1      30.112 -22.861 -16.791  0.00  0.00    +0.003 C 
ATOM     20  C   UNL     1      28.012 -24.152 -15.918  0.00  0.00    +0.119 C 
ATOM     21  H   UNL     1      29.219 -25.993 -13.809  0.00  0.00    +0.174 HD
ENDBRANCH   7  14
BRANCH   1  25
ATOM     22  C   UNL     1      35.180 -19.976 -20.572  0.00  0.00    +0.048 C 
ATOM     23  C   UNL     1      34.288 -20.907 -20.039  0.00  0.00    +0.016 C 
ATOM     24  C   UNL     1      36.481 -19.895 -20.077  0.00  0.00    +0.016 C 
ATOM     25  C   UNL     1      35.999 -21.676 -18.518  0.00  0.00    +0.050 C 
ATOM     26  C   UNL     1      34.697 -21.757 -19.012  0.00  0.00    +0.016 C 
ATOM     27  C   UNL     1      36.891 -20.745 -19.050  0.00  0.00    +0.016 C 
BRANCH  22  29
ATOM     28  O   UNL     1      33.753 -17.311 -23.494  0.00  0.00    -0.350 OA
ATOM     29  N   UNL     1      34.769 -19.124 -21.602  0.00  0.00    -0.303 N 
ATOM     30  C   UNL     1      34.970 -17.679 -21.428  0.00  0.00    +0.123 C 
ATOM     31  C   UNL     1      33.634 -19.499 -22.453  0.00  0.00    +0.123 C 
ATOM     32  C   UNL     1      34.951 -16.990 -22.788  0.00  0.00    +0.164 C 
ATOM     33  C   UNL     1      33.685 -18.711 -23.757  0.00  0.00    +0.164 C 
ENDBRANCH  22  29
ENDBRANCH   1  25
TORSDOF 3
ENDMDL
