MODEL 1
REMARK VINA RESULT:     -11.8      0.000      0.000
REMARK  Name = 68488178
REMARK  9 active torsions:
REMARK  status: ('A' for Active; 'I' for Inactive)
REMARK    1  A    between atoms: N_1  and  C_10
REMARK    2  A    between atoms: N_2  and  C_29
REMARK    3  A    between atoms: C_10  and  C_11
REMARK    4  A    between atoms: C_16  and  O_17
REMARK    5  A    between atoms: O_17  and  C_18
REMARK    6  A    between atoms: C_23  and  C_26
REMARK    7  A    between atoms: C_29  and  C_30
REMARK    8  A    between atoms: C_35  and  C_37
REMARK    9  A    between atoms: C_37  and  O_38
REMARK                            x       y       z     vdW  Elec       q    Type
REMARK                         _______ _______ _______ _____ _____    ______ ____
ROOT
ATOM      1  N   UNL     1      33.541 -12.455 -24.185  0.00  0.00    +0.388 N 
ATOM      2  N   UNL     1      34.208  -9.733 -24.160  0.00  0.00    +0.388 N 
ATOM      3  C   UNL     1      33.949 -11.722 -25.408  0.00  0.00    -0.081 C 
ATOM      4  C   UNL     1      32.812 -10.211 -24.308  0.00  0.00    -0.081 C 
ATOM      5  C   UNL     1      32.772 -10.809 -25.703  0.00  0.00    -0.046 C 
ATOM      6  C   UNL     1      32.696 -11.482 -23.447  0.00  0.00    -0.098 C 
ATOM      7  C   UNL     1      35.005 -10.694 -24.964  0.00  0.00    -0.098 C 
ATOM      8  H   UNL     1      34.346 -12.764 -23.639  0.00  0.00    -0.079 HD
ATOM      9  H   UNL     1      34.501  -9.706 -23.182  0.00  0.00    -0.079 HD
ENDROOT
BRANCH   1  10
ATOM     10  C   UNL     1      32.825 -13.689 -24.482  0.00  0.00    -0.050 C 
BRANCH  10  11
ATOM     11  C   UNL     1      33.606 -14.906 -24.064  0.00  0.00    -0.043 C 
ATOM     12  C   UNL     1      34.196 -14.956 -22.801  0.00  0.00    -0.003 C 
ATOM     13  C   UNL     1      33.741 -15.983 -24.940  0.00  0.00    -0.003 C 
ATOM     14  C   UNL     1      34.920 -16.083 -22.413  0.00  0.00    +0.037 C 
ATOM     15  C   UNL     1      34.466 -17.111 -24.553  0.00  0.00    +0.037 C 
ATOM     16  C   UNL     1      35.055 -17.160 -23.289  0.00  0.00    +0.145 C 
BRANCH  16  17
ATOM     17  O   UNL     1      35.763 -18.260 -22.911  0.00  0.00    -0.453 OA
BRANCH  17  18
ATOM     18  C   UNL     1      35.195 -19.098 -21.966  0.00  0.00    +0.145 C 
ATOM     19  C   UNL     1      36.004 -19.745 -21.032  0.00  0.00    +0.038 C 
ATOM     20  C   UNL     1      33.814 -19.294 -21.948  0.00  0.00    +0.038 C 
ATOM     21  C   UNL     1      35.432 -20.591 -20.082  0.00  0.00    +0.008 C 
ATOM     22  C   UNL     1      33.242 -20.140 -20.998  0.00  0.00    +0.008 C 
ATOM     23  C   UNL     1      34.051 -20.789 -20.064  0.00  0.00    +0.054 C 
BRANCH  23  26
ATOM     24  O   UNL     1      34.340 -22.446 -18.398  0.00  0.00    -0.431 OA
ATOM     25  N   UNL     1      32.197 -21.816 -18.753  0.00  0.00    -0.206 NA
ATOM     26  C   UNL     1      33.460 -21.664 -19.082  0.00  0.00    +0.230 C 
ATOM     27  C   UNL     1      33.544 -23.160 -17.555  0.00  0.00    +0.202 C 
ATOM     28  C   UNL     1      32.245 -22.774 -17.773  0.00  0.00    +0.143 C 
ENDBRANCH  23  26
ENDBRANCH  17  18
ENDBRANCH  16  17
ENDBRANCH  10  11
ENDBRANCH   1  10
BRANCH   2  29
ATOM     29  C   UNL     1      34.383  -8.359 -24.616  0.00  0.00    -0.050 C 
BRANCH  29  30
ATOM     30  C   UNL     1      33.391  -7.426 -23.975  0.00  0.00    -0.043 C 
ATOM     31  C   UNL     1      32.649  -6.547 -24.766  0.00  0.00    -0.006 C 
ATOM     32  C   UNL     1      33.212  -7.439 -22.592  0.00  0.00    -0.006 C 
ATOM     33  C   UNL     1      31.731  -5.682 -24.173  0.00  0.00    +0.006 C 
ATOM     34  C   UNL     1      32.294  -6.573 -21.999  0.00  0.00    +0.006 C 
ATOM     35  C   UNL     1      31.551  -5.695 -22.789  0.00  0.00    +0.075 C 
BRANCH  35  37
ATOM     36  O   UNL     1      29.730  -4.145 -22.771  0.00  0.00    -0.245 OA
ATOM     37  C   UNL     1      30.593  -4.794 -22.172  0.00  0.00    +0.338 C 
BRANCH  37  38
ATOM     38  O   UNL     1      30.738  -4.727 -20.820  0.00  0.00    -0.477 OA
ATOM     39  H   UNL     1      31.175  -5.417 -20.360  0.00  0.00    +0.295 HD
ENDBRANCH  37  38
ENDBRANCH  35  37
ENDBRANCH  29  30
ENDBRANCH   2  29
TORSDOF 9
ENDMDL
MODEL 2
REMARK VINA RESULT:     -11.3      4.623     14.773
REMARK  Name = 68488178
REMARK  9 active torsions:
REMARK  status: ('A' for Active; 'I' for Inactive)
REMARK    1  A    between atoms: N_1  and  C_10
REMARK    2  A    between atoms: N_2  and  C_29
REMARK    3  A    between atoms: C_10  and  C_11
REMARK    4  A    between atoms: C_16  and  O_17
REMARK    5  A    between atoms: O_17  and  C_18
REMARK    6  A    between atoms: C_23  and  C_26
REMARK    7  A    between atoms: C_29  and  C_30
REMARK    8  A    between atoms: C_35  and  C_37
REMARK    9  A    between atoms: C_37  and  O_38
REMARK                            x       y       z     vdW  Elec       q    Type
REMARK                         _______ _______ _______ _____ _____    ______ ____
ROOT
ATOM      1  N   UNL     1      32.525 -23.616 -16.739  0.00  0.00    +0.388 N 
ATOM      2  N   UNL     1      33.743 -24.852 -14.539  0.00  0.00    +0.388 N 
ATOM      3  C   UNL     1      33.805 -23.138 -16.164  0.00  0.00    -0.081 C 
ATOM      4  C   UNL     1      32.707 -23.801 -14.392  0.00  0.00    -0.081 C 
ATOM      5  C   UNL     1      33.408 -22.528 -14.832  0.00  0.00    -0.046 C 
ATOM      6  C   UNL     1      31.718 -24.001 -15.555  0.00  0.00    -0.098 C 
ATOM      7  C   UNL     1      34.561 -24.393 -15.690  0.00  0.00    -0.098 C 
ATOM      8  H   UNL     1      32.665 -24.393 -17.386  0.00  0.00    -0.079 HD
ATOM      9  H   UNL     1      33.332 -25.774 -14.697  0.00  0.00    -0.079 HD
ENDROOT
BRANCH   1  10
ATOM     10  C   UNL     1      31.861 -22.602 -17.550  0.00  0.00    -0.050 C 
BRANCH  10  11
ATOM     11  C   UNL     1      32.796 -21.988 -18.557  0.00  0.00    -0.043 C 
ATOM     12  C   UNL     1      34.134 -22.381 -18.596  0.00  0.00    -0.003 C 
ATOM     13  C   UNL     1      32.325 -21.025 -19.450  0.00  0.00    -0.003 C 
ATOM     14  C   UNL     1      35.001 -21.812 -19.529  0.00  0.00    +0.037 C 
ATOM     15  C   UNL     1      33.192 -20.456 -20.383  0.00  0.00    +0.037 C 
ATOM     16  C   UNL     1      34.530 -20.849 -20.422  0.00  0.00    +0.145 C 
BRANCH  16  17
ATOM     17  O   UNL     1      35.377 -20.293 -21.332  0.00  0.00    -0.453 OA
BRANCH  17  18
ATOM     18  C   UNL     1      35.060 -19.037 -21.822  0.00  0.00    +0.145 C 
ATOM     19  C   UNL     1      34.579 -18.897 -23.124  0.00  0.00    +0.038 C 
ATOM     20  C   UNL     1      35.223 -17.912 -21.014  0.00  0.00    +0.038 C 
ATOM     21  C   UNL     1      34.263 -17.632 -23.618  0.00  0.00    +0.008 C 
ATOM     22  C   UNL     1      34.907 -16.646 -21.508  0.00  0.00    +0.008 C 
ATOM     23  C   UNL     1      34.426 -16.506 -22.811  0.00  0.00    +0.054 C 
BRANCH  23  26
ATOM     24  O   UNL     1      33.513 -15.186 -24.551  0.00  0.00    -0.431 OA
ATOM     25  N   UNL     1      34.287 -14.018 -22.775  0.00  0.00    -0.206 NA
ATOM     26  C   UNL     1      34.100 -15.198 -23.323  0.00  0.00    +0.230 C 
ATOM     27  C   UNL     1      33.314 -13.861 -24.796  0.00  0.00    +0.202 C 
ATOM     28  C   UNL     1      33.784 -13.156 -23.716  0.00  0.00    +0.143 C 
ENDBRANCH  23  26
ENDBRANCH  17  18
ENDBRANCH  16  17
ENDBRANCH  10  11
ENDBRANCH   1  10
BRANCH   2  29
ATOM     29  C   UNL     1      34.542 -25.027 -13.332  0.00  0.00    -0.050 C 
BRANCH  29  30
ATOM     30  C   UNL     1      35.997 -25.245 -13.650  0.00  0.00    -0.043 C 
ATOM     31  C   UNL     1      36.385 -26.338 -14.425  0.00  0.00    -0.006 C 
ATOM     32  C   UNL     1      36.958 -24.355 -13.168  0.00  0.00    -0.006 C 
ATOM     33  C   UNL     1      37.733 -26.540 -14.719  0.00  0.00    +0.006 C 
ATOM     34  C   UNL     1      38.305 -24.558 -13.462  0.00  0.00    +0.006 C 
ATOM     35  C   UNL     1      38.694 -25.650 -14.238  0.00  0.00    +0.075 C 
BRANCH  35  37
ATOM     36  O   UNL     1      40.640 -26.960 -14.708  0.00  0.00    -0.245 OA
ATOM     37  C   UNL     1      40.099 -25.861 -14.545  0.00  0.00    +0.338 C 
BRANCH  37  38
ATOM     38  O   UNL     1      40.792 -24.693 -14.642  0.00  0.00    -0.477 OA
ATOM     39  H   UNL     1      40.479 -23.925 -14.204  0.00  0.00    +0.295 HD
ENDBRANCH  37  38
ENDBRANCH  35  37
ENDBRANCH  29  30
ENDBRANCH   2  29
TORSDOF 9
ENDMDL
MODEL 3
REMARK VINA RESULT:     -11.2      5.473     14.517
REMARK  Name = 68488178
REMARK  9 active torsions:
REMARK  status: ('A' for Active; 'I' for Inactive)
REMARK    1  A    between atoms: N_1  and  C_10
REMARK    2  A    between atoms: N_2  and  C_29
REMARK    3  A    between atoms: C_10  and  C_11
REMARK    4  A    between atoms: C_16  and  O_17
REMARK    5  A    between atoms: O_17  and  C_18
REMARK    6  A    between atoms: C_23  and  C_26
REMARK    7  A    between atoms: C_29  and  C_30
REMARK    8  A    between atoms: C_35  and  C_37
REMARK    9  A    between atoms: C_37  and  O_38
REMARK                            x       y       z     vdW  Elec       q    Type
REMARK                         _______ _______ _______ _____ _____    ______ ____
ROOT
ATOM      1  N   UNL     1      32.783 -22.377 -17.244  0.00  0.00    +0.388 N 
ATOM      2  N   UNL     1      33.883 -23.251 -14.820  0.00  0.00    +0.388 N 
ATOM      3  C   UNL     1      32.273 -23.566 -16.520  0.00  0.00    -0.081 C 
ATOM      4  C   UNL     1      34.425 -23.665 -16.138  0.00  0.00    -0.081 C 
ATOM      5  C   UNL     1      33.368 -24.603 -16.693  0.00  0.00    -0.046 C 
ATOM      6  C   UNL     1      34.255 -22.454 -17.075  0.00  0.00    -0.098 C 
ATOM      7  C   UNL     1      32.412 -23.250 -15.019  0.00  0.00    -0.098 C 
ATOM      8  H   UNL     1      32.393 -21.509 -16.875  0.00  0.00    -0.079 HD
ATOM      9  H   UNL     1      34.238 -22.338 -14.531  0.00  0.00    -0.079 HD
ENDROOT
BRANCH   1  10
ATOM     10  C   UNL     1      32.392 -22.365 -18.649  0.00  0.00    -0.050 C 
BRANCH  10  11
ATOM     11  C   UNL     1      33.288 -21.481 -19.473  0.00  0.00    -0.043 C 
ATOM     12  C   UNL     1      32.745 -20.418 -20.196  0.00  0.00    -0.003 C 
ATOM     13  C   UNL     1      34.661 -21.723 -19.515  0.00  0.00    -0.003 C 
ATOM     14  C   UNL     1      33.575 -19.598 -20.961  0.00  0.00    +0.037 C 
ATOM     15  C   UNL     1      35.491 -20.903 -20.280  0.00  0.00    +0.037 C 
ATOM     16  C   UNL     1      34.948 -19.841 -21.003  0.00  0.00    +0.145 C 
BRANCH  16  17
ATOM     17  O   UNL     1      35.758 -19.041 -21.749  0.00  0.00    -0.453 OA
BRANCH  17  18
ATOM     18  C   UNL     1      35.177 -18.311 -22.773  0.00  0.00    +0.145 C 
ATOM     19  C   UNL     1      34.684 -18.965 -23.902  0.00  0.00    +0.038 C 
ATOM     20  C   UNL     1      35.084 -16.923 -22.674  0.00  0.00    +0.038 C 
ATOM     21  C   UNL     1      34.102 -18.230 -24.934  0.00  0.00    +0.008 C 
ATOM     22  C   UNL     1      34.502 -16.188 -23.706  0.00  0.00    +0.008 C 
ATOM     23  C   UNL     1      34.009 -16.841 -24.837  0.00  0.00    +0.054 C 
BRANCH  23  26
ATOM     24  O   UNL     1      33.227 -14.758 -25.642  0.00  0.00    -0.431 OA
ATOM     25  N   UNL     1      33.008 -16.481 -27.090  0.00  0.00    -0.206 NA
ATOM     26  C   UNL     1      33.407 -16.081 -25.904  0.00  0.00    +0.230 C 
ATOM     27  C   UNL     1      32.655 -14.282 -26.783  0.00  0.00    +0.202 C 
ATOM     28  C   UNL     1      32.525 -15.331 -27.659  0.00  0.00    +0.143 C 
ENDBRANCH  23  26
ENDBRANCH  17  18
ENDBRANCH  16  17
ENDBRANCH  10  11
ENDBRANCH   1  10
BRANCH   2  29
ATOM     29  C   UNL     1      34.291 -24.142 -13.740  0.00  0.00    -0.050 C 
BRANCH  29  30
ATOM     30  C   UNL     1      35.711 -24.612 -13.907  0.00  0.00    -0.043 C 
ATOM     31  C   UNL     1      36.767 -23.803 -13.484  0.00  0.00    -0.006 C 
ATOM     32  C   UNL     1      35.972 -25.854 -14.484  0.00  0.00    -0.006 C 
ATOM     33  C   UNL     1      38.082 -24.238 -13.639  0.00  0.00    +0.006 C 
ATOM     34  C   UNL     1      37.288 -26.289 -14.640  0.00  0.00    +0.006 C 
ATOM     35  C   UNL     1      38.344 -25.481 -14.216  0.00  0.00    +0.075 C 
BRANCH  35  37
ATOM     36  O   UNL     1      40.063 -27.094 -14.623  0.00  0.00    -0.245 OA
ATOM     37  C   UNL     1      39.716 -25.934 -14.377  0.00  0.00    +0.338 C 
BRANCH  37  38
ATOM     38  O   UNL     1      40.618 -24.926 -14.227  0.00  0.00    -0.477 OA
ATOM     39  H   UNL     1      40.338 -24.033 -14.291  0.00  0.00    +0.295 HD
ENDBRANCH  37  38
ENDBRANCH  35  37
ENDBRANCH  29  30
ENDBRANCH   2  29
TORSDOF 9
ENDMDL
MODEL 4
REMARK VINA RESULT:     -11.1      2.501     11.732
REMARK  Name = 68488178
REMARK  9 active torsions:
REMARK  status: ('A' for Active; 'I' for Inactive)
REMARK    1  A    between atoms: N_1  and  C_10
REMARK    2  A    between atoms: N_2  and  C_29
REMARK    3  A    between atoms: C_10  and  C_11
REMARK    4  A    between atoms: C_16  and  O_17
REMARK    5  A    between atoms: O_17  and  C_18
REMARK    6  A    between atoms: C_23  and  C_26
REMARK    7  A    between atoms: C_29  and  C_30
REMARK    8  A    between atoms: C_35  and  C_37
REMARK    9  A    between atoms: C_37  and  O_38
REMARK                            x       y       z     vdW  Elec       q    Type
REMARK                         _______ _______ _______ _____ _____    ______ ____
ROOT
ATOM      1  N   UNL     1      32.612 -16.453 -25.595  0.00  0.00    +0.388 N 
ATOM      2  N   UNL     1      34.066 -17.608 -23.497  0.00  0.00    +0.388 N 
ATOM      3  C   UNL     1      33.565 -17.569 -25.805  0.00  0.00    -0.081 C 
ATOM      4  C   UNL     1      34.537 -16.406 -24.228  0.00  0.00    -0.081 C 
ATOM      5  C   UNL     1      34.929 -16.936 -25.596  0.00  0.00    -0.046 C 
ATOM      6  C   UNL     1      33.278 -15.595 -24.584  0.00  0.00    -0.098 C 
ATOM      7  C   UNL     1      33.468 -18.461 -24.554  0.00  0.00    -0.098 C 
ATOM      8  H   UNL     1      31.698 -16.785 -25.284  0.00  0.00    -0.079 HD
ATOM      9  H   UNL     1      33.397 -17.370 -22.763  0.00  0.00    -0.079 HD
ENDROOT
BRANCH   1  10
ATOM     10  C   UNL     1      32.319 -15.726 -26.825  0.00  0.00    -0.050 C 
BRANCH  10  11
ATOM     11  C   UNL     1      32.852 -14.319 -26.785  0.00  0.00    -0.043 C 
ATOM     12  C   UNL     1      33.655 -13.849 -27.825  0.00  0.00    -0.003 C 
ATOM     13  C   UNL     1      32.545 -13.486 -25.709  0.00  0.00    -0.003 C 
ATOM     14  C   UNL     1      34.149 -12.545 -27.789  0.00  0.00    +0.037 C 
ATOM     15  C   UNL     1      33.039 -12.182 -25.673  0.00  0.00    +0.037 C 
ATOM     16  C   UNL     1      33.842 -11.712 -26.713  0.00  0.00    +0.145 C 
BRANCH  16  17
ATOM     17  O   UNL     1      34.325 -10.440 -26.678  0.00  0.00    -0.453 OA
BRANCH  17  18
ATOM     18  C   UNL     1      33.958  -9.641 -25.607  0.00  0.00    +0.145 C 
ATOM     19  C   UNL     1      32.657  -9.149 -25.519  0.00  0.00    +0.038 C 
ATOM     20  C   UNL     1      34.891  -9.329 -24.618  0.00  0.00    +0.038 C 
ATOM     21  C   UNL     1      32.288  -8.342 -24.443  0.00  0.00    +0.008 C 
ATOM     22  C   UNL     1      34.522  -8.523 -23.542  0.00  0.00    +0.008 C 
ATOM     23  C   UNL     1      33.220  -8.029 -23.453  0.00  0.00    +0.054 C 
BRANCH  23  26
ATOM     24  O   UNL     1      33.058  -7.735 -21.110  0.00  0.00    -0.431 OA
ATOM     25  N   UNL     1      32.311  -5.991 -22.343  0.00  0.00    -0.206 NA
ATOM     26  C   UNL     1      32.839  -7.195 -22.340  0.00  0.00    +0.230 C 
ATOM     27  C   UNL     1      32.621  -6.768 -20.255  0.00  0.00    +0.202 C 
ATOM     28  C   UNL     1      32.170  -5.712 -21.008  0.00  0.00    +0.143 C 
ENDBRANCH  23  26
ENDBRANCH  17  18
ENDBRANCH  16  17
ENDBRANCH  10  11
ENDBRANCH   1  10
BRANCH   2  29
ATOM     29  C   UNL     1      35.140 -18.289 -22.784  0.00  0.00    -0.050 C 
BRANCH  29  30
ATOM     30  C   UNL     1      34.609 -19.269 -21.772  0.00  0.00    -0.043 C 
ATOM     31  C   UNL     1      33.232 -19.420 -21.605  0.00  0.00    -0.006 C 
ATOM     32  C   UNL     1      35.492 -20.025 -21.001  0.00  0.00    -0.006 C 
ATOM     33  C   UNL     1      32.740 -20.327 -20.667  0.00  0.00    +0.006 C 
ATOM     34  C   UNL     1      35.000 -20.931 -20.064  0.00  0.00    +0.006 C 
ATOM     35  C   UNL     1      33.623 -21.084 -19.896  0.00  0.00    +0.075 C 
BRANCH  35  37
ATOM     36  O   UNL     1      31.956 -22.049 -18.479  0.00  0.00    -0.245 OA
ATOM     37  C   UNL     1      33.109 -22.029 -18.919  0.00  0.00    +0.338 C 
BRANCH  37  38
ATOM     38  O   UNL     1      34.051 -22.927 -18.519  0.00  0.00    -0.477 OA
ATOM     39  H   UNL     1      34.116 -23.166 -17.615  0.00  0.00    +0.295 HD
ENDBRANCH  37  38
ENDBRANCH  35  37
ENDBRANCH  29  30
ENDBRANCH   2  29
TORSDOF 9
ENDMDL
MODEL 5
REMARK VINA RESULT:     -11.0      0.874      1.656
REMARK  Name = 68488178
REMARK  9 active torsions:
REMARK  status: ('A' for Active; 'I' for Inactive)
REMARK    1  A    between atoms: N_1  and  C_10
REMARK    2  A    between atoms: N_2  and  C_29
REMARK    3  A    between atoms: C_10  and  C_11
REMARK    4  A    between atoms: C_16  and  O_17
REMARK    5  A    between atoms: O_17  and  C_18
REMARK    6  A    between atoms: C_23  and  C_26
REMARK    7  A    between atoms: C_29  and  C_30
REMARK    8  A    between atoms: C_35  and  C_37
REMARK    9  A    between atoms: C_37  and  O_38
REMARK                            x       y       z     vdW  Elec       q    Type
REMARK                         _______ _______ _______ _____ _____    ______ ____
ROOT
ATOM      1  N   UNL     1      33.401 -11.992 -23.936  0.00  0.00    +0.388 N 
ATOM      2  N   UNL     1      34.285  -9.348 -24.215  0.00  0.00    +0.388 N 
ATOM      3  C   UNL     1      33.944 -11.463 -25.210  0.00  0.00    -0.081 C 
ATOM      4  C   UNL     1      32.866  -9.739 -24.402  0.00  0.00    -0.081 C 
ATOM      5  C   UNL     1      32.867 -10.515 -25.707  0.00  0.00    -0.046 C 
ATOM      6  C   UNL     1      32.593 -10.870 -23.394  0.00  0.00    -0.098 C 
ATOM      7  C   UNL     1      35.050 -10.464 -24.826  0.00  0.00    -0.098 C 
ATOM      8  H   UNL     1      34.142 -12.283 -23.297  0.00  0.00    -0.079 HD
ATOM      9  H   UNL     1      34.516  -9.210 -23.230  0.00  0.00    -0.079 HD
ENDROOT
BRANCH   1  10
ATOM     10  C   UNL     1      32.606 -13.200 -24.122  0.00  0.00    -0.050 C 
BRANCH  10  11
ATOM     11  C   UNL     1      33.409 -14.446 -23.859  0.00  0.00    -0.043 C 
ATOM     12  C   UNL     1      33.505 -15.434 -24.839  0.00  0.00    -0.003 C 
ATOM     13  C   UNL     1      34.058 -14.612 -22.634  0.00  0.00    -0.003 C 
ATOM     14  C   UNL     1      34.249 -16.589 -24.595  0.00  0.00    +0.037 C 
ATOM     15  C   UNL     1      34.801 -15.767 -22.390  0.00  0.00    +0.037 C 
ATOM     16  C   UNL     1      34.897 -16.755 -23.371  0.00  0.00    +0.145 C 
BRANCH  16  17
ATOM     17  O   UNL     1      35.622 -17.882 -23.132  0.00  0.00    -0.453 OA
BRANCH  17  18
ATOM     18  C   UNL     1      35.138 -18.771 -22.187  0.00  0.00    +0.145 C 
ATOM     19  C   UNL     1      33.774 -19.058 -22.134  0.00  0.00    +0.038 C 
ATOM     20  C   UNL     1      36.014 -19.379 -21.288  0.00  0.00    +0.038 C 
ATOM     21  C   UNL     1      33.286 -19.951 -21.181  0.00  0.00    +0.008 C 
ATOM     22  C   UNL     1      35.525 -20.272 -20.334  0.00  0.00    +0.008 C 
ATOM     23  C   UNL     1      34.161 -20.559 -20.281  0.00  0.00    +0.054 C 
BRANCH  23  26
ATOM     24  O   UNL     1      34.604 -22.083 -18.525  0.00  0.00    -0.431 OA
ATOM     25  N   UNL     1      32.415 -21.825 -19.032  0.00  0.00    -0.206 NA
ATOM     26  C   UNL     1      33.656 -21.482 -19.294  0.00  0.00    +0.230 C 
ATOM     27  C   UNL     1      33.880 -22.886 -17.696  0.00  0.00    +0.202 C 
ATOM     28  C   UNL     1      32.552 -22.726 -18.007  0.00  0.00    +0.143 C 
ENDBRANCH  23  26
ENDBRANCH  17  18
ENDBRANCH  16  17
ENDBRANCH  10  11
ENDBRANCH   1  10
BRANCH   2  29
ATOM     29  C   UNL     1      34.600  -8.064 -24.831  0.00  0.00    -0.050 C 
BRANCH  29  30
ATOM     30  C   UNL     1      33.433  -7.114 -24.775  0.00  0.00    -0.043 C 
ATOM     31  C   UNL     1      32.983  -6.494 -25.941  0.00  0.00    -0.006 C 
ATOM     32  C   UNL     1      32.803  -6.854 -23.558  0.00  0.00    -0.006 C 
ATOM     33  C   UNL     1      31.903  -5.614 -25.888  0.00  0.00    +0.006 C 
ATOM     34  C   UNL     1      31.724  -5.973 -23.506  0.00  0.00    +0.006 C 
ATOM     35  C   UNL     1      31.272  -5.353 -24.672  0.00  0.00    +0.075 C 
BRANCH  35  37
ATOM     36  O   UNL     1      29.844  -3.728 -23.652  0.00  0.00    -0.245 OA
ATOM     37  C   UNL     1      30.146  -4.436 -24.618  0.00  0.00    +0.338 C 
BRANCH  37  38
ATOM     38  O   UNL     1      29.426  -4.427 -25.774  0.00  0.00    -0.477 OA
ATOM     39  H   UNL     1      28.559  -4.782 -25.789  0.00  0.00    +0.295 HD
ENDBRANCH  37  38
ENDBRANCH  35  37
ENDBRANCH  29  30
ENDBRANCH   2  29
TORSDOF 9
ENDMDL
MODEL 6
REMARK VINA RESULT:     -10.8      1.695      2.603
REMARK  Name = 68488178
REMARK  9 active torsions:
REMARK  status: ('A' for Active; 'I' for Inactive)
REMARK    1  A    between atoms: N_1  and  C_10
REMARK    2  A    between atoms: N_2  and  C_29
REMARK    3  A    between atoms: C_10  and  C_11
REMARK    4  A    between atoms: C_16  and  O_17
REMARK    5  A    between atoms: O_17  and  C_18
REMARK    6  A    between atoms: C_23  and  C_26
REMARK    7  A    between atoms: C_29  and  C_30
REMARK    8  A    between atoms: C_35  and  C_37
REMARK    9  A    between atoms: C_37  and  O_38
REMARK                            x       y       z     vdW  Elec       q    Type
REMARK                         _______ _______ _______ _____ _____    ______ ____
ROOT
ATOM      1  N   UNL     1      33.544 -15.117 -26.086  0.00  0.00    +0.388 N 
ATOM      2  N   UNL     1      33.601 -12.350 -26.527  0.00  0.00    +0.388 N 
ATOM      3  C   UNL     1      33.077 -14.501 -27.352  0.00  0.00    -0.081 C 
ATOM      4  C   UNL     1      32.466 -13.028 -25.854  0.00  0.00    -0.081 C 
ATOM      5  C   UNL     1      31.785 -13.803 -26.969  0.00  0.00    -0.046 C 
ATOM      6  C   UNL     1      33.075 -14.180 -25.034  0.00  0.00    -0.098 C 
ATOM      7  C   UNL     1      33.993 -13.291 -27.607  0.00  0.00    -0.098 C 
ATOM      8  H   UNL     1      34.557 -15.241 -26.073  0.00  0.00    -0.079 HD
ATOM      9  H   UNL     1      34.367 -12.157 -25.881  0.00  0.00    -0.079 HD
ENDROOT
BRANCH   1  10
ATOM     10  C   UNL     1      33.025 -16.465 -25.892  0.00  0.00    -0.050 C 
BRANCH  10  11
ATOM     11  C   UNL     1      33.802 -17.221 -24.848  0.00  0.00    -0.043 C 
ATOM     12  C   UNL     1      34.458 -16.528 -23.830  0.00  0.00    -0.003 C 
ATOM     13  C   UNL     1      33.865 -18.614 -24.897  0.00  0.00    -0.003 C 
ATOM     14  C   UNL     1      35.179 -17.228 -22.862  0.00  0.00    +0.037 C 
ATOM     15  C   UNL     1      34.585 -19.314 -23.929  0.00  0.00    +0.037 C 
ATOM     16  C   UNL     1      35.242 -18.621 -22.911  0.00  0.00    +0.145 C 
BRANCH  16  17
ATOM     17  O   UNL     1      35.945 -19.304 -21.967  0.00  0.00    -0.453 OA
BRANCH  17  18
ATOM     18  C   UNL     1      35.230 -20.050 -21.045  0.00  0.00    +0.145 C 
ATOM     19  C   UNL     1      35.899 -20.907 -20.172  0.00  0.00    +0.038 C 
ATOM     20  C   UNL     1      33.840 -19.943 -20.990  0.00  0.00    +0.038 C 
ATOM     21  C   UNL     1      35.178 -21.660 -19.246  0.00  0.00    +0.008 C 
ATOM     22  C   UNL     1      33.119 -20.696 -20.064  0.00  0.00    +0.008 C 
ATOM     23  C   UNL     1      33.788 -21.555 -19.190  0.00  0.00    +0.054 C 
BRANCH  23  26
ATOM     24  O   UNL     1      33.788 -23.175 -17.464  0.00  0.00    -0.431 OA
ATOM     25  N   UNL     1      31.750 -22.348 -17.995  0.00  0.00    -0.206 NA
ATOM     26  C   UNL     1      33.042 -22.334 -18.232  0.00  0.00    +0.230 C 
ATOM     27  C   UNL     1      32.864 -23.778 -16.664  0.00  0.00    +0.202 C 
ATOM     28  C   UNL     1      31.630 -23.273 -16.989  0.00  0.00    +0.143 C 
ENDBRANCH  23  26
ENDBRANCH  17  18
ENDBRANCH  16  17
ENDBRANCH  10  11
ENDBRANCH   1  10
BRANCH   2  29
ATOM     29  C   UNL     1      33.242 -11.036 -27.047  0.00  0.00    -0.050 C 
BRANCH  29  30
ATOM     30  C   UNL     1      33.104 -10.017 -25.948  0.00  0.00    -0.043 C 
ATOM     31  C   UNL     1      32.405  -8.831 -26.180  0.00  0.00    -0.006 C 
ATOM     32  C   UNL     1      33.676 -10.256 -24.698  0.00  0.00    -0.006 C 
ATOM     33  C   UNL     1      32.279  -7.887 -25.162  0.00  0.00    +0.006 C 
ATOM     34  C   UNL     1      33.549  -9.311 -23.681  0.00  0.00    +0.006 C 
ATOM     35  C   UNL     1      32.849  -8.126 -23.912  0.00  0.00    +0.075 C 
BRANCH  35  37
ATOM     36  O   UNL     1      31.973  -6.155 -22.878  0.00  0.00    -0.245 OA
ATOM     37  C   UNL     1      32.716  -7.142 -22.851  0.00  0.00    +0.338 C 
BRANCH  37  38
ATOM     38  O   UNL     1      33.515  -7.416 -21.784  0.00  0.00    -0.477 OA
ATOM     39  H   UNL     1      33.445  -6.903 -21.002  0.00  0.00    +0.295 HD
ENDBRANCH  37  38
ENDBRANCH  35  37
ENDBRANCH  29  30
ENDBRANCH   2  29
TORSDOF 9
ENDMDL
MODEL 7
REMARK VINA RESULT:     -10.6      2.865     13.208
REMARK  Name = 68488178
REMARK  9 active torsions:
REMARK  status: ('A' for Active; 'I' for Inactive)
REMARK    1  A    between atoms: N_1  and  C_10
REMARK    2  A    between atoms: N_2  and  C_29
REMARK    3  A    between atoms: C_10  and  C_11
REMARK    4  A    between atoms: C_16  and  O_17
REMARK    5  A    between atoms: O_17  and  C_18
REMARK    6  A    between atoms: C_23  and  C_26
REMARK    7  A    between atoms: C_29  and  C_30
REMARK    8  A    between atoms: C_35  and  C_37
REMARK    9  A    between atoms: C_37  and  O_38
REMARK                            x       y       z     vdW  Elec       q    Type
REMARK                         _______ _______ _______ _____ _____    ______ ____
ROOT
ATOM      1  N   UNL     1      34.848 -17.927 -21.715  0.00  0.00    +0.388 N 
ATOM      2  N   UNL     1      34.400 -20.250 -20.214  0.00  0.00    +0.388 N 
ATOM      3  C   UNL     1      33.956 -19.016 -22.179  0.00  0.00    -0.081 C 
ATOM      4  C   UNL     1      35.544 -20.111 -21.148  0.00  0.00    -0.081 C 
ATOM      5  C   UNL     1      34.904 -20.150 -22.524  0.00  0.00    -0.046 C 
ATOM      6  C   UNL     1      35.984 -18.637 -21.077  0.00  0.00    -0.098 C 
ATOM      7  C   UNL     1      33.276 -19.584 -20.920  0.00  0.00    -0.098 C 
ATOM      8  H   UNL     1      34.373 -17.293 -21.070  0.00  0.00    -0.079 HD
ATOM      9  H   UNL     1      34.595 -19.827 -19.306  0.00  0.00    -0.079 HD
ENDROOT
BRANCH   1  10
ATOM     10  C   UNL     1      35.284 -17.057 -22.801  0.00  0.00    -0.050 C 
BRANCH  10  11
ATOM     11  C   UNL     1      34.506 -15.769 -22.837  0.00  0.00    -0.043 C 
ATOM     12  C   UNL     1      34.406 -14.983 -21.688  0.00  0.00    -0.003 C 
ATOM     13  C   UNL     1      33.884 -15.362 -24.017  0.00  0.00    -0.003 C 
ATOM     14  C   UNL     1      33.685 -13.790 -21.720  0.00  0.00    +0.037 C 
ATOM     15  C   UNL     1      33.163 -14.169 -24.050  0.00  0.00    +0.037 C 
ATOM     16  C   UNL     1      33.063 -13.383 -22.901  0.00  0.00    +0.145 C 
BRANCH  16  17
ATOM     17  O   UNL     1      32.358 -12.218 -22.932  0.00  0.00    -0.453 OA
BRANCH  17  18
ATOM     18  C   UNL     1      32.833 -11.200 -23.742  0.00  0.00    +0.145 C 
ATOM     19  C   UNL     1      33.684 -11.495 -24.807  0.00  0.00    +0.038 C 
ATOM     20  C   UNL     1      32.462  -9.879 -23.491  0.00  0.00    +0.038 C 
ATOM     21  C   UNL     1      34.165 -10.470 -25.620  0.00  0.00    +0.008 C 
ATOM     22  C   UNL     1      32.943  -8.853 -24.304  0.00  0.00    +0.008 C 
ATOM     23  C   UNL     1      33.795  -9.148 -25.370  0.00  0.00    +0.054 C 
BRANCH  23  26
ATOM     24  O   UNL     1      33.670  -6.886 -26.057  0.00  0.00    -0.431 OA
ATOM     25  N   UNL     1      35.257  -8.113 -27.102  0.00  0.00    -0.206 NA
ATOM     26  C   UNL     1      34.292  -8.087 -26.211  0.00  0.00    +0.230 C 
ATOM     27  C   UNL     1      34.314  -6.078 -26.945  0.00  0.00    +0.202 C 
ATOM     28  C   UNL     1      35.276  -6.826 -27.576  0.00  0.00    +0.143 C 
ENDBRANCH  23  26
ENDBRANCH  17  18
ENDBRANCH  16  17
ENDBRANCH  10  11
ENDBRANCH   1  10
BRANCH   2  29
ATOM     29  C   UNL     1      34.100 -21.641 -19.895  0.00  0.00    -0.050 C 
BRANCH  29  30
ATOM     30  C   UNL     1      34.644 -22.037 -18.548  0.00  0.00    -0.043 C 
ATOM     31  C   UNL     1      33.834 -22.726 -17.645  0.00  0.00    -0.006 C 
ATOM     32  C   UNL     1      35.956 -21.713 -18.202  0.00  0.00    -0.006 C 
ATOM     33  C   UNL     1      34.337 -23.092 -16.397  0.00  0.00    +0.006 C 
ATOM     34  C   UNL     1      36.459 -22.079 -16.954  0.00  0.00    +0.006 C 
ATOM     35  C   UNL     1      35.650 -22.770 -16.051  0.00  0.00    +0.075 C 
BRANCH  35  37
ATOM     36  O   UNL     1      37.353 -23.425 -14.506  0.00  0.00    -0.245 OA
ATOM     37  C   UNL     1      36.174 -23.152 -14.751  0.00  0.00    +0.338 C 
BRANCH  37  38
ATOM     38  O   UNL     1      35.211 -23.180 -13.789  0.00  0.00    -0.477 OA
ATOM     39  H   UNL     1      35.371 -23.621 -12.977  0.00  0.00    +0.295 HD
ENDBRANCH  37  38
ENDBRANCH  35  37
ENDBRANCH  29  30
ENDBRANCH   2  29
TORSDOF 9
ENDMDL
MODEL 8
REMARK VINA RESULT:     -10.4      2.536     12.764
REMARK  Name = 68488178
REMARK  9 active torsions:
REMARK  status: ('A' for Active; 'I' for Inactive)
REMARK    1  A    between atoms: N_1  and  C_10
REMARK    2  A    between atoms: N_2  and  C_29
REMARK    3  A    between atoms: C_10  and  C_11
REMARK    4  A    between atoms: C_16  and  O_17
REMARK    5  A    between atoms: O_17  and  C_18
REMARK    6  A    between atoms: C_23  and  C_26
REMARK    7  A    between atoms: C_29  and  C_30
REMARK    8  A    between atoms: C_35  and  C_37
REMARK    9  A    between atoms: C_37  and  O_38
REMARK                            x       y       z     vdW  Elec       q    Type
REMARK                         _______ _______ _______ _____ _____    ______ ____
ROOT
ATOM      1  N   UNL     1      35.006 -17.943 -21.650  0.00  0.00    +0.388 N 
ATOM      2  N   UNL     1      34.256 -20.196 -20.162  0.00  0.00    +0.388 N 
ATOM      3  C   UNL     1      34.095 -18.984 -22.184  0.00  0.00    -0.081 C 
ATOM      4  C   UNL     1      35.495 -20.154 -20.977  0.00  0.00    -0.081 C 
ATOM      5  C   UNL     1      34.996 -20.185 -22.410  0.00  0.00    -0.046 C 
ATOM      6  C   UNL     1      36.023 -18.710 -20.887  0.00  0.00    -0.098 C 
ATOM      7  C   UNL     1      33.256 -19.477 -20.990  0.00  0.00    -0.098 C 
ATOM      8  H   UNL     1      34.512 -17.265 -21.069  0.00  0.00    -0.079 HD
ATOM      9  H   UNL     1      34.387 -19.764 -19.246  0.00  0.00    -0.079 HD
ENDROOT
BRANCH   1  10
ATOM     10  C   UNL     1      35.606 -17.131 -22.701  0.00  0.00    -0.050 C 
BRANCH  10  11
ATOM     11  C   UNL     1      34.710 -15.994 -23.113  0.00  0.00    -0.043 C 
ATOM     12  C   UNL     1      34.475 -14.937 -22.232  0.00  0.00    -0.003 C 
ATOM     13  C   UNL     1      34.113 -15.996 -24.374  0.00  0.00    -0.003 C 
ATOM     14  C   UNL     1      33.644 -13.883 -22.612  0.00  0.00    +0.037 C 
ATOM     15  C   UNL     1      33.282 -14.942 -24.754  0.00  0.00    +0.037 C 
ATOM     16  C   UNL     1      33.048 -13.886 -23.873  0.00  0.00    +0.145 C 
BRANCH  16  17
ATOM     17  O   UNL     1      32.236 -12.858 -24.244  0.00  0.00    -0.453 OA
BRANCH  17  18
ATOM     18  C   UNL     1      32.270 -11.703 -23.480  0.00  0.00    +0.145 C 
ATOM     19  C   UNL     1      32.999 -10.598 -23.920  0.00  0.00    +0.038 C 
ATOM     20  C   UNL     1      31.576 -11.646 -22.272  0.00  0.00    +0.038 C 
ATOM     21  C   UNL     1      33.035  -9.436 -23.149  0.00  0.00    +0.008 C 
ATOM     22  C   UNL     1      31.613 -10.484 -21.501  0.00  0.00    +0.008 C 
ATOM     23  C   UNL     1      32.342  -9.378 -21.940  0.00  0.00    +0.054 C 
BRANCH  23  26
ATOM     24  O   UNL     1      31.972  -7.045 -21.781  0.00  0.00    -0.431 OA
ATOM     25  N   UNL     1      32.752  -8.017 -19.893  0.00  0.00    -0.206 NA
ATOM     26  C   UNL     1      32.381  -8.177 -21.143  0.00  0.00    +0.230 C 
ATOM     27  C   UNL     1      32.103  -6.079 -20.830  0.00  0.00    +0.202 C 
ATOM     28  C   UNL     1      32.576  -6.673 -19.686  0.00  0.00    +0.143 C 
ENDBRANCH  23  26
ENDBRANCH  17  18
ENDBRANCH  16  17
ENDBRANCH  10  11
ENDBRANCH   1  10
BRANCH   2  29
ATOM     29  C   UNL     1      33.835 -21.557 -19.850  0.00  0.00    -0.050 C 
BRANCH  29  30
ATOM     30  C   UNL     1      34.405 -22.035 -18.542  0.00  0.00    -0.043 C 
ATOM     31  C   UNL     1      35.728 -21.741 -18.209  0.00  0.00    -0.006 C 
ATOM     32  C   UNL     1      33.611 -22.772 -17.662  0.00  0.00    -0.006 C 
ATOM     33  C   UNL     1      36.255 -22.185 -16.997  0.00  0.00    +0.006 C 
ATOM     34  C   UNL     1      34.139 -23.215 -16.451  0.00  0.00    +0.006 C 
ATOM     35  C   UNL     1      35.462 -22.921 -16.116  0.00  0.00    +0.075 C 
BRANCH  35  37
ATOM     36  O   UNL     1      37.173 -23.205 -14.470  0.00  0.00    -0.245 OA
ATOM     37  C   UNL     1      36.012 -23.382 -14.853  0.00  0.00    +0.338 C 
BRANCH  37  38
ATOM     38  O   UNL     1      35.097 -24.052 -14.100  0.00  0.00    -0.477 OA
ATOM     39  H   UNL     1      35.271 -24.225 -13.195  0.00  0.00    +0.295 HD
ENDBRANCH  37  38
ENDBRANCH  35  37
ENDBRANCH  29  30
ENDBRANCH   2  29
TORSDOF 9
ENDMDL
MODEL 9
REMARK VINA RESULT:     -10.3      3.994      7.115
REMARK  Name = 68488178
REMARK  9 active torsions:
REMARK  status: ('A' for Active; 'I' for Inactive)
REMARK    1  A    between atoms: N_1  and  C_10
REMARK    2  A    between atoms: N_2  and  C_29
REMARK    3  A    between atoms: C_10  and  C_11
REMARK    4  A    between atoms: C_16  and  O_17
REMARK    5  A    between atoms: O_17  and  C_18
REMARK    6  A    between atoms: C_23  and  C_26
REMARK    7  A    between atoms: C_29  and  C_30
REMARK    8  A    between atoms: C_35  and  C_37
REMARK    9  A    between atoms: C_37  and  O_38
REMARK                            x       y       z     vdW  Elec       q    Type
REMARK                         _______ _______ _______ _____ _____    ______ ____
ROOT
ATOM      1  N   UNL     1      34.502 -18.214 -22.454  0.00  0.00    +0.388 N 
ATOM      2  N   UNL     1      33.084 -17.121 -24.609  0.00  0.00    +0.388 N 
ATOM      3  C   UNL     1      35.165 -17.452 -23.540  0.00  0.00    -0.081 C 
ATOM      4  C   UNL     1      33.581 -18.519 -24.607  0.00  0.00    -0.081 C 
ATOM      5  C   UNL     1      35.087 -18.375 -24.742  0.00  0.00    -0.046 C 
ATOM      6  C   UNL     1      33.468 -19.016 -23.155  0.00  0.00    -0.098 C 
ATOM      7  C   UNL     1      34.175 -16.350 -23.960  0.00  0.00    -0.098 C 
ATOM      8  H   UNL     1      34.103 -17.598 -21.744  0.00  0.00    -0.079 HD
ATOM      9  H   UNL     1      32.196 -17.031 -24.115  0.00  0.00    -0.079 HD
ENDROOT
BRANCH   1  10
ATOM     10  C   UNL     1      35.433 -19.051 -21.707  0.00  0.00    -0.050 C 
BRANCH  10  11
ATOM     11  C   UNL     1      34.717 -20.047 -20.835  0.00  0.00    -0.043 C 
ATOM     12  C   UNL     1      35.423 -21.103 -20.257  0.00  0.00    -0.003 C 
ATOM     13  C   UNL     1      33.347 -19.916 -20.605  0.00  0.00    -0.003 C 
ATOM     14  C   UNL     1      34.760 -22.026 -19.449  0.00  0.00    +0.037 C 
ATOM     15  C   UNL     1      32.684 -20.839 -19.797  0.00  0.00    +0.037 C 
ATOM     16  C   UNL     1      33.390 -21.895 -19.219  0.00  0.00    +0.145 C 
BRANCH  16  17
ATOM     17  O   UNL     1      32.743 -22.796 -18.431  0.00  0.00    -0.453 OA
BRANCH  17  18
ATOM     18  C   UNL     1      33.268 -23.048 -17.175  0.00  0.00    +0.145 C 
ATOM     19  C   UNL     1      32.438 -23.501 -16.150  0.00  0.00    +0.038 C 
ATOM     20  C   UNL     1      34.628 -22.849 -16.935  0.00  0.00    +0.038 C 
ATOM     21  C   UNL     1      32.967 -23.752 -14.884  0.00  0.00    +0.008 C 
ATOM     22  C   UNL     1      35.157 -23.100 -15.669  0.00  0.00    +0.008 C 
ATOM     23  C   UNL     1      34.326 -23.552 -14.643  0.00  0.00    +0.054 C 
BRANCH  23  26
ATOM     24  O   UNL     1      36.150 -23.379 -13.144  0.00  0.00    -0.431 OA
ATOM     25  N   UNL     1      34.318 -24.403 -12.300  0.00  0.00    -0.206 NA
ATOM     26  C   UNL     1      34.873 -23.811 -13.334  0.00  0.00    +0.230 C 
ATOM     27  C   UNL     1      36.420 -23.740 -11.858  0.00  0.00    +0.202 C 
ATOM     28  C   UNL     1      35.305 -24.359 -11.350  0.00  0.00    +0.143 C 
ENDBRANCH  23  26
ENDBRANCH  17  18
ENDBRANCH  16  17
ENDBRANCH  10  11
ENDBRANCH   1  10
BRANCH   2  29
ATOM     29  C   UNL     1      32.790 -16.631 -25.951  0.00  0.00    -0.050 C 
BRANCH  29  30
ATOM     30  C   UNL     1      32.960 -15.139 -26.053  0.00  0.00    -0.043 C 
ATOM     31  C   UNL     1      32.867 -14.347 -24.908  0.00  0.00    -0.006 C 
ATOM     32  C   UNL     1      33.209 -14.548 -27.292  0.00  0.00    -0.006 C 
ATOM     33  C   UNL     1      33.024 -12.965 -25.003  0.00  0.00    +0.006 C 
ATOM     34  C   UNL     1      33.365 -13.166 -27.386  0.00  0.00    +0.006 C 
ATOM     35  C   UNL     1      33.274 -12.373 -26.242  0.00  0.00    +0.075 C 
BRANCH  35  37
ATOM     36  O   UNL     1      32.519 -10.107 -26.361  0.00  0.00    -0.245 OA
ATOM     37  C   UNL     1      33.438 -10.932 -26.340  0.00  0.00    +0.338 C 
BRANCH  37  38
ATOM     38  O   UNL     1      34.745 -10.561 -26.408  0.00  0.00    -0.477 OA
ATOM     39  H   UNL     1      34.995  -9.814 -26.917  0.00  0.00    +0.295 HD
ENDBRANCH  37  38
ENDBRANCH  35  37
ENDBRANCH  29  30
ENDBRANCH   2  29
TORSDOF 9
ENDMDL
