MODEL 1
REMARK VINA RESULT:     -12.1      0.000      0.000
REMARK  Name = 25052630
REMARK  6 active torsions:
REMARK  status: ('A' for Active; 'I' for Inactive)
REMARK    1  A    between atoms: N_2  and  C_11
REMARK    2  A    between atoms: C_4  and  C_20
REMARK    3  A    between atoms: C_20  and  C_21
REMARK    4  A    between atoms: C_21  and  N_22
REMARK    5  A    between atoms: N_22  and  C_25
REMARK    6  A    between atoms: C_25  and  C_26
REMARK                            x       y       z     vdW  Elec       q    Type
REMARK                         _______ _______ _______ _____ _____    ______ ____
ROOT
ATOM      1  S   UNL     1      36.869 -26.890 -14.037  0.00  0.00    -0.018 S 
ATOM      2  N   UNL     1      36.008 -24.437 -15.078  0.00  0.00    -0.270 N 
ATOM      3  N   UNL     1      38.227 -24.804 -15.152  0.00  0.00    -0.294 N 
ATOM      4  C   UNL     1      36.646 -23.341 -15.656  0.00  0.00    +0.043 C 
ATOM      5  C   UNL     1      37.010 -25.395 -14.745  0.00  0.00    +0.142 C 
ATOM      6  C   UNL     1      37.967 -23.573 -15.694  0.00  0.00    +0.074 C 
ATOM      7  H   UNL     1      39.119 -25.211 -15.060  0.00  0.00    +0.154 HD
ENDROOT
BRANCH   2  11
ATOM      8  F   UNL     1      30.188 -24.097 -12.632  0.00  0.00    -0.201 F 
ATOM      9  F   UNL     1      29.198 -22.598 -17.006  0.00  0.00    -0.204 F 
ATOM     10  O   UNL     1      32.796 -24.307 -13.215  0.00  0.00    -0.472 OA
ATOM     11  C   UNL     1      34.586 -24.533 -14.877  0.00  0.00    +0.127 C 
ATOM     12  C   UNL     1      33.825 -23.683 -15.892  0.00  0.00    +0.054 C 
ATOM     13  C   UNL     1      34.188 -24.092 -13.472  0.00  0.00    +0.226 C 
ATOM     14  C   UNL     1      32.378 -23.570 -15.506  0.00  0.00    +0.018 C 
ATOM     15  C   UNL     1      31.954 -23.873 -14.206  0.00  0.00    +0.162 C 
ATOM     16  C   UNL     1      31.437 -23.130 -16.447  0.00  0.00    +0.029 C 
ATOM     17  C   UNL     1      30.602 -23.775 -13.865  0.00  0.00    +0.176 C 
ATOM     18  C   UNL     1      30.090 -23.020 -16.100  0.00  0.00    +0.142 C 
ATOM     19  C   UNL     1      29.672 -23.346 -14.812  0.00  0.00    +0.062 C 
ENDBRANCH   2  11
BRANCH   4  20
ATOM     20  C   UNL     1      35.914 -22.142 -16.132  0.00  0.00    +0.019 C 
BRANCH  20  21
ATOM     21  C   UNL     1      36.738 -21.347 -17.145  0.00  0.00    -0.075 C 
BRANCH  21  22
ATOM     22  N   UNL     1      36.445 -21.790 -18.503  0.00  0.00    +0.387 N 
ATOM     23  H   UNL     1      36.966 -22.646 -18.695  0.00  0.00    -0.084 HD
ATOM     24  H   UNL     1      36.720 -21.053 -19.152  0.00  0.00    -0.084 HD
BRANCH  22  25
ATOM     25  C   UNL     1      35.022 -22.050 -18.668  0.00  0.00    -0.054 C 
BRANCH  25  26
ATOM     26  C   UNL     1      34.405 -21.154 -19.708  0.00  0.00    -0.044 C 
ATOM     27  C   UNL     1      33.017 -21.035 -19.791  0.00  0.00    -0.006 C 
ATOM     28  C   UNL     1      35.220 -20.441 -20.587  0.00  0.00    -0.006 C 
ATOM     29  C   UNL     1      32.445 -20.204 -20.754  0.00  0.00    -0.000 C 
ATOM     30  C   UNL     1      34.647 -19.610 -21.550  0.00  0.00    -0.000 C 
ATOM     31  C   UNL     1      33.260 -19.491 -21.634  0.00  0.00    -0.000 C 
ENDBRANCH  25  26
ENDBRANCH  22  25
ENDBRANCH  21  22
ENDBRANCH  20  21
ENDBRANCH   4  20
TORSDOF 6
ENDMDL
MODEL 2
REMARK VINA RESULT:     -11.0      9.412     13.408
REMARK  Name = 25052630
REMARK  6 active torsions:
REMARK  status: ('A' for Active; 'I' for Inactive)
REMARK    1  A    between atoms: N_2  and  C_11
REMARK    2  A    between atoms: C_4  and  C_20
REMARK    3  A    between atoms: C_20  and  C_21
REMARK    4  A    between atoms: C_21  and  N_22
REMARK    5  A    between atoms: N_22  and  C_25
REMARK    6  A    between atoms: C_25  and  C_26
REMARK                            x       y       z     vdW  Elec       q    Type
REMARK                         _______ _______ _______ _____ _____    ______ ____
ROOT
ATOM      1  S   UNL     1      31.911 -13.195 -27.366  0.00  0.00    -0.018 S 
ATOM      2  N   UNL     1      33.289 -14.039 -25.080  0.00  0.00    -0.270 N 
ATOM      3  N   UNL     1      32.474 -15.678 -26.388  0.00  0.00    -0.294 N 
ATOM      4  C   UNL     1      33.607 -15.280 -24.531  0.00  0.00    +0.043 C 
ATOM      5  C   UNL     1      32.557 -14.271 -26.281  0.00  0.00    +0.142 C 
ATOM      6  C   UNL     1      33.116 -16.247 -25.321  0.00  0.00    +0.074 C 
ATOM      7  H   UNL     1      32.026 -16.170 -27.114  0.00  0.00    +0.154 HD
ENDROOT
BRANCH   2  11
ATOM      8  F   UNL     1      35.215  -8.077 -24.225  0.00  0.00    -0.201 F 
ATOM      9  F   UNL     1      31.501  -8.040 -21.299  0.00  0.00    -0.204 F 
ATOM     10  O   UNL     1      34.709 -10.607 -24.953  0.00  0.00    -0.472 OA
ATOM     11  C   UNL     1      33.659 -12.776 -24.495  0.00  0.00    +0.127 C 
ATOM     12  C   UNL     1      32.468 -12.116 -23.806  0.00  0.00    +0.054 C 
ATOM     13  C   UNL     1      34.215 -11.815 -25.541  0.00  0.00    +0.226 C 
ATOM     14  C   UNL     1      32.789 -10.693 -23.446  0.00  0.00    +0.018 C 
ATOM     15  C   UNL     1      33.869 -10.026 -24.039  0.00  0.00    +0.162 C 
ATOM     16  C   UNL     1      31.987 -10.008 -22.524  0.00  0.00    +0.029 C 
ATOM     17  C   UNL     1      34.163  -8.707 -23.685  0.00  0.00    +0.176 C 
ATOM     18  C   UNL     1      32.275  -8.686 -22.181  0.00  0.00    +0.142 C 
ATOM     19  C   UNL     1      33.364  -8.038 -22.758  0.00  0.00    +0.062 C 
ENDBRANCH   2  11
BRANCH   4  20
ATOM     20  C   UNL     1      34.373 -15.430 -23.269  0.00  0.00    +0.019 C 
BRANCH  20  21
ATOM     21  C   UNL     1      35.081 -16.783 -23.200  0.00  0.00    -0.075 C 
BRANCH  21  22
ATOM     22  N   UNL     1      34.822 -17.431 -21.919  0.00  0.00    +0.387 N 
ATOM     23  H   UNL     1      33.828 -17.647 -21.849  0.00  0.00    -0.084 HD
ATOM     24  H   UNL     1      35.102 -16.798 -21.171  0.00  0.00    -0.084 HD
BRANCH  22  25
ATOM     25  C   UNL     1      35.588 -18.663 -21.797  0.00  0.00    -0.054 C 
BRANCH  25  26
ATOM     26  C   UNL     1      34.864 -19.695 -20.974  0.00  0.00    -0.044 C 
ATOM     27  C   UNL     1      35.588 -20.623 -20.224  0.00  0.00    -0.006 C 
ATOM     28  C   UNL     1      33.470 -19.721 -20.957  0.00  0.00    -0.006 C 
ATOM     29  C   UNL     1      34.917 -21.578 -19.461  0.00  0.00    -0.000 C 
ATOM     30  C   UNL     1      32.799 -20.677 -20.193  0.00  0.00    -0.000 C 
ATOM     31  C   UNL     1      33.523 -21.605 -19.445  0.00  0.00    -0.000 C 
ENDBRANCH  25  26
ENDBRANCH  22  25
ENDBRANCH  21  22
ENDBRANCH  20  21
ENDBRANCH   4  20
TORSDOF 6
ENDMDL
MODEL 3
REMARK VINA RESULT:     -10.8      6.028      9.291
REMARK  Name = 25052630
REMARK  6 active torsions:
REMARK  status: ('A' for Active; 'I' for Inactive)
REMARK    1  A    between atoms: N_2  and  C_11
REMARK    2  A    between atoms: C_4  and  C_20
REMARK    3  A    between atoms: C_20  and  C_21
REMARK    4  A    between atoms: C_21  and  N_22
REMARK    5  A    between atoms: N_22  and  C_25
REMARK    6  A    between atoms: C_25  and  C_26
REMARK                            x       y       z     vdW  Elec       q    Type
REMARK                         _______ _______ _______ _____ _____    ______ ____
ROOT
ATOM      1  S   UNL     1      34.587 -15.566 -20.634  0.00  0.00    -0.018 S 
ATOM      2  N   UNL     1      34.541 -17.308 -22.826  0.00  0.00    -0.270 N 
ATOM      3  N   UNL     1      34.240 -15.130 -23.304  0.00  0.00    -0.294 N 
ATOM      4  C   UNL     1      34.370 -17.149 -24.199  0.00  0.00    +0.043 C 
ATOM      5  C   UNL     1      34.461 -16.017 -22.226  0.00  0.00    +0.142 C 
ATOM      6  C   UNL     1      34.192 -15.846 -24.470  0.00  0.00    +0.074 C 
ATOM      7  H   UNL     1      34.136 -14.154 -23.229  0.00  0.00    +0.154 HD
ENDROOT
BRANCH   2  11
ATOM      8  F   UNL     1      36.802 -21.961 -19.191  0.00  0.00    -0.201 F 
ATOM      9  F   UNL     1      32.188 -22.661 -18.433  0.00  0.00    -0.204 F 
ATOM     10  O   UNL     1      36.300 -19.841 -20.752  0.00  0.00    -0.472 OA
ATOM     11  C   UNL     1      34.756 -18.576 -22.178  0.00  0.00    +0.127 C 
ATOM     12  C   UNL     1      33.555 -18.971 -21.322  0.00  0.00    +0.054 C 
ATOM     13  C   UNL     1      36.000 -18.551 -21.296  0.00  0.00    +0.226 C 
ATOM     14  C   UNL     1      33.895 -20.141 -20.444  0.00  0.00    +0.018 C 
ATOM     15  C   UNL     1      35.229 -20.498 -20.204  0.00  0.00    +0.162 C 
ATOM     16  C   UNL     1      32.871 -20.876 -19.832  0.00  0.00    +0.029 C 
ATOM     17  C   UNL     1      35.529 -21.597 -19.395  0.00  0.00    +0.176 C 
ATOM     18  C   UNL     1      33.174 -21.965 -19.014  0.00  0.00    +0.142 C 
ATOM     19  C   UNL     1      34.502 -22.328 -18.799  0.00  0.00    +0.062 C 
ENDBRANCH   2  11
BRANCH   4  20
ATOM     20  C   UNL     1      34.394 -18.286 -25.152  0.00  0.00    +0.019 C 
BRANCH  20  21
ATOM     21  C   UNL     1      33.045 -19.003 -25.204  0.00  0.00    -0.075 C 
BRANCH  21  22
ATOM     22  N   UNL     1      31.973 -18.056 -25.487  0.00  0.00    +0.387 N 
ATOM     23  H   UNL     1      32.184 -17.167 -25.033  0.00  0.00    -0.084 HD
ATOM     24  H   UNL     1      31.098 -18.438 -25.130  0.00  0.00    -0.084 HD
BRANCH  22  25
ATOM     25  C   UNL     1      31.836 -17.839 -26.920  0.00  0.00    -0.054 C 
BRANCH  25  26
ATOM     26  C   UNL     1      31.644 -16.384 -27.252  0.00  0.00    -0.044 C 
ATOM     27  C   UNL     1      32.745 -15.526 -27.294  0.00  0.00    -0.006 C 
ATOM     28  C   UNL     1      30.367 -15.892 -27.520  0.00  0.00    -0.006 C 
ATOM     29  C   UNL     1      32.567 -14.178 -27.602  0.00  0.00    -0.000 C 
ATOM     30  C   UNL     1      30.190 -14.543 -27.828  0.00  0.00    -0.000 C 
ATOM     31  C   UNL     1      31.289 -13.686 -27.869  0.00  0.00    -0.000 C 
ENDBRANCH  25  26
ENDBRANCH  22  25
ENDBRANCH  21  22
ENDBRANCH  20  21
ENDBRANCH   4  20
TORSDOF 6
ENDMDL
MODEL 4
REMARK VINA RESULT:     -10.7      9.342     13.683
REMARK  Name = 25052630
REMARK  6 active torsions:
REMARK  status: ('A' for Active; 'I' for Inactive)
REMARK    1  A    between atoms: N_2  and  C_11
REMARK    2  A    between atoms: C_4  and  C_20
REMARK    3  A    between atoms: C_20  and  C_21
REMARK    4  A    between atoms: C_21  and  N_22
REMARK    5  A    between atoms: N_22  and  C_25
REMARK    6  A    between atoms: C_25  and  C_26
REMARK                            x       y       z     vdW  Elec       q    Type
REMARK                         _______ _______ _______ _____ _____    ______ ____
ROOT
ATOM      1  S   UNL     1      30.371 -14.530 -27.987  0.00  0.00    -0.018 S 
ATOM      2  N   UNL     1      32.663 -15.417 -26.646  0.00  0.00    -0.270 N 
ATOM      3  N   UNL     1      31.224 -17.024 -27.287  0.00  0.00    -0.294 N 
ATOM      4  C   UNL     1      33.151 -16.664 -26.262  0.00  0.00    +0.043 C 
ATOM      5  C   UNL     1      31.419 -15.624 -27.310  0.00  0.00    +0.142 C 
ATOM      6  C   UNL     1      32.284 -17.612 -26.650  0.00  0.00    +0.074 C 
ATOM      7  H   UNL     1      30.450 -17.500 -27.667  0.00  0.00    +0.154 HD
ENDROOT
BRANCH   2  11
ATOM      8  F   UNL     1      35.040  -9.582 -27.177  0.00  0.00    -0.201 F 
ATOM      9  F   UNL     1      33.307  -9.235 -22.791  0.00  0.00    -0.204 F 
ATOM     10  O   UNL     1      34.117 -12.086 -27.423  0.00  0.00    -0.472 OA
ATOM     11  C   UNL     1      33.337 -14.170 -26.390  0.00  0.00    +0.127 C 
ATOM     12  C   UNL     1      32.686 -13.417 -25.232  0.00  0.00    +0.054 C 
ATOM     13  C   UNL     1      33.337 -13.270 -27.622  0.00  0.00    +0.226 C 
ATOM     14  C   UNL     1      33.213 -12.012 -25.155  0.00  0.00    +0.018 C 
ATOM     15  C   UNL     1      33.878 -11.432 -26.243  0.00  0.00    +0.162 C 
ATOM     16  C   UNL     1      33.016 -11.256 -23.991  0.00  0.00    +0.029 C 
ATOM     17  C   UNL     1      34.373 -10.128 -26.151  0.00  0.00    +0.176 C 
ATOM     18  C   UNL     1      33.500  -9.950 -23.907  0.00  0.00    +0.142 C 
ATOM     19  C   UNL     1      34.182  -9.388 -24.984  0.00  0.00    +0.062 C 
ENDBRANCH   2  11
BRANCH   4  20
ATOM     20  C   UNL     1      34.435 -16.840 -25.540  0.00  0.00    +0.019 C 
BRANCH  20  21
ATOM     21  C   UNL     1      34.225 -16.910 -24.028  0.00  0.00    -0.075 C 
BRANCH  21  22
ATOM     22  N   UNL     1      34.186 -18.297 -23.581  0.00  0.00    +0.387 N 
ATOM     23  H   UNL     1      34.467 -18.904 -24.351  0.00  0.00    -0.084 HD
ATOM     24  H   UNL     1      33.236 -18.517 -23.283  0.00  0.00    -0.084 HD
BRANCH  22  25
ATOM     25  C   UNL     1      35.087 -18.505 -22.456  0.00  0.00    -0.054 C 
BRANCH  25  26
ATOM     26  C   UNL     1      34.528 -19.491 -21.465  0.00  0.00    -0.044 C 
ATOM     27  C   UNL     1      35.392 -20.268 -20.691  0.00  0.00    -0.006 C 
ATOM     28  C   UNL     1      33.148 -19.626 -21.318  0.00  0.00    -0.006 C 
ATOM     29  C   UNL     1      34.874 -21.180 -19.772  0.00  0.00    -0.000 C 
ATOM     30  C   UNL     1      32.631 -20.539 -20.398  0.00  0.00    -0.000 C 
ATOM     31  C   UNL     1      33.494 -21.316 -19.625  0.00  0.00    -0.000 C 
ENDBRANCH  25  26
ENDBRANCH  22  25
ENDBRANCH  21  22
ENDBRANCH  20  21
ENDBRANCH   4  20
TORSDOF 6
ENDMDL
MODEL 5
REMARK VINA RESULT:     -10.6      1.559      2.224
REMARK  Name = 25052630
REMARK  6 active torsions:
REMARK  status: ('A' for Active; 'I' for Inactive)
REMARK    1  A    between atoms: N_2  and  C_11
REMARK    2  A    between atoms: C_4  and  C_20
REMARK    3  A    between atoms: C_20  and  C_21
REMARK    4  A    between atoms: C_21  and  N_22
REMARK    5  A    between atoms: N_22  and  C_25
REMARK    6  A    between atoms: C_25  and  C_26
REMARK                            x       y       z     vdW  Elec       q    Type
REMARK                         _______ _______ _______ _____ _____    ______ ____
ROOT
ATOM      1  S   UNL     1      35.004 -24.616 -11.368  0.00  0.00    -0.018 S 
ATOM      2  N   UNL     1      35.314 -23.779 -14.022  0.00  0.00    -0.270 N 
ATOM      3  N   UNL     1      37.202 -24.402 -12.968  0.00  0.00    -0.294 N 
ATOM      4  C   UNL     1      36.399 -23.648 -14.887  0.00  0.00    +0.043 C 
ATOM      5  C   UNL     1      35.808 -24.264 -12.776  0.00  0.00    +0.142 C 
ATOM      6  C   UNL     1      37.517 -24.023 -14.246  0.00  0.00    +0.074 C 
ATOM      7  H   UNL     1      37.844 -24.718 -12.292  0.00  0.00    +0.154 HD
ENDROOT
BRANCH   2  11
ATOM      8  F   UNL     1      30.034 -22.423 -17.225  0.00  0.00    -0.201 F 
ATOM      9  F   UNL     1      28.233 -25.596 -14.218  0.00  0.00    -0.204 F 
ATOM     10  O   UNL     1      32.494 -22.752 -16.214  0.00  0.00    -0.472 OA
ATOM     11  C   UNL     1      33.954 -23.464 -14.376  0.00  0.00    +0.127 C 
ATOM     12  C   UNL     1      33.006 -24.595 -13.987  0.00  0.00    +0.054 C 
ATOM     13  C   UNL     1      33.812 -23.195 -15.870  0.00  0.00    +0.226 C 
ATOM     14  C   UNL     1      31.651 -24.381 -14.602  0.00  0.00    +0.018 C 
ATOM     15  C   UNL     1      31.478 -23.494 -15.672  0.00  0.00    +0.162 C 
ATOM     16  C   UNL     1      30.546 -25.097 -14.121  0.00  0.00    +0.029 C 
ATOM     17  C   UNL     1      30.209 -23.297 -16.225  0.00  0.00    +0.176 C 
ATOM     18  C   UNL     1      29.283 -24.907 -14.684  0.00  0.00    +0.142 C 
ATOM     19  C   UNL     1      29.115 -24.005 -15.731  0.00  0.00    +0.062 C 
ENDBRANCH   2  11
BRANCH   4  20
ATOM     20  C   UNL     1      36.263 -23.165 -16.283  0.00  0.00    +0.019 C 
BRANCH  20  21
ATOM     21  C   UNL     1      37.139 -21.939 -16.540  0.00  0.00    -0.075 C 
BRANCH  21  22
ATOM     22  N   UNL     1      36.505 -21.052 -17.509  0.00  0.00    +0.387 N 
ATOM     23  H   UNL     1      37.112 -20.249 -17.673  0.00  0.00    -0.084 HD
ATOM     24  H   UNL     1      35.607 -20.748 -17.133  0.00  0.00    -0.084 HD
BRANCH  22  25
ATOM     25  C   UNL     1      36.274 -21.741 -18.770  0.00  0.00    -0.054 C 
BRANCH  25  26
ATOM     26  C   UNL     1      35.108 -21.157 -19.523  0.00  0.00    -0.044 C 
ATOM     27  C   UNL     1      33.806 -21.545 -19.203  0.00  0.00    -0.006 C 
ATOM     28  C   UNL     1      35.330 -20.227 -20.538  0.00  0.00    -0.006 C 
ATOM     29  C   UNL     1      32.727 -21.003 -19.901  0.00  0.00    -0.000 C 
ATOM     30  C   UNL     1      34.249 -19.685 -21.235  0.00  0.00    -0.000 C 
ATOM     31  C   UNL     1      32.948 -20.073 -20.916  0.00  0.00    -0.000 C 
ENDBRANCH  25  26
ENDBRANCH  22  25
ENDBRANCH  21  22
ENDBRANCH  20  21
ENDBRANCH   4  20
TORSDOF 6
ENDMDL
MODEL 6
REMARK VINA RESULT:     -10.6      3.468      5.308
REMARK  Name = 25052630
REMARK  6 active torsions:
REMARK  status: ('A' for Active; 'I' for Inactive)
REMARK    1  A    between atoms: N_2  and  C_11
REMARK    2  A    between atoms: C_4  and  C_20
REMARK    3  A    between atoms: C_20  and  C_21
REMARK    4  A    between atoms: C_21  and  N_22
REMARK    5  A    between atoms: N_22  and  C_25
REMARK    6  A    between atoms: C_25  and  C_26
REMARK                            x       y       z     vdW  Elec       q    Type
REMARK                         _______ _______ _______ _____ _____    ______ ____
ROOT
ATOM      1  S   UNL     1      30.524 -24.680 -13.239  0.00  0.00    -0.018 S 
ATOM      2  N   UNL     1      32.375 -23.965 -15.215  0.00  0.00    -0.270 N 
ATOM      3  N   UNL     1      30.276 -23.216 -15.527  0.00  0.00    -0.294 N 
ATOM      4  C   UNL     1      32.311 -23.227 -16.395  0.00  0.00    +0.043 C 
ATOM      5  C   UNL     1      31.072 -23.972 -14.636  0.00  0.00    +0.142 C 
ATOM      6  C   UNL     1      31.055 -22.786 -16.568  0.00  0.00    +0.074 C 
ATOM      7  H   UNL     1      29.316 -23.029 -15.416  0.00  0.00    +0.154 HD
ENDROOT
BRANCH   2  11
ATOM      8  F   UNL     1      37.950 -26.915 -14.769  0.00  0.00    -0.201 F 
ATOM      9  F   UNL     1      38.678 -23.548 -11.529  0.00  0.00    -0.204 F 
ATOM     10  O   UNL     1      35.524 -25.935 -15.349  0.00  0.00    -0.472 OA
ATOM     11  C   UNL     1      33.572 -24.591 -14.715  0.00  0.00    +0.127 C 
ATOM     12  C   UNL     1      34.438 -23.594 -13.950  0.00  0.00    +0.054 C 
ATOM     13  C   UNL     1      34.401 -25.196 -15.843  0.00  0.00    +0.226 C 
ATOM     14  C   UNL     1      35.796 -24.176 -13.676  0.00  0.00    +0.018 C 
ATOM     15  C   UNL     1      36.258 -25.290 -14.388  0.00  0.00    +0.162 C 
ATOM     16  C   UNL     1      36.627 -23.587 -12.714  0.00  0.00    +0.029 C 
ATOM     17  C   UNL     1      37.519 -25.829 -14.113  0.00  0.00    +0.176 C 
ATOM     18  C   UNL     1      37.890 -24.119 -12.450  0.00  0.00    +0.142 C 
ATOM     19  C   UNL     1      38.333 -25.241 -13.146  0.00  0.00    +0.062 C 
ENDBRANCH   2  11
BRANCH   4  20
ATOM     20  C   UNL     1      33.487 -23.003 -17.271  0.00  0.00    +0.019 C 
BRANCH  20  21
ATOM     21  C   UNL     1      33.073 -22.463 -18.639  0.00  0.00    -0.075 C 
BRANCH  21  22
ATOM     22  N   UNL     1      34.182 -22.554 -19.582  0.00  0.00    +0.387 N 
ATOM     23  H   UNL     1      33.824 -22.442 -20.530  0.00  0.00    -0.084 HD
ATOM     24  H   UNL     1      34.627 -23.465 -19.475  0.00  0.00    -0.084 HD
BRANCH  22  25
ATOM     25  C   UNL     1      35.172 -21.519 -19.320  0.00  0.00    -0.054 C 
BRANCH  25  26
ATOM     26  C   UNL     1      35.135 -20.432 -20.361  0.00  0.00    -0.044 C 
ATOM     27  C   UNL     1      33.942 -20.139 -21.022  0.00  0.00    -0.006 C 
ATOM     28  C   UNL     1      36.293 -19.716 -20.662  0.00  0.00    -0.006 C 
ATOM     29  C   UNL     1      33.908 -19.132 -21.986  0.00  0.00    -0.000 C 
ATOM     30  C   UNL     1      36.258 -18.707 -21.626  0.00  0.00    -0.000 C 
ATOM     31  C   UNL     1      35.066 -18.415 -22.287  0.00  0.00    -0.000 C 
ENDBRANCH  25  26
ENDBRANCH  22  25
ENDBRANCH  21  22
ENDBRANCH  20  21
ENDBRANCH   4  20
TORSDOF 6
ENDMDL
MODEL 7
REMARK VINA RESULT:     -10.5      3.516      7.157
REMARK  Name = 25052630
REMARK  6 active torsions:
REMARK  status: ('A' for Active; 'I' for Inactive)
REMARK    1  A    between atoms: N_2  and  C_11
REMARK    2  A    between atoms: C_4  and  C_20
REMARK    3  A    between atoms: C_20  and  C_21
REMARK    4  A    between atoms: C_21  and  N_22
REMARK    5  A    between atoms: N_22  and  C_25
REMARK    6  A    between atoms: C_25  and  C_26
REMARK                            x       y       z     vdW  Elec       q    Type
REMARK                         _______ _______ _______ _____ _____    ______ ____
ROOT
ATOM      1  S   UNL     1      29.272 -23.172 -16.661  0.00  0.00    -0.018 S 
ATOM      2  N   UNL     1      31.748 -23.697 -15.465  0.00  0.00    -0.270 N 
ATOM      3  N   UNL     1      29.975 -24.711 -14.522  0.00  0.00    -0.294 N 
ATOM      4  C   UNL     1      32.169 -24.466 -14.381  0.00  0.00    +0.043 C 
ATOM      5  C   UNL     1      30.334 -23.840 -15.576  0.00  0.00    +0.142 C 
ATOM      6  C   UNL     1      31.102 -25.065 -13.829  0.00  0.00    +0.074 C 
ATOM      7  H   UNL     1      29.060 -25.015 -14.319  0.00  0.00    +0.154 HD
ENDROOT
BRANCH   2  11
ATOM      8  F   UNL     1      36.522 -21.801 -19.152  0.00  0.00    -0.201 F 
ATOM      9  F   UNL     1      32.956 -19.841 -21.560  0.00  0.00    -0.204 F 
ATOM     10  O   UNL     1      34.827 -22.885 -17.381  0.00  0.00    -0.472 OA
ATOM     11  C   UNL     1      32.630 -22.914 -16.292  0.00  0.00    +0.127 C 
ATOM     12  C   UNL     1      31.929 -22.459 -17.570  0.00  0.00    +0.054 C 
ATOM     13  C   UNL     1      33.884 -23.695 -16.671  0.00  0.00    +0.226 C 
ATOM     14  C   UNL     1      32.923 -21.888 -18.541  0.00  0.00    +0.018 C 
ATOM     15  C   UNL     1      34.294 -22.139 -18.400  0.00  0.00    +0.162 C 
ATOM     16  C   UNL     1      32.478 -21.115 -19.621  0.00  0.00    +0.029 C 
ATOM     17  C   UNL     1      35.207 -21.591 -19.304  0.00  0.00    +0.176 C 
ATOM     18  C   UNL     1      33.391 -20.579 -20.530  0.00  0.00    +0.142 C 
ATOM     19  C   UNL     1      34.755 -20.813 -20.369  0.00  0.00    +0.062 C 
ENDBRANCH   2  11
BRANCH   4  20
ATOM     20  C   UNL     1      33.589 -24.561 -13.963  0.00  0.00    +0.019 C 
BRANCH  20  21
ATOM     21  C   UNL     1      33.795 -24.013 -12.551  0.00  0.00    -0.075 C 
BRANCH  21  22
ATOM     22  N   UNL     1      35.209 -23.751 -12.306  0.00  0.00    +0.387 N 
ATOM     23  H   UNL     1      35.295 -23.038 -11.581  0.00  0.00    -0.084 HD
ATOM     24  H   UNL     1      35.636 -23.429 -13.174  0.00  0.00    -0.084 HD
BRANCH  22  25
ATOM     25  C   UNL     1      35.893 -24.960 -11.870  0.00  0.00    -0.054 C 
BRANCH  25  26
ATOM     26  C   UNL     1      37.006 -25.344 -12.809  0.00  0.00    -0.044 C 
ATOM     27  C   UNL     1      38.237 -24.691 -12.736  0.00  0.00    -0.006 C 
ATOM     28  C   UNL     1      36.806 -26.353 -13.750  0.00  0.00    -0.006 C 
ATOM     29  C   UNL     1      39.268 -25.048 -13.605  0.00  0.00    -0.000 C 
ATOM     30  C   UNL     1      37.838 -26.710 -14.620  0.00  0.00    -0.000 C 
ATOM     31  C   UNL     1      39.068 -26.057 -14.547  0.00  0.00    -0.000 C 
ENDBRANCH  25  26
ENDBRANCH  22  25
ENDBRANCH  21  22
ENDBRANCH  20  21
ENDBRANCH   4  20
TORSDOF 6
ENDMDL
MODEL 8
REMARK VINA RESULT:     -10.5      9.563     13.329
REMARK  Name = 25052630
REMARK  6 active torsions:
REMARK  status: ('A' for Active; 'I' for Inactive)
REMARK    1  A    between atoms: N_2  and  C_11
REMARK    2  A    between atoms: C_4  and  C_20
REMARK    3  A    between atoms: C_20  and  C_21
REMARK    4  A    between atoms: C_21  and  N_22
REMARK    5  A    between atoms: N_22  and  C_25
REMARK    6  A    between atoms: C_25  and  C_26
REMARK                            x       y       z     vdW  Elec       q    Type
REMARK                         _______ _______ _______ _____ _____    ______ ____
ROOT
ATOM      1  S   UNL     1      35.236  -9.987 -25.166  0.00  0.00    -0.018 S 
ATOM      2  N   UNL     1      33.393 -12.012 -25.748  0.00  0.00    -0.270 N 
ATOM      3  N   UNL     1      34.789 -11.453 -27.422  0.00  0.00    -0.294 N 
ATOM      4  C   UNL     1      33.117 -12.793 -26.869  0.00  0.00    +0.043 C 
ATOM      5  C   UNL     1      34.470 -11.140 -26.081  0.00  0.00    +0.142 C 
ATOM      6  C   UNL     1      33.956 -12.449 -27.859  0.00  0.00    +0.074 C 
ATOM      7  H   UNL     1      35.496 -11.025 -27.956  0.00  0.00    +0.154 HD
ENDROOT
BRANCH   2  11
ATOM      8  F   UNL     1      31.665 -13.497 -19.850  0.00  0.00    -0.201 F 
ATOM      9  F   UNL     1      30.725  -8.865 -19.710  0.00  0.00    -0.204 F 
ATOM     10  O   UNL     1      32.584 -13.310 -22.361  0.00  0.00    -0.472 OA
ATOM     11  C   UNL     1      32.683 -12.111 -24.498  0.00  0.00    +0.127 C 
ATOM     12  C   UNL     1      32.594 -10.754 -23.805  0.00  0.00    +0.054 C 
ATOM     13  C   UNL     1      33.351 -13.103 -23.552  0.00  0.00    +0.226 C 
ATOM     14  C   UNL     1      32.105 -10.915 -22.394  0.00  0.00    +0.018 C 
ATOM     15  C   UNL     1      32.137 -12.163 -21.758  0.00  0.00    +0.162 C 
ATOM     16  C   UNL     1      31.632  -9.800 -21.688  0.00  0.00    +0.029 C 
ATOM     17  C   UNL     1      31.667 -12.299 -20.449  0.00  0.00    +0.176 C 
ATOM     18  C   UNL     1      31.175  -9.937 -20.376  0.00  0.00    +0.142 C 
ATOM     19  C   UNL     1      31.188 -11.185 -19.759  0.00  0.00    +0.062 C 
ENDBRANCH   2  11
BRANCH   4  20
ATOM     20  C   UNL     1      32.049 -13.822 -26.892  0.00  0.00    +0.019 C 
BRANCH  20  21
ATOM     21  C   UNL     1      32.627 -15.227 -27.059  0.00  0.00    -0.075 C 
BRANCH  21  22
ATOM     22  N   UNL     1      32.766 -15.880 -25.762  0.00  0.00    +0.387 N 
ATOM     23  H   UNL     1      32.055 -16.606 -25.677  0.00  0.00    -0.084 HD
ATOM     24  H   UNL     1      32.650 -15.180 -25.031  0.00  0.00    -0.084 HD
BRANCH  22  25
ATOM     25  C   UNL     1      34.084 -16.484 -25.625  0.00  0.00    -0.054 C 
BRANCH  25  26
ATOM     26  C   UNL     1      34.263 -17.141 -24.282  0.00  0.00    -0.044 C 
ATOM     27  C   UNL     1      34.802 -16.416 -23.218  0.00  0.00    -0.006 C 
ATOM     28  C   UNL     1      33.887 -18.471 -24.100  0.00  0.00    -0.006 C 
ATOM     29  C   UNL     1      34.967 -17.024 -21.973  0.00  0.00    -0.000 C 
ATOM     30  C   UNL     1      34.052 -19.078 -22.854  0.00  0.00    -0.000 C 
ATOM     31  C   UNL     1      34.592 -18.354 -21.792  0.00  0.00    -0.000 C 
ENDBRANCH  25  26
ENDBRANCH  22  25
ENDBRANCH  21  22
ENDBRANCH  20  21
ENDBRANCH   4  20
TORSDOF 6
ENDMDL
MODEL 9
REMARK VINA RESULT:     -10.4      3.291      5.224
REMARK  Name = 25052630
REMARK  6 active torsions:
REMARK  status: ('A' for Active; 'I' for Inactive)
REMARK    1  A    between atoms: N_2  and  C_11
REMARK    2  A    between atoms: C_4  and  C_20
REMARK    3  A    between atoms: C_20  and  C_21
REMARK    4  A    between atoms: C_21  and  N_22
REMARK    5  A    between atoms: N_22  and  C_25
REMARK    6  A    between atoms: C_25  and  C_26
REMARK                            x       y       z     vdW  Elec       q    Type
REMARK                         _______ _______ _______ _____ _____    ______ ____
ROOT
ATOM      1  S   UNL     1      30.649 -24.299 -13.483  0.00  0.00    -0.018 S 
ATOM      2  N   UNL     1      32.506 -23.531 -15.433  0.00  0.00    -0.270 N 
ATOM      3  N   UNL     1      30.350 -23.512 -16.077  0.00  0.00    -0.294 N 
ATOM      4  C   UNL     1      32.417 -23.122 -16.762  0.00  0.00    +0.043 C 
ATOM      5  C   UNL     1      31.183 -23.788 -14.969  0.00  0.00    +0.142 C 
ATOM      6  C   UNL     1      31.127 -23.116 -17.133  0.00  0.00    +0.074 C 
ATOM      7  H   UNL     1      29.368 -23.593 -16.089  0.00  0.00    +0.154 HD
ENDROOT
BRANCH   2  11
ATOM      8  F   UNL     1      36.826 -24.630 -10.949  0.00  0.00    -0.201 F 
ATOM      9  F   UNL     1      39.088 -26.608 -14.600  0.00  0.00    -0.204 F 
ATOM     10  O   UNL     1      34.709 -24.041 -12.484  0.00  0.00    -0.472 OA
ATOM     11  C   UNL     1      33.742 -23.655 -14.705  0.00  0.00    +0.127 C 
ATOM     12  C   UNL     1      34.659 -24.694 -15.345  0.00  0.00    +0.054 C 
ATOM     13  C   UNL     1      33.500 -24.044 -13.251  0.00  0.00    +0.226 C 
ATOM     14  C   UNL     1      35.811 -25.013 -14.435  0.00  0.00    +0.018 C 
ATOM     15  C   UNL     1      35.766 -24.683 -13.074  0.00  0.00    +0.162 C 
ATOM     16  C   UNL     1      36.938 -25.674 -14.942  0.00  0.00    +0.029 C 
ATOM     17  C   UNL     1      36.851 -24.975 -12.243  0.00  0.00    +0.176 C 
ATOM     18  C   UNL     1      38.015 -25.975 -14.106  0.00  0.00    +0.142 C 
ATOM     19  C   UNL     1      37.973 -25.622 -12.760  0.00  0.00    +0.062 C 
ENDBRANCH   2  11
BRANCH   4  20
ATOM     20  C   UNL     1      33.604 -22.766 -17.577  0.00  0.00    +0.019 C 
BRANCH  20  21
ATOM     21  C   UNL     1      33.239 -22.583 -19.050  0.00  0.00    -0.075 C 
BRANCH  21  22
ATOM     22  N   UNL     1      34.127 -21.612 -19.680  0.00  0.00    +0.387 N 
ATOM     23  H   UNL     1      34.618 -22.061 -20.452  0.00  0.00    -0.084 HD
ATOM     24  H   UNL     1      34.791 -21.277 -18.983  0.00  0.00    -0.084 HD
BRANCH  22  25
ATOM     25  C   UNL     1      33.373 -20.475 -20.190  0.00  0.00    -0.054 C 
BRANCH  25  26
ATOM     26  C   UNL     1      34.152 -19.704 -21.223  0.00  0.00    -0.044 C 
ATOM     27  C   UNL     1      35.476 -19.342 -20.972  0.00  0.00    -0.006 C 
ATOM     28  C   UNL     1      33.550 -19.355 -22.431  0.00  0.00    -0.006 C 
ATOM     29  C   UNL     1      36.197 -18.630 -21.929  0.00  0.00    -0.000 C 
ATOM     30  C   UNL     1      34.272 -18.641 -23.389  0.00  0.00    -0.000 C 
ATOM     31  C   UNL     1      35.595 -18.279 -23.138  0.00  0.00    -0.000 C 
ENDBRANCH  25  26
ENDBRANCH  22  25
ENDBRANCH  21  22
ENDBRANCH  20  21
ENDBRANCH   4  20
TORSDOF 6
ENDMDL
