MODEL 1
REMARK VINA RESULT:     -12.9      0.000      0.000
REMARK  Name = 24779675
REMARK  4 active torsions:
REMARK  status: ('A' for Active; 'I' for Inactive)
REMARK    1  A    between atoms: N_1  and  C_22
REMARK    2  A    between atoms: N_5  and  C_14
REMARK    3  A    between atoms: C_10  and  C_21
REMARK    4  A    between atoms: C_22  and  C_23
REMARK                            x       y       z     vdW  Elec       q    Type
REMARK                         _______ _______ _______ _____ _____    ______ ____
ROOT
ATOM      1  N   UNL     1      33.897 -22.864 -17.794  0.00  0.00    -0.259 N 
ATOM      2  N   UNL     1      32.072 -23.255 -16.453  0.00  0.00    -0.314 NA
ATOM      3  N   UNL     1      34.248 -23.945 -15.749  0.00  0.00    -0.295 NA
ATOM      4  N   UNL     1      32.442 -24.343 -14.400  0.00  0.00    -0.123 N 
ATOM      5  N   UNL     1      34.579 -25.038 -13.672  0.00  0.00    -0.274 N 
ATOM      6  N   UNL     1      31.843 -24.807 -13.289  0.00  0.00    -0.170 NA
ATOM      7  C   UNL     1      33.368 -23.355 -16.653  0.00  0.00    +0.203 C 
ATOM      8  C   UNL     1      31.591 -23.761 -15.294  0.00  0.00    +0.219 C 
ATOM      9  C   UNL     1      33.806 -24.439 -14.629  0.00  0.00    +0.279 C 
ATOM     10  C   UNL     1      30.341 -23.851 -14.725  0.00  0.00    +0.203 C 
ATOM     11  C   UNL     1      30.558 -24.503 -13.494  0.00  0.00    +0.116 C 
ATOM     12  H   UNL     1      34.867 -22.945 -17.931  0.00  0.00    +0.160 HD
ATOM     13  H   UNL     1      34.110 -25.368 -12.871  0.00  0.00    +0.156 HD
ENDROOT
BRANCH   5  14
ATOM     14  C   UNL     1      35.960 -25.232 -13.711  0.00  0.00    +0.051 C 
ATOM     15  C   UNL     1      36.513 -26.131 -14.623  0.00  0.00    +0.015 C 
ATOM     16  C   UNL     1      36.788 -24.526 -12.837  0.00  0.00    +0.015 C 
ATOM     17  C   UNL     1      37.894 -26.326 -14.662  0.00  0.00    +0.001 C 
ATOM     18  C   UNL     1      38.169 -24.721 -12.876  0.00  0.00    +0.001 C 
ATOM     19  C   UNL     1      38.722 -25.620 -13.788  0.00  0.00    +0.000 C 
ENDBRANCH   5  14
BRANCH  10  21
ATOM     20  N   UNL     1      28.121 -23.000 -15.730  0.00  0.00    -0.195 NA
ATOM     21  C   UNL     1      29.119 -23.384 -15.278  0.00  0.00    +0.087 C 
ENDBRANCH  10  21
BRANCH   1  22
ATOM     22  C   UNL     1      33.110 -22.229 -18.818  0.00  0.00    +0.099 C 
BRANCH  22  23
ATOM     23  C   UNL     1      34.034 -21.596 -19.857  0.00  0.00    +0.020 C 
ATOM     24  C   UNL     1      33.403 -20.322 -20.437  0.00  0.00    +0.002 C 
ATOM     25  C   UNL     1      35.409 -21.295 -19.248  0.00  0.00    +0.002 C 
ATOM     26  C   UNL     1      34.330 -19.641 -21.441  0.00  0.00    +0.000 C 
ATOM     27  C   UNL     1      36.334 -20.611 -20.254  0.00  0.00    +0.000 C 
ATOM     28  C   UNL     1      35.700 -19.351 -20.835  0.00  0.00    +0.000 C 
ENDBRANCH  22  23
ENDBRANCH   1  22
TORSDOF 4
ENDMDL
MODEL 2
REMARK VINA RESULT:     -11.7      1.475      5.568
REMARK  Name = 24779675
REMARK  4 active torsions:
REMARK  status: ('A' for Active; 'I' for Inactive)
REMARK    1  A    between atoms: N_1  and  C_22
REMARK    2  A    between atoms: N_5  and  C_14
REMARK    3  A    between atoms: C_10  and  C_21
REMARK    4  A    between atoms: C_22  and  C_23
REMARK                            x       y       z     vdW  Elec       q    Type
REMARK                         _______ _______ _______ _____ _____    ______ ____
ROOT
ATOM      1  N   UNL     1      33.923 -22.486 -18.176  0.00  0.00    -0.259 N 
ATOM      2  N   UNL     1      34.861 -23.220 -16.211  0.00  0.00    -0.314 NA
ATOM      3  N   UNL     1      32.486 -23.162 -16.459  0.00  0.00    -0.295 NA
ATOM      4  N   UNL     1      33.402 -23.897 -14.494  0.00  0.00    -0.123 N 
ATOM      5  N   UNL     1      31.050 -23.854 -14.704  0.00  0.00    -0.274 N 
ATOM      6  N   UNL     1      33.345 -24.377 -13.239  0.00  0.00    -0.170 NA
ATOM      7  C   UNL     1      33.785 -22.966 -16.923  0.00  0.00    +0.203 C 
ATOM      8  C   UNL     1      34.669 -23.700 -14.961  0.00  0.00    +0.219 C 
ATOM      9  C   UNL     1      32.280 -23.623 -15.259  0.00  0.00    +0.279 C 
ATOM     10  C   UNL     1      35.503 -24.081 -13.934  0.00  0.00    +0.203 C 
ATOM     11  C   UNL     1      34.633 -24.487 -12.903  0.00  0.00    +0.116 C 
ATOM     12  H   UNL     1      33.110 -22.300 -18.698  0.00  0.00    +0.160 HD
ATOM     13  H   UNL     1      31.042 -24.204 -13.784  0.00  0.00    +0.156 HD
ENDROOT
BRANCH   5  14
ATOM     14  C   UNL     1      29.807 -23.645 -15.304  0.00  0.00    +0.051 C 
ATOM     15  C   UNL     1      29.235 -24.647 -16.090  0.00  0.00    +0.015 C 
ATOM     16  C   UNL     1      29.137 -22.436 -15.118  0.00  0.00    +0.015 C 
ATOM     17  C   UNL     1      27.994 -24.438 -16.691  0.00  0.00    +0.001 C 
ATOM     18  C   UNL     1      27.895 -22.229 -15.718  0.00  0.00    +0.001 C 
ATOM     19  C   UNL     1      27.323 -23.229 -16.505  0.00  0.00    +0.000 C 
ENDBRANCH   5  14
BRANCH  10  21
ATOM     20  N   UNL     1      38.084 -24.040 -13.944  0.00  0.00    -0.195 NA
ATOM     21  C   UNL     1      36.923 -24.057 -13.940  0.00  0.00    +0.087 C 
ENDBRANCH  10  21
BRANCH   1  22
ATOM     22  C   UNL     1      35.202 -22.233 -18.787  0.00  0.00    +0.099 C 
BRANCH  22  23
ATOM     23  C   UNL     1      35.019 -21.338 -20.011  0.00  0.00    +0.020 C 
ATOM     24  C   UNL     1      33.612 -20.725 -20.028  0.00  0.00    +0.002 C 
ATOM     25  C   UNL     1      36.092 -20.242 -20.047  0.00  0.00    +0.002 C 
ATOM     26  C   UNL     1      33.421 -19.783 -21.215  0.00  0.00    +0.000 C 
ATOM     27  C   UNL     1      35.897 -19.300 -21.234  0.00  0.00    +0.000 C 
ATOM     28  C   UNL     1      34.494 -18.700 -21.253  0.00  0.00    +0.000 C 
ENDBRANCH  22  23
ENDBRANCH   1  22
TORSDOF 4
ENDMDL
MODEL 3
REMARK VINA RESULT:     -10.5      1.293      6.512
REMARK  Name = 24779675
REMARK  4 active torsions:
REMARK  status: ('A' for Active; 'I' for Inactive)
REMARK    1  A    between atoms: N_1  and  C_22
REMARK    2  A    between atoms: N_5  and  C_14
REMARK    3  A    between atoms: C_10  and  C_21
REMARK    4  A    between atoms: C_22  and  C_23
REMARK                            x       y       z     vdW  Elec       q    Type
REMARK                         _______ _______ _______ _____ _____    ______ ____
ROOT
ATOM      1  N   UNL     1      35.217 -23.495 -15.724  0.00  0.00    -0.259 N 
ATOM      2  N   UNL     1      32.966 -23.764 -15.350  0.00  0.00    -0.314 NA
ATOM      3  N   UNL     1      33.729 -22.571 -17.274  0.00  0.00    -0.295 NA
ATOM      4  N   UNL     1      31.482 -22.829 -16.919  0.00  0.00    -0.123 N 
ATOM      5  N   UNL     1      32.201 -21.644 -18.831  0.00  0.00    -0.274 N 
ATOM      6  N   UNL     1      30.184 -22.664 -17.226  0.00  0.00    -0.170 NA
ATOM      7  C   UNL     1      33.937 -23.288 -16.098  0.00  0.00    +0.203 C 
ATOM      8  C   UNL     1      31.701 -23.531 -15.769  0.00  0.00    +0.219 C 
ATOM      9  C   UNL     1      32.520 -22.335 -17.694  0.00  0.00    +0.279 C 
ATOM     10  C   UNL     1      30.451 -23.849 -15.289  0.00  0.00    +0.203 C 
ATOM     11  C   UNL     1      29.558 -23.291 -16.226  0.00  0.00    +0.116 C 
ATOM     12  H   UNL     1      35.935 -23.134 -16.292  0.00  0.00    +0.160 HD
ATOM     13  H   UNL     1      31.242 -21.540 -19.028  0.00  0.00    +0.156 HD
ENDROOT
BRANCH   5  14
ATOM     14  C   UNL     1      33.091 -21.072 -19.741  0.00  0.00    +0.051 C 
ATOM     15  C   UNL     1      34.451 -21.376 -19.672  0.00  0.00    +0.015 C 
ATOM     16  C   UNL     1      32.621 -20.195 -20.720  0.00  0.00    +0.015 C 
ATOM     17  C   UNL     1      35.341 -20.802 -20.581  0.00  0.00    +0.001 C 
ATOM     18  C   UNL     1      33.511 -19.623 -21.628  0.00  0.00    +0.001 C 
ATOM     19  C   UNL     1      34.871 -19.926 -21.559  0.00  0.00    +0.000 C 
ENDBRANCH   5  14
BRANCH  10  21
ATOM     20  N   UNL     1      29.911 -25.175 -13.141  0.00  0.00    -0.195 NA
ATOM     21  C   UNL     1      30.155 -24.580 -14.107  0.00  0.00    +0.087 C 
ENDBRANCH  10  21
BRANCH   1  22
ATOM     22  C   UNL     1      35.584 -24.217 -14.534  0.00  0.00    +0.099 C 
BRANCH  22  23
ATOM     23  C   UNL     1      36.904 -24.950 -14.764  0.00  0.00    +0.020 C 
ATOM     24  C   UNL     1      37.950 -24.004 -15.370  0.00  0.00    +0.002 C 
ATOM     25  C   UNL     1      37.418 -25.565 -13.455  0.00  0.00    +0.002 C 
ATOM     26  C   UNL     1      39.297 -24.700 -15.560  0.00  0.00    +0.000 C 
ATOM     27  C   UNL     1      38.765 -26.257 -13.648  0.00  0.00    +0.000 C 
ATOM     28  C   UNL     1      39.800 -25.317 -14.260  0.00  0.00    +0.000 C 
ENDBRANCH  22  23
ENDBRANCH   1  22
TORSDOF 4
ENDMDL
MODEL 4
REMARK VINA RESULT:     -10.5      1.318      6.652
REMARK  Name = 24779675
REMARK  4 active torsions:
REMARK  status: ('A' for Active; 'I' for Inactive)
REMARK    1  A    between atoms: N_1  and  C_22
REMARK    2  A    between atoms: N_5  and  C_14
REMARK    3  A    between atoms: C_10  and  C_21
REMARK    4  A    between atoms: C_22  and  C_23
REMARK                            x       y       z     vdW  Elec       q    Type
REMARK                         _______ _______ _______ _____ _____    ______ ____
ROOT
ATOM      1  N   UNL     1      35.050 -24.042 -16.146  0.00  0.00    -0.259 N 
ATOM      2  N   UNL     1      32.800 -24.048 -15.680  0.00  0.00    -0.314 NA
ATOM      3  N   UNL     1      33.640 -22.778 -17.520  0.00  0.00    -0.295 NA
ATOM      4  N   UNL     1      31.395 -22.773 -17.072  0.00  0.00    -0.123 N 
ATOM      5  N   UNL     1      32.191 -21.506 -18.899  0.00  0.00    -0.274 N 
ATOM      6  N   UNL     1      30.120 -22.408 -17.292  0.00  0.00    -0.170 NA
ATOM      7  C   UNL     1      33.796 -23.632 -16.430  0.00  0.00    +0.203 C 
ATOM      8  C   UNL     1      31.563 -23.610 -16.007  0.00  0.00    +0.219 C 
ATOM      9  C   UNL     1      32.459 -22.344 -17.850  0.00  0.00    +0.279 C 
ATOM     10  C   UNL     1      30.301 -23.808 -15.493  0.00  0.00    +0.203 C 
ATOM     11  C   UNL     1      29.455 -23.046 -16.324  0.00  0.00    +0.116 C 
ATOM     12  H   UNL     1      35.786 -23.723 -16.715  0.00  0.00    +0.160 HD
ATOM     13  H   UNL     1      31.248 -21.258 -19.034  0.00  0.00    +0.156 HD
ENDROOT
BRANCH   5  14
ATOM     14  C   UNL     1      33.114 -20.966 -19.797  0.00  0.00    +0.051 C 
ATOM     15  C   UNL     1      32.680 -20.120 -20.818  0.00  0.00    +0.015 C 
ATOM     16  C   UNL     1      34.469 -21.273 -19.673  0.00  0.00    +0.015 C 
ATOM     17  C   UNL     1      33.602 -19.581 -21.716  0.00  0.00    +0.001 C 
ATOM     18  C   UNL     1      35.390 -20.734 -20.571  0.00  0.00    +0.001 C 
ATOM     19  C   UNL     1      34.957 -19.888 -21.593  0.00  0.00    +0.000 C 
ENDBRANCH   5  14
BRANCH  10  21
ATOM     20  N   UNL     1      29.675 -25.264 -13.456  0.00  0.00    -0.195 NA
ATOM     21  C   UNL     1      29.955 -24.609 -14.372  0.00  0.00    +0.087 C 
ENDBRANCH  10  21
BRANCH   1  22
ATOM     22  C   UNL     1      35.362 -24.922 -15.051  0.00  0.00    +0.099 C 
BRANCH  22  23
ATOM     23  C   UNL     1      36.425 -24.280 -14.162  0.00  0.00    +0.020 C 
ATOM     24  C   UNL     1      35.786 -23.685 -12.899  0.00  0.00    +0.002 C 
ATOM     25  C   UNL     1      37.513 -25.298 -13.795  0.00  0.00    +0.002 C 
ATOM     26  C   UNL     1      36.835 -23.083 -11.966  0.00  0.00    +0.000 C 
ATOM     27  C   UNL     1      38.559 -24.694 -12.861  0.00  0.00    +0.000 C 
ATOM     28  C   UNL     1      37.920 -24.095 -11.612  0.00  0.00    +0.000 C 
ENDBRANCH  22  23
ENDBRANCH   1  22
TORSDOF 4
ENDMDL
MODEL 5
REMARK VINA RESULT:     -10.4      1.777      7.281
REMARK  Name = 24779675
REMARK  4 active torsions:
REMARK  status: ('A' for Active; 'I' for Inactive)
REMARK    1  A    between atoms: N_1  and  C_22
REMARK    2  A    between atoms: N_5  and  C_14
REMARK    3  A    between atoms: C_10  and  C_21
REMARK    4  A    between atoms: C_22  and  C_23
REMARK                            x       y       z     vdW  Elec       q    Type
REMARK                         _______ _______ _______ _____ _____    ______ ____
ROOT
ATOM      1  N   UNL     1      35.514 -23.400 -15.760  0.00  0.00    -0.259 N 
ATOM      2  N   UNL     1      35.231 -22.223 -17.712  0.00  0.00    -0.314 NA
ATOM      3  N   UNL     1      33.343 -23.168 -16.597  0.00  0.00    -0.295 NA
ATOM      4  N   UNL     1      33.040 -21.998 -18.541  0.00  0.00    -0.123 N 
ATOM      5  N   UNL     1      31.151 -22.919 -17.464  0.00  0.00    -0.274 N 
ATOM      6  N   UNL     1      32.300 -21.477 -19.535  0.00  0.00    -0.170 NA
ATOM      7  C   UNL     1      34.705 -22.909 -16.722  0.00  0.00    +0.203 C 
ATOM      8  C   UNL     1      34.378 -21.751 -18.650  0.00  0.00    +0.219 C 
ATOM      9  C   UNL     1      32.505 -22.724 -17.489  0.00  0.00    +0.279 C 
ATOM     10  C   UNL     1      34.522 -21.012 -19.802  0.00  0.00    +0.203 C 
ATOM     11  C   UNL     1      33.212 -20.874 -20.303  0.00  0.00    +0.116 C 
ATOM     12  H   UNL     1      35.109 -23.912 -15.024  0.00  0.00    +0.160 HD
ATOM     13  H   UNL     1      30.637 -22.526 -18.206  0.00  0.00    +0.156 HD
ENDROOT
BRANCH   5  14
ATOM     14  C   UNL     1      30.421 -23.616 -16.500  0.00  0.00    +0.051 C 
ATOM     15  C   UNL     1      31.087 -24.309 -15.488  0.00  0.00    +0.015 C 
ATOM     16  C   UNL     1      29.027 -23.619 -16.547  0.00  0.00    +0.015 C 
ATOM     17  C   UNL     1      30.358 -25.007 -14.525  0.00  0.00    +0.001 C 
ATOM     18  C   UNL     1      28.299 -24.316 -15.583  0.00  0.00    +0.001 C 
ATOM     19  C   UNL     1      28.964 -25.010 -14.572  0.00  0.00    +0.000 C 
ENDBRANCH   5  14
BRANCH  10  21
ATOM     20  N   UNL     1      36.728 -20.104 -20.788  0.00  0.00    -0.195 NA
ATOM     21  C   UNL     1      35.736 -20.511 -20.345  0.00  0.00    +0.087 C 
ENDBRANCH  10  21
BRANCH   1  22
ATOM     22  C   UNL     1      36.941 -23.212 -15.758  0.00  0.00    +0.099 C 
BRANCH  22  23
ATOM     23  C   UNL     1      37.549 -23.900 -14.537  0.00  0.00    +0.020 C 
ATOM     24  C   UNL     1      36.786 -23.516 -13.263  0.00  0.00    +0.002 C 
ATOM     25  C   UNL     1      37.565 -25.423 -14.726  0.00  0.00    +0.002 C 
ATOM     26  C   UNL     1      37.341 -24.234 -12.034  0.00  0.00    +0.000 C 
ATOM     27  C   UNL     1      38.119 -26.138 -13.495  0.00  0.00    +0.000 C 
ATOM     28  C   UNL     1      37.364 -25.746 -12.228  0.00  0.00    +0.000 C 
ENDBRANCH  22  23
ENDBRANCH   1  22
TORSDOF 4
ENDMDL
