MODEL 1
REMARK VINA RESULT:     -13.3      0.000      0.000
REMARK  Name = 9999276
REMARK  5 active torsions:
REMARK  status: ('A' for Active; 'I' for Inactive)
REMARK    1  A    between atoms: C_3  and  C_11
REMARK    2  A    between atoms: C_6  and  C_20
REMARK    3  A    between atoms: C_14  and  N_19
REMARK    4  A    between atoms: C_25  and  C_27
REMARK    5  A    between atoms: C_27  and  O_28
REMARK                            x       y       z     vdW  Elec       q    Type
REMARK                         _______ _______ _______ _____ _____    ______ ____
ROOT
ATOM      1  N   UNL     1      34.195 -23.254 -16.438  0.00  0.00    -0.400 NA
ATOM      2  N   UNL     1      32.083 -24.940 -13.985  0.00  0.00    -0.242 NA
ATOM      3  C   UNL     1      33.757 -23.965 -15.373  0.00  0.00    +0.149 C 
ATOM      4  C   UNL     1      32.429 -24.219 -15.069  0.00  0.00    +0.107 C 
ATOM      5  C   UNL     1      31.476 -23.684 -15.951  0.00  0.00    +0.005 C 
ATOM      6  C   UNL     1      33.248 -22.759 -17.259  0.00  0.00    +0.131 C 
ATOM      7  C   UNL     1      31.890 -22.942 -17.065  0.00  0.00    +0.030 C 
ATOM      8  C   UNL     1      30.122 -23.919 -15.679  0.00  0.00    +0.056 C 
ATOM      9  C   UNL     1      29.755 -24.661 -14.564  0.00  0.00    -0.001 C 
ATOM     10  C   UNL     1      30.765 -25.145 -13.756  0.00  0.00    +0.095 C 
ENDROOT
BRANCH   3  11
ATOM     11  C   UNL     1      34.831 -24.464 -14.540  0.00  0.00    +0.033 C 
ATOM     12  C   UNL     1      35.062 -23.897 -13.288  0.00  0.00    +0.027 C 
ATOM     13  C   UNL     1      35.633 -25.512 -14.993  0.00  0.00    +0.003 C 
ATOM     14  C   UNL     1      36.097 -24.378 -12.486  0.00  0.00    +0.143 C 
ATOM     15  C   UNL     1      36.668 -25.993 -14.191  0.00  0.00    +0.002 C 
ATOM     16  C   UNL     1      36.901 -25.425 -12.938  0.00  0.00    +0.024 C 
BRANCH  14  19
ATOM     17  O   UNL     1      37.025 -22.756 -11.141  0.00  0.00    -0.126 OA
ATOM     18  O   UNL     1      35.845 -24.353 -10.198  0.00  0.00    -0.126 OA
ATOM     19  N   UNL     1      36.334 -23.800 -11.210  0.00  0.00    +0.058 N 
ENDBRANCH  14  19
ENDBRANCH   3  11
BRANCH   6  20
ATOM     20  C   UNL     1      33.746 -22.004 -18.384  0.00  0.00    +0.030 C 
ATOM     21  C   UNL     1      35.120 -21.920 -18.621  0.00  0.00    +0.003 C 
ATOM     22  C   UNL     1      32.854 -21.353 -19.240  0.00  0.00    +0.003 C 
ATOM     23  C   UNL     1      35.600 -21.191 -19.708  0.00  0.00    +0.007 C 
ATOM     24  C   UNL     1      33.335 -20.624 -20.329  0.00  0.00    +0.007 C 
ATOM     25  C   UNL     1      34.707 -20.543 -20.562  0.00  0.00    +0.075 C 
BRANCH  25  27
ATOM     26  O   UNL     1      34.711 -19.773 -22.827  0.00  0.00    -0.245 OA
ATOM     27  C   UNL     1      35.207 -19.782 -21.696  0.00  0.00    +0.338 C 
BRANCH  27  28
ATOM     28  O   UNL     1      36.313 -19.051 -21.386  0.00  0.00    -0.477 OA
ATOM     29  H   UNL     1      36.895 -18.769 -22.065  0.00  0.00    +0.295 HD
ENDBRANCH  27  28
ENDBRANCH  25  27
ENDBRANCH   6  20
TORSDOF 5
ENDMDL
MODEL 2
REMARK VINA RESULT:     -12.5      1.906      2.167
REMARK  Name = 9999276
REMARK  5 active torsions:
REMARK  status: ('A' for Active; 'I' for Inactive)
REMARK    1  A    between atoms: C_3  and  C_11
REMARK    2  A    between atoms: C_6  and  C_20
REMARK    3  A    between atoms: C_14  and  N_19
REMARK    4  A    between atoms: C_25  and  C_27
REMARK    5  A    between atoms: C_27  and  O_28
REMARK                            x       y       z     vdW  Elec       q    Type
REMARK                         _______ _______ _______ _____ _____    ______ ____
ROOT
ATOM      1  N   UNL     1      34.557 -22.912 -16.748  0.00  0.00    -0.400 NA
ATOM      2  N   UNL     1      32.684 -24.703 -14.177  0.00  0.00    -0.242 NA
ATOM      3  C   UNL     1      34.218 -23.622 -15.646  0.00  0.00    +0.149 C 
ATOM      4  C   UNL     1      32.930 -23.993 -15.296  0.00  0.00    +0.107 C 
ATOM      5  C   UNL     1      31.907 -23.589 -16.170  0.00  0.00    +0.005 C 
ATOM      6  C   UNL     1      33.545 -22.545 -17.559  0.00  0.00    +0.131 C 
ATOM      7  C   UNL     1      32.218 -22.853 -17.321  0.00  0.00    +0.030 C 
ATOM      8  C   UNL     1      30.590 -23.945 -15.851  0.00  0.00    +0.056 C 
ATOM      9  C   UNL     1      30.326 -24.677 -14.701  0.00  0.00    -0.001 C 
ATOM     10  C   UNL     1      31.398 -25.028 -13.905  0.00  0.00    +0.095 C 
ENDROOT
BRANCH   3  11
ATOM     11  C   UNL     1      35.357 -23.981 -14.826  0.00  0.00    +0.033 C 
ATOM     12  C   UNL     1      36.144 -25.078 -15.170  0.00  0.00    +0.027 C 
ATOM     13  C   UNL     1      35.661 -23.228 -13.692  0.00  0.00    +0.003 C 
ATOM     14  C   UNL     1      37.241 -25.422 -14.380  0.00  0.00    +0.143 C 
ATOM     15  C   UNL     1      36.758 -23.572 -12.902  0.00  0.00    +0.002 C 
ATOM     16  C   UNL     1      37.547 -24.671 -13.245  0.00  0.00    +0.024 C 
BRANCH  14  19
ATOM     17  O   UNL     1      37.484 -27.567 -15.181  0.00  0.00    -0.126 OA
ATOM     18  O   UNL     1      39.285 -26.462 -14.576  0.00  0.00    -0.126 OA
ATOM     19  N   UNL     1      38.044 -26.540 -14.729  0.00  0.00    +0.058 N 
ENDBRANCH  14  19
ENDBRANCH   3  11
BRANCH   6  20
ATOM     20  C   UNL     1      33.939 -21.788 -18.724  0.00  0.00    +0.030 C 
ATOM     21  C   UNL     1      35.289 -21.662 -19.057  0.00  0.00    +0.003 C 
ATOM     22  C   UNL     1      32.968 -21.177 -19.522  0.00  0.00    +0.003 C 
ATOM     23  C   UNL     1      35.668 -20.932 -20.183  0.00  0.00    +0.007 C 
ATOM     24  C   UNL     1      33.348 -20.446 -20.648  0.00  0.00    +0.007 C 
ATOM     25  C   UNL     1      34.697 -20.323 -20.978  0.00  0.00    +0.075 C 
BRANCH  25  27
ATOM     26  O   UNL     1      34.572 -19.647 -23.270  0.00  0.00    -0.245 OA
ATOM     27  C   UNL     1      35.091 -19.560 -22.152  0.00  0.00    +0.338 C 
BRANCH  27  28
ATOM     28  O   UNL     1      36.121 -18.708 -21.897  0.00  0.00    -0.477 OA
ATOM     29  H   UNL     1      36.197 -17.906 -22.376  0.00  0.00    +0.295 HD
ENDBRANCH  27  28
ENDBRANCH  25  27
ENDBRANCH   6  20
TORSDOF 5
ENDMDL
MODEL 3
REMARK VINA RESULT:     -11.9      3.178      5.171
REMARK  Name = 9999276
REMARK  5 active torsions:
REMARK  status: ('A' for Active; 'I' for Inactive)
REMARK    1  A    between atoms: C_3  and  C_11
REMARK    2  A    between atoms: C_6  and  C_20
REMARK    3  A    between atoms: C_14  and  N_19
REMARK    4  A    between atoms: C_25  and  C_27
REMARK    5  A    between atoms: C_27  and  O_28
REMARK                            x       y       z     vdW  Elec       q    Type
REMARK                         _______ _______ _______ _____ _____    ______ ____
ROOT
ATOM      1  N   UNL     1      32.983 -22.688 -17.305  0.00  0.00    -0.400 NA
ATOM      2  N   UNL     1      33.842 -24.439 -14.219  0.00  0.00    -0.242 NA
ATOM      3  C   UNL     1      32.918 -23.393 -16.150  0.00  0.00    +0.149 C 
ATOM      4  C   UNL     1      34.000 -23.735 -15.357  0.00  0.00    +0.107 C 
ATOM      5  C   UNL     1      35.261 -23.305 -15.806  0.00  0.00    +0.005 C 
ATOM      6  C   UNL     1      34.210 -22.296 -17.699  0.00  0.00    +0.131 C 
ATOM      7  C   UNL     1      35.369 -22.574 -16.996  0.00  0.00    +0.030 C 
ATOM      8  C   UNL     1      36.381 -23.631 -15.031  0.00  0.00    +0.056 C 
ATOM      9  C   UNL     1      36.229 -24.357 -13.857  0.00  0.00    -0.001 C 
ATOM     10  C   UNL     1      34.950 -24.733 -13.499  0.00  0.00    +0.095 C 
ENDROOT
BRANCH   3  11
ATOM     11  C   UNL     1      31.568 -23.777 -15.792  0.00  0.00    +0.033 C 
ATOM     12  C   UNL     1      30.487 -23.280 -16.518  0.00  0.00    +0.027 C 
ATOM     13  C   UNL     1      31.352 -24.644 -14.721  0.00  0.00    +0.003 C 
ATOM     14  C   UNL     1      29.187 -23.650 -16.173  0.00  0.00    +0.143 C 
ATOM     15  C   UNL     1      30.053 -25.014 -14.376  0.00  0.00    +0.002 C 
ATOM     16  C   UNL     1      28.970 -24.516 -15.101  0.00  0.00    +0.024 C 
BRANCH  14  19
ATOM     17  O   UNL     1      27.399 -23.943 -17.592  0.00  0.00    -0.126 OA
ATOM     18  O   UNL     1      27.834 -21.918 -16.857  0.00  0.00    -0.126 OA
ATOM     19  N   UNL     1      28.085 -23.144 -16.912  0.00  0.00    +0.058 N 
ENDBRANCH  14  19
ENDBRANCH   3  11
BRANCH   6  20
ATOM     20  C   UNL     1      34.247 -21.549 -18.933  0.00  0.00    +0.030 C 
ATOM     21  C   UNL     1      35.471 -21.224 -19.522  0.00  0.00    +0.003 C 
ATOM     22  C   UNL     1      33.057 -21.146 -19.543  0.00  0.00    +0.003 C 
ATOM     23  C   UNL     1      35.506 -20.503 -20.715  0.00  0.00    +0.007 C 
ATOM     24  C   UNL     1      33.092 -20.424 -20.737  0.00  0.00    +0.007 C 
ATOM     25  C   UNL     1      34.316 -20.102 -21.322  0.00  0.00    +0.075 C 
BRANCH  25  27
ATOM     26  O   UNL     1      35.371 -19.061 -23.200  0.00  0.00    -0.245 OA
ATOM     27  C   UNL     1      34.351 -19.349 -22.566  0.00  0.00    +0.338 C 
BRANCH  27  28
ATOM     28  O   UNL     1      33.110 -18.978 -22.985  0.00  0.00    -0.477 OA
ATOM     29  H   UNL     1      33.008 -18.497 -23.783  0.00  0.00    +0.295 HD
ENDBRANCH  27  28
ENDBRANCH  25  27
ENDBRANCH   6  20
TORSDOF 5
ENDMDL
MODEL 4
REMARK VINA RESULT:     -10.4      9.270     13.422
REMARK  Name = 9999276
REMARK  5 active torsions:
REMARK  status: ('A' for Active; 'I' for Inactive)
REMARK    1  A    between atoms: C_3  and  C_11
REMARK    2  A    between atoms: C_6  and  C_20
REMARK    3  A    between atoms: C_14  and  N_19
REMARK    4  A    between atoms: C_25  and  C_27
REMARK    5  A    between atoms: C_27  and  O_28
REMARK                            x       y       z     vdW  Elec       q    Type
REMARK                         _______ _______ _______ _____ _____    ______ ____
ROOT
ATOM      1  N   UNL     1      33.767 -13.046 -24.614  0.00  0.00    -0.400 NA
ATOM      2  N   UNL     1      32.799 -16.520 -25.179  0.00  0.00    -0.242 NA
ATOM      3  C   UNL     1      33.543 -14.373 -24.462  0.00  0.00    +0.149 C 
ATOM      4  C   UNL     1      32.985 -15.207 -25.417  0.00  0.00    +0.107 C 
ATOM      5  C   UNL     1      32.629 -14.606 -26.636  0.00  0.00    +0.005 C 
ATOM      6  C   UNL     1      33.411 -12.511 -25.798  0.00  0.00    +0.131 C 
ATOM      7  C   UNL     1      32.844 -13.236 -26.831  0.00  0.00    +0.030 C 
ATOM      8  C   UNL     1      32.061 -15.416 -27.628  0.00  0.00    +0.056 C 
ATOM      9  C   UNL     1      31.866 -16.771 -27.393  0.00  0.00    -0.001 C 
ATOM     10  C   UNL     1      32.248 -17.269 -26.163  0.00  0.00    +0.095 C 
ENDROOT
BRANCH   3  11
ATOM     11  C   UNL     1      33.952 -14.875 -23.166  0.00  0.00    +0.033 C 
ATOM     12  C   UNL     1      34.549 -16.130 -23.064  0.00  0.00    +0.027 C 
ATOM     13  C   UNL     1      33.746 -14.102 -22.024  0.00  0.00    +0.003 C 
ATOM     14  C   UNL     1      34.943 -16.614 -21.816  0.00  0.00    +0.143 C 
ATOM     15  C   UNL     1      34.140 -14.585 -20.777  0.00  0.00    +0.002 C 
ATOM     16  C   UNL     1      34.737 -15.842 -20.672  0.00  0.00    +0.024 C 
BRANCH  14  19
ATOM     17  O   UNL     1      35.770 -18.362 -20.567  0.00  0.00    -0.126 OA
ATOM     18  O   UNL     1      35.848 -18.508 -22.759  0.00  0.00    -0.126 OA
ATOM     19  N   UNL     1      35.552 -17.893 -21.709  0.00  0.00    +0.058 N 
ENDBRANCH  14  19
ENDBRANCH   3  11
BRANCH   6  20
ATOM     20  C   UNL     1      33.660 -11.095 -25.929  0.00  0.00    +0.030 C 
ATOM     21  C   UNL     1      34.963 -10.600 -25.840  0.00  0.00    +0.003 C 
ATOM     22  C   UNL     1      32.598 -10.214 -26.145  0.00  0.00    +0.003 C 
ATOM     23  C   UNL     1      35.204  -9.232 -25.967  0.00  0.00    +0.007 C 
ATOM     24  C   UNL     1      32.838  -8.845 -26.272  0.00  0.00    +0.007 C 
ATOM     25  C   UNL     1      34.140  -8.355 -26.183  0.00  0.00    +0.075 C 
BRANCH  25  27
ATOM     26  O   UNL     1      35.269  -6.417 -27.017  0.00  0.00    -0.245 OA
ATOM     27  C   UNL     1      34.390  -6.928 -26.315  0.00  0.00    +0.338 C 
BRANCH  27  28
ATOM     28  O   UNL     1      33.534  -6.178 -25.568  0.00  0.00    -0.477 OA
ATOM     29  H   UNL     1      33.804  -5.851 -24.732  0.00  0.00    +0.295 HD
ENDBRANCH  27  28
ENDBRANCH  25  27
ENDBRANCH   6  20
TORSDOF 5
ENDMDL
