MODEL 1
REMARK VINA RESULT:     -12.8      0.000      0.000
REMARK  Name = 23729147
REMARK  5 active torsions:
REMARK  status: ('A' for Active; 'I' for Inactive)
REMARK    1  A    between atoms: O_1  and  C_6
REMARK    2  A    between atoms: O_1  and  C_18
REMARK    3  A    between atoms: C_18  and  C_20
REMARK    4  A    between atoms: N_19  and  C_26
REMARK    5  A    between atoms: C_26  and  C_28
REMARK                            x       y       z     vdW  Elec       q    Type
REMARK                         _______ _______ _______ _____ _____    ______ ____
ROOT
ATOM      1  O   UNL     1      34.575 -22.772 -17.210  0.00  0.00    -0.479 OA
ENDROOT
BRANCH   1   6
ATOM      2  N   UNL     1      35.644 -24.097 -12.673  0.00  0.00    -0.332 NA
ATOM      3  N   UNL     1      37.446 -23.413 -14.120  0.00  0.00    -0.317 NA
ATOM      4  N   UNL     1      37.052 -22.754 -16.322  0.00  0.00    -0.335 N 
ATOM      5  N   UNL     1      37.861 -24.071 -11.910  0.00  0.00    -0.283 N 
ATOM      6  C   UNL     1      34.233 -23.215 -15.955  0.00  0.00    +0.130 C 
ATOM      7  C   UNL     1      35.168 -23.432 -14.928  0.00  0.00    +0.177 C 
ATOM      8  C   UNL     1      32.881 -23.453 -15.728  0.00  0.00    +0.033 C 
ATOM      9  C   UNL     1      34.759 -23.888 -13.664  0.00  0.00    +0.137 C 
ATOM     10  C   UNL     1      36.533 -23.213 -15.089  0.00  0.00    +0.181 C 
ATOM     11  C   UNL     1      32.465 -23.905 -14.482  0.00  0.00    +0.005 C 
ATOM     12  C   UNL     1      33.400 -24.117 -13.464  0.00  0.00    +0.030 C 
ATOM     13  C   UNL     1      36.939 -23.848 -12.955  0.00  0.00    +0.197 C 
ATOM     14  H   UNL     1      38.019 -22.603 -16.424  0.00  0.00    +0.144 HD
ATOM     15  H   UNL     1      36.445 -22.585 -17.079  0.00  0.00    +0.144 HD
ATOM     16  H   UNL     1      37.546 -24.391 -11.034  0.00  0.00    +0.156 HD
ATOM     17  H   UNL     1      38.821 -23.905 -12.057  0.00  0.00    +0.156 HD
ENDBRANCH   1   6
BRANCH   1  18
ATOM     18  C   UNL     1      33.532 -22.671 -18.162  0.00  0.00    +0.205 C 
BRANCH  18  20
ATOM     19  N   UNL     1      35.007 -19.530 -20.733  0.00  0.00    +0.390 N 
ATOM     20  C   UNL     1      34.075 -21.971 -19.404  0.00  0.00    +0.040 C 
ATOM     21  C   UNL     1      35.456 -21.365 -19.137  0.00  0.00    -0.019 C 
ATOM     22  C   UNL     1      33.115 -20.878 -19.884  0.00  0.00    -0.019 C 
ATOM     23  C   UNL     1      35.963 -20.576 -20.345  0.00  0.00    -0.077 C 
ATOM     24  C   UNL     1      33.698 -20.105 -21.069  0.00  0.00    -0.077 C 
ATOM     25  H   UNL     1      34.882 -18.907 -19.935  0.00  0.00    -0.079 HD
BRANCH  19  26
ATOM     26  C   UNL     1      35.529 -18.752 -21.857  0.00  0.00    -0.048 C 
BRANCH  26  28
ATOM     27  F   UNL     1      35.064 -17.181 -24.170  0.00  0.00    -0.205 F 
ATOM     28  C   UNL     1      35.083 -17.315 -21.799  0.00  0.00    -0.016 C 
ATOM     29  C   UNL     1      34.873 -16.599 -22.978  0.00  0.00    +0.134 C 
ATOM     30  C   UNL     1      34.881 -16.700 -20.565  0.00  0.00    -0.004 C 
ATOM     31  C   UNL     1      34.460 -15.267 -22.921  0.00  0.00    +0.029 C 
ATOM     32  C   UNL     1      34.468 -15.369 -20.507  0.00  0.00    -0.000 C 
ATOM     33  C   UNL     1      34.258 -14.652 -21.685  0.00  0.00    +0.002 C 
ENDBRANCH  26  28
ENDBRANCH  19  26
ENDBRANCH  18  20
ENDBRANCH   1  18
TORSDOF 5
ENDMDL
MODEL 2
REMARK VINA RESULT:     -12.4      1.528      2.419
REMARK  Name = 23729147
REMARK  5 active torsions:
REMARK  status: ('A' for Active; 'I' for Inactive)
REMARK    1  A    between atoms: O_1  and  C_6
REMARK    2  A    between atoms: O_1  and  C_18
REMARK    3  A    between atoms: C_18  and  C_20
REMARK    4  A    between atoms: N_19  and  C_26
REMARK    5  A    between atoms: C_26  and  C_28
REMARK                            x       y       z     vdW  Elec       q    Type
REMARK                         _______ _______ _______ _____ _____    ______ ____
ROOT
ATOM      1  O   UNL     1      34.066 -23.057 -17.452  0.00  0.00    -0.479 OA
ENDROOT
BRANCH   1   6
ATOM      2  N   UNL     1      33.511 -24.175 -12.769  0.00  0.00    -0.332 NA
ATOM      3  N   UNL     1      35.746 -23.856 -13.612  0.00  0.00    -0.317 NA
ATOM      4  N   UNL     1      36.136 -23.317 -15.847  0.00  0.00    -0.335 N 
ATOM      5  N   UNL     1      35.375 -24.399 -11.363  0.00  0.00    -0.283 N 
ATOM      6  C   UNL     1      33.301 -23.354 -16.350  0.00  0.00    +0.130 C 
ATOM      7  C   UNL     1      33.840 -23.620 -15.079  0.00  0.00    +0.177 C 
ATOM      8  C   UNL     1      31.923 -23.384 -16.541  0.00  0.00    +0.033 C 
ATOM      9  C   UNL     1      33.006 -23.919 -13.989  0.00  0.00    +0.137 C 
ATOM     10  C   UNL     1      35.208 -23.605 -14.820  0.00  0.00    +0.181 C 
ATOM     11  C   UNL     1      31.088 -23.679 -15.470  0.00  0.00    +0.005 C 
ATOM     12  C   UNL     1      31.632 -23.942 -14.209  0.00  0.00    +0.030 C 
ATOM     13  C   UNL     1      34.854 -24.129 -12.647  0.00  0.00    +0.197 C 
ATOM     14  H   UNL     1      37.100 -23.309 -15.652  0.00  0.00    +0.144 HD
ATOM     15  H   UNL     1      35.817 -23.122 -16.759  0.00  0.00    +0.144 HD
ATOM     16  H   UNL     1      34.768 -24.605 -10.618  0.00  0.00    +0.156 HD
ATOM     17  H   UNL     1      36.349 -24.379 -11.214  0.00  0.00    +0.156 HD
ENDBRANCH   1   6
BRANCH   1  18
ATOM     18  C   UNL     1      33.376 -22.703 -18.636  0.00  0.00    +0.205 C 
BRANCH  18  20
ATOM     19  N   UNL     1      35.030 -19.849 -21.425  0.00  0.00    +0.390 N 
ATOM     20  C   UNL     1      33.976 -21.408 -19.177  0.00  0.00    +0.040 C 
ATOM     21  C   UNL     1      33.069 -20.783 -20.242  0.00  0.00    -0.019 C 
ATOM     22  C   UNL     1      35.371 -21.649 -19.762  0.00  0.00    -0.019 C 
ATOM     23  C   UNL     1      33.709 -19.539 -20.860  0.00  0.00    -0.077 C 
ATOM     24  C   UNL     1      35.936 -20.376 -20.396  0.00  0.00    -0.077 C 
ATOM     25  H   UNL     1      34.907 -20.570 -22.135  0.00  0.00    -0.079 HD
BRANCH  19  26
ATOM     26  C   UNL     1      35.607 -18.662 -22.056  0.00  0.00    -0.048 C 
BRANCH  26  28
ATOM     27  F   UNL     1      35.155 -16.025 -22.993  0.00  0.00    -0.205 F 
ATOM     28  C   UNL     1      34.956 -18.359 -23.380  0.00  0.00    -0.016 C 
ATOM     29  C   UNL     1      34.763 -17.036 -23.779  0.00  0.00    +0.134 C 
ATOM     30  C   UNL     1      34.544 -19.404 -24.206  0.00  0.00    -0.004 C 
ATOM     31  C   UNL     1      34.158 -16.760 -25.006  0.00  0.00    +0.029 C 
ATOM     32  C   UNL     1      33.939 -19.128 -25.432  0.00  0.00    -0.000 C 
ATOM     33  C   UNL     1      33.746 -17.805 -25.832  0.00  0.00    +0.002 C 
ENDBRANCH  26  28
ENDBRANCH  19  26
ENDBRANCH  18  20
ENDBRANCH   1  18
TORSDOF 5
ENDMDL
MODEL 3
REMARK VINA RESULT:     -11.9      3.750     10.422
REMARK  Name = 23729147
REMARK  5 active torsions:
REMARK  status: ('A' for Active; 'I' for Inactive)
REMARK    1  A    between atoms: O_1  and  C_6
REMARK    2  A    between atoms: O_1  and  C_18
REMARK    3  A    between atoms: C_18  and  C_20
REMARK    4  A    between atoms: N_19  and  C_26
REMARK    5  A    between atoms: C_26  and  C_28
REMARK                            x       y       z     vdW  Elec       q    Type
REMARK                         _______ _______ _______ _____ _____    ______ ____
ROOT
ATOM      1  O   UNL     1      34.920 -18.169 -22.673  0.00  0.00    -0.479 OA
ENDROOT
BRANCH   1   6
ATOM      2  N   UNL     1      33.206 -14.725 -25.620  0.00  0.00    -0.332 NA
ATOM      3  N   UNL     1      33.419 -16.966 -26.481  0.00  0.00    -0.317 NA
ATOM      4  N   UNL     1      34.232 -18.704 -25.155  0.00  0.00    -0.335 N 
ATOM      5  N   UNL     1      32.601 -15.233 -27.829  0.00  0.00    -0.283 N 
ATOM      6  C   UNL     1      34.544 -16.877 -22.952  0.00  0.00    +0.130 C 
ATOM      7  C   UNL     1      34.049 -16.466 -24.201  0.00  0.00    +0.177 C 
ATOM      8  C   UNL     1      34.675 -15.955 -21.918  0.00  0.00    +0.033 C 
ATOM      9  C   UNL     1      33.681 -15.129 -24.429  0.00  0.00    +0.137 C 
ATOM     10  C   UNL     1      33.891 -17.337 -25.276  0.00  0.00    +0.181 C 
ATOM     11  C   UNL     1      34.315 -14.630 -22.131  0.00  0.00    +0.005 C 
ATOM     12  C   UNL     1      33.823 -14.229 -23.377  0.00  0.00    +0.030 C 
ATOM     13  C   UNL     1      33.101 -15.665 -26.582  0.00  0.00    +0.197 C 
ATOM     14  H   UNL     1      34.117 -19.310 -25.922  0.00  0.00    +0.144 HD
ATOM     15  H   UNL     1      34.584 -19.051 -24.303  0.00  0.00    +0.144 HD
ATOM     16  H   UNL     1      32.351 -14.290 -27.959  0.00  0.00    +0.156 HD
ATOM     17  H   UNL     1      32.501 -15.875 -28.569  0.00  0.00    +0.156 HD
ENDBRANCH   1   6
BRANCH   1  18
ATOM     18  C   UNL     1      35.260 -18.462 -21.330  0.00  0.00    +0.205 C 
BRANCH  18  20
ATOM     19  N   UNL     1      33.785 -21.844 -19.085  0.00  0.00    +0.390 N 
ATOM     20  C   UNL     1      34.799 -19.882 -21.012  0.00  0.00    +0.040 C 
ATOM     21  C   UNL     1      33.341 -19.895 -20.542  0.00  0.00    -0.019 C 
ATOM     22  C   UNL     1      35.692 -20.525 -19.947  0.00  0.00    -0.019 C 
ATOM     23  C   UNL     1      32.902 -21.301 -20.126  0.00  0.00    -0.077 C 
ATOM     24  C   UNL     1      35.176 -21.911 -19.551  0.00  0.00    -0.077 C 
ATOM     25  H   UNL     1      33.751 -21.215 -18.284  0.00  0.00    -0.079 HD
BRANCH  19  26
ATOM     26  C   UNL     1      33.323 -23.166 -18.662  0.00  0.00    -0.048 C 
BRANCH  26  28
ATOM     27  F   UNL     1      35.030 -23.443 -16.416  0.00  0.00    -0.205 F 
ATOM     28  C   UNL     1      32.822 -23.157 -17.242  0.00  0.00    -0.016 C 
ATOM     29  C   UNL     1      33.718 -23.299 -16.183  0.00  0.00    +0.134 C 
ATOM     30  C   UNL     1      31.459 -23.008 -16.988  0.00  0.00    -0.004 C 
ATOM     31  C   UNL     1      33.250 -23.291 -14.868  0.00  0.00    +0.029 C 
ATOM     32  C   UNL     1      30.992 -23.000 -15.674  0.00  0.00    -0.000 C 
ATOM     33  C   UNL     1      31.887 -23.142 -14.614  0.00  0.00    +0.002 C 
ENDBRANCH  26  28
ENDBRANCH  19  26
ENDBRANCH  18  20
ENDBRANCH   1  18
TORSDOF 5
ENDMDL
MODEL 4
REMARK VINA RESULT:     -11.7      2.564      3.769
REMARK  Name = 23729147
REMARK  5 active torsions:
REMARK  status: ('A' for Active; 'I' for Inactive)
REMARK    1  A    between atoms: O_1  and  C_6
REMARK    2  A    between atoms: O_1  and  C_18
REMARK    3  A    between atoms: C_18  and  C_20
REMARK    4  A    between atoms: N_19  and  C_26
REMARK    5  A    between atoms: C_26  and  C_28
REMARK                            x       y       z     vdW  Elec       q    Type
REMARK                         _______ _______ _______ _____ _____    ______ ____
ROOT
ATOM      1  O   UNL     1      32.890 -22.496 -17.855  0.00  0.00    -0.479 OA
ENDROOT
BRANCH   1   6
ATOM      2  N   UNL     1      32.183 -24.505 -13.501  0.00  0.00    -0.332 NA
ATOM      3  N   UNL     1      30.252 -23.849 -14.786  0.00  0.00    -0.317 NA
ATOM      4  N   UNL     1      30.469 -22.872 -16.893  0.00  0.00    -0.335 N 
ATOM      5  N   UNL     1      30.013 -24.828 -12.671  0.00  0.00    -0.283 N 
ATOM      6  C   UNL     1      33.335 -23.057 -16.682  0.00  0.00    +0.130 C 
ATOM      7  C   UNL     1      32.479 -23.506 -15.663  0.00  0.00    +0.177 C 
ATOM      8  C   UNL     1      34.714 -23.169 -16.533  0.00  0.00    +0.033 C 
ATOM      9  C   UNL     1      32.993 -24.071 -14.484  0.00  0.00    +0.137 C 
ATOM     10  C   UNL     1      31.091 -23.425 -15.749  0.00  0.00    +0.181 C 
ATOM     11  C   UNL     1      35.234 -23.725 -15.371  0.00  0.00    +0.005 C 
ATOM     12  C   UNL     1      34.376 -24.170 -14.361  0.00  0.00    +0.030 C 
ATOM     13  C   UNL     1      30.857 -24.370 -13.706  0.00  0.00    +0.197 C 
ATOM     14  H   UNL     1      29.488 -22.820 -16.943  0.00  0.00    +0.144 HD
ATOM     15  H   UNL     1      31.018 -22.541 -17.641  0.00  0.00    +0.144 HD
ATOM     16  H   UNL     1      30.402 -25.219 -11.856  0.00  0.00    +0.156 HD
ATOM     17  H   UNL     1      29.036 -24.756 -12.765  0.00  0.00    +0.156 HD
ENDBRANCH   1   6
BRANCH   1  18
ATOM     18  C   UNL     1      33.709 -22.660 -18.997  0.00  0.00    +0.205 C 
BRANCH  18  20
ATOM     19  N   UNL     1      35.011 -19.498 -21.636  0.00  0.00    +0.390 N 
ATOM     20  C   UNL     1      34.165 -21.282 -19.469  0.00  0.00    +0.040 C 
ATOM     21  C   UNL     1      33.178 -20.692 -20.482  0.00  0.00    -0.019 C 
ATOM     22  C   UNL     1      35.564 -21.347 -20.089  0.00  0.00    -0.019 C 
ATOM     23  C   UNL     1      33.678 -19.356 -21.035  0.00  0.00    -0.077 C 
ATOM     24  C   UNL     1      35.986 -19.989 -20.655  0.00  0.00    -0.077 C 
ATOM     25  H   UNL     1      34.946 -20.186 -22.386  0.00  0.00    -0.079 HD
BRANCH  19  26
ATOM     26  C   UNL     1      35.453 -18.225 -22.205  0.00  0.00    -0.048 C 
BRANCH  26  28
ATOM     27  F   UNL     1      35.031 -15.608 -23.212  0.00  0.00    -0.205 F 
ATOM     28  C   UNL     1      34.804 -17.950 -23.536  0.00  0.00    -0.016 C 
ATOM     29  C   UNL     1      34.627 -16.636 -23.971  0.00  0.00    +0.134 C 
ATOM     30  C   UNL     1      34.380 -19.012 -24.333  0.00  0.00    -0.004 C 
ATOM     31  C   UNL     1      34.024 -16.386 -25.204  0.00  0.00    +0.029 C 
ATOM     32  C   UNL     1      33.778 -18.762 -25.566  0.00  0.00    -0.000 C 
ATOM     33  C   UNL     1      33.599 -17.448 -26.001  0.00  0.00    +0.002 C 
ENDBRANCH  26  28
ENDBRANCH  19  26
ENDBRANCH  18  20
ENDBRANCH   1  18
TORSDOF 5
ENDMDL
MODEL 5
REMARK VINA RESULT:     -11.6      5.431     11.831
REMARK  Name = 23729147
REMARK  5 active torsions:
REMARK  status: ('A' for Active; 'I' for Inactive)
REMARK    1  A    between atoms: O_1  and  C_6
REMARK    2  A    between atoms: O_1  and  C_18
REMARK    3  A    between atoms: C_18  and  C_20
REMARK    4  A    between atoms: N_19  and  C_26
REMARK    5  A    between atoms: C_26  and  C_28
REMARK                            x       y       z     vdW  Elec       q    Type
REMARK                         _______ _______ _______ _____ _____    ______ ____
ROOT
ATOM      1  O   UNL     1      33.068 -14.907 -24.902  0.00  0.00    -0.479 OA
ENDROOT
BRANCH   1   6
ATOM      2  N   UNL     1      32.902 -10.074 -25.215  0.00  0.00    -0.332 NA
ATOM      3  N   UNL     1      32.657 -11.088 -23.043  0.00  0.00    -0.317 NA
ATOM      4  N   UNL     1      32.720 -13.404 -22.770  0.00  0.00    -0.335 N 
ATOM      5  N   UNL     1      32.591  -8.760 -23.298  0.00  0.00    -0.283 N 
ATOM      6  C   UNL     1      33.111 -13.727 -25.604  0.00  0.00    +0.130 C 
ATOM      7  C   UNL     1      32.977 -12.462 -25.006  0.00  0.00    +0.177 C 
ATOM      8  C   UNL     1      33.299 -13.830 -26.979  0.00  0.00    +0.033 C 
ATOM      9  C   UNL     1      33.029 -11.289 -25.777  0.00  0.00    +0.137 C 
ATOM     10  C   UNL     1      32.788 -12.289 -23.638  0.00  0.00    +0.181 C 
ATOM     11  C   UNL     1      33.351 -12.677 -27.752  0.00  0.00    +0.005 C 
ATOM     12  C   UNL     1      33.218 -11.422 -27.150  0.00  0.00    +0.030 C 
ATOM     13  C   UNL     1      32.723 -10.039 -23.879  0.00  0.00    +0.197 C 
ATOM     14  H   UNL     1      32.587 -13.268 -21.804  0.00  0.00    +0.144 HD
ATOM     15  H   UNL     1      32.808 -14.315 -23.132  0.00  0.00    +0.144 HD
ATOM     16  H   UNL     1      32.631  -7.956 -23.862  0.00  0.00    +0.156 HD
ATOM     17  H   UNL     1      32.459  -8.673 -22.325  0.00  0.00    +0.156 HD
ENDBRANCH   1   6
BRANCH   1  18
ATOM     18  C   UNL     1      33.400 -16.087 -25.608  0.00  0.00    +0.205 C 
BRANCH  18  20
ATOM     19  N   UNL     1      34.774 -18.560 -22.344  0.00  0.00    +0.390 N 
ATOM     20  C   UNL     1      34.331 -16.927 -24.738  0.00  0.00    +0.040 C 
ATOM     21  C   UNL     1      33.824 -18.368 -24.619  0.00  0.00    -0.019 C 
ATOM     22  C   UNL     1      34.481 -16.315 -23.342  0.00  0.00    -0.019 C 
ATOM     23  C   UNL     1      34.697 -19.190 -23.669  0.00  0.00    -0.077 C 
ATOM     24  C   UNL     1      35.332 -17.205 -22.432  0.00  0.00    -0.077 C 
ATOM     25  H   UNL     1      33.826 -18.486 -21.975  0.00  0.00    -0.079 HD
BRANCH  19  26
ATOM     26  C   UNL     1      35.569 -19.383 -21.432  0.00  0.00    -0.048 C 
BRANCH  26  28
ATOM     27  F   UNL     1      36.606 -21.503 -19.861  0.00  0.00    -0.205 F 
ATOM     28  C   UNL     1      34.703 -20.283 -20.590  0.00  0.00    -0.016 C 
ATOM     29  C   UNL     1      35.280 -21.309 -19.841  0.00  0.00    +0.134 C 
ATOM     30  C   UNL     1      33.323 -20.090 -20.563  0.00  0.00    -0.004 C 
ATOM     31  C   UNL     1      34.475 -22.142 -19.063  0.00  0.00    +0.029 C 
ATOM     32  C   UNL     1      32.518 -20.922 -19.785  0.00  0.00    -0.000 C 
ATOM     33  C   UNL     1      33.094 -21.949 -19.036  0.00  0.00    +0.002 C 
ENDBRANCH  26  28
ENDBRANCH  19  26
ENDBRANCH  18  20
ENDBRANCH   1  18
TORSDOF 5
ENDMDL
MODEL 6
REMARK VINA RESULT:     -11.4      3.967      6.489
REMARK  Name = 23729147
REMARK  5 active torsions:
REMARK  status: ('A' for Active; 'I' for Inactive)
REMARK    1  A    between atoms: O_1  and  C_6
REMARK    2  A    between atoms: O_1  and  C_18
REMARK    3  A    between atoms: C_18  and  C_20
REMARK    4  A    between atoms: N_19  and  C_26
REMARK    5  A    between atoms: C_26  and  C_28
REMARK                            x       y       z     vdW  Elec       q    Type
REMARK                         _______ _______ _______ _____ _____    ______ ____
ROOT
ATOM      1  O   UNL     1      34.075 -18.799 -21.952  0.00  0.00    -0.479 OA
ENDROOT
BRANCH   1   6
ATOM      2  N   UNL     1      34.586 -22.278 -18.617  0.00  0.00    -0.332 NA
ATOM      3  N   UNL     1      32.366 -21.758 -19.396  0.00  0.00    -0.317 NA
ATOM      4  N   UNL     1      31.998 -20.103 -20.998  0.00  0.00    -0.335 N 
ATOM      5  N   UNL     1      32.716 -23.423 -17.786  0.00  0.00    -0.283 N 
ATOM      6  C   UNL     1      34.828 -19.587 -21.115  0.00  0.00    +0.130 C 
ATOM      7  C   UNL     1      34.279 -20.564 -20.267  0.00  0.00    +0.177 C 
ATOM      8  C   UNL     1      36.203 -19.375 -21.135  0.00  0.00    +0.033 C 
ATOM      9  C   UNL     1      35.100 -21.340 -19.432  0.00  0.00    +0.137 C 
ATOM     10  C   UNL     1      32.914 -20.827 -20.200  0.00  0.00    +0.181 C 
ATOM     11  C   UNL     1      37.025 -20.136 -20.312  0.00  0.00    +0.005 C 
ATOM     12  C   UNL     1      36.472 -21.107 -19.473  0.00  0.00    +0.030 C 
ATOM     13  C   UNL     1      33.247 -22.436 -18.644  0.00  0.00    +0.197 C 
ATOM     14  H   UNL     1      31.034 -20.297 -20.942  0.00  0.00    +0.144 HD
ATOM     15  H   UNL     1      32.323 -19.405 -21.612  0.00  0.00    +0.144 HD
ATOM     16  H   UNL     1      33.315 -23.951 -17.212  0.00  0.00    +0.156 HD
ATOM     17  H   UNL     1      31.744 -23.584 -17.763  0.00  0.00    +0.156 HD
ENDBRANCH   1   6
BRANCH   1  18
ATOM     18  C   UNL     1      34.515 -18.681 -23.292  0.00  0.00    +0.205 C 
BRANCH  18  20
ATOM     19  N   UNL     1      33.433 -14.511 -23.602  0.00  0.00    +0.390 N 
ATOM     20  C   UNL     1      34.602 -17.199 -23.645  0.00  0.00    +0.040 C 
ATOM     21  C   UNL     1      34.585 -16.329 -22.384  0.00  0.00    -0.019 C 
ATOM     22  C   UNL     1      33.456 -16.786 -24.574  0.00  0.00    -0.019 C 
ATOM     23  C   UNL     1      34.571 -14.840 -22.733  0.00  0.00    -0.077 C 
ATOM     24  C   UNL     1      33.479 -15.281 -24.852  0.00  0.00    -0.077 C 
ATOM     25  H   UNL     1      32.577 -14.764 -23.108  0.00  0.00    -0.079 HD
BRANCH  19  26
ATOM     26  C   UNL     1      33.405 -13.076 -23.885  0.00  0.00    -0.048 C 
BRANCH  26  28
ATOM     27  F   UNL     1      32.765 -10.326 -24.144  0.00  0.00    -0.205 F 
ATOM     28  C   UNL     1      32.603 -12.318 -22.861  0.00  0.00    -0.016 C 
ATOM     29  C   UNL     1      32.324 -10.964 -23.051  0.00  0.00    +0.134 C 
ATOM     30  C   UNL     1      32.140 -12.972 -21.720  0.00  0.00    -0.004 C 
ATOM     31  C   UNL     1      31.581 -10.265 -22.098  0.00  0.00    +0.029 C 
ATOM     32  C   UNL     1      31.397 -12.274 -20.768  0.00  0.00    -0.000 C 
ATOM     33  C   UNL     1      31.118 -10.920 -20.957  0.00  0.00    +0.002 C 
ENDBRANCH  26  28
ENDBRANCH  19  26
ENDBRANCH  18  20
ENDBRANCH   1  18
TORSDOF 5
ENDMDL
MODEL 7
REMARK VINA RESULT:     -11.3      4.325      7.400
REMARK  Name = 23729147
REMARK  5 active torsions:
REMARK  status: ('A' for Active; 'I' for Inactive)
REMARK    1  A    between atoms: O_1  and  C_6
REMARK    2  A    between atoms: O_1  and  C_18
REMARK    3  A    between atoms: C_18  and  C_20
REMARK    4  A    between atoms: N_19  and  C_26
REMARK    5  A    between atoms: C_26  and  C_28
REMARK                            x       y       z     vdW  Elec       q    Type
REMARK                         _______ _______ _______ _____ _____    ______ ____
ROOT
ATOM      1  O   UNL     1      34.023 -18.341 -22.437  0.00  0.00    -0.479 OA
ENDROOT
BRANCH   1   6
ATOM      2  N   UNL     1      34.620 -21.799 -19.095  0.00  0.00    -0.332 NA
ATOM      3  N   UNL     1      32.393 -21.370 -19.912  0.00  0.00    -0.317 NA
ATOM      4  N   UNL     1      31.985 -19.730 -21.520  0.00  0.00    -0.335 N 
ATOM      5  N   UNL     1      32.784 -23.021 -18.296  0.00  0.00    -0.283 N 
ATOM      6  C   UNL     1      34.793 -19.097 -21.587  0.00  0.00    +0.130 C 
ATOM      7  C   UNL     1      34.271 -20.097 -20.750  0.00  0.00    +0.177 C 
ATOM      8  C   UNL     1      36.159 -18.829 -21.584  0.00  0.00    +0.033 C 
ATOM      9  C   UNL     1      35.109 -20.839 -19.900  0.00  0.00    +0.137 C 
ATOM     10  C   UNL     1      32.916 -20.416 -20.706  0.00  0.00    +0.181 C 
ATOM     11  C   UNL     1      36.997 -19.556 -20.747  0.00  0.00    +0.005 C 
ATOM     12  C   UNL     1      36.470 -20.550 -19.917  0.00  0.00    +0.030 C 
ATOM     13  C   UNL     1      33.289 -22.012 -19.145  0.00  0.00    +0.197 C 
ATOM     14  H   UNL     1      31.030 -19.965 -21.481  0.00  0.00    +0.144 HD
ATOM     15  H   UNL     1      32.292 -19.019 -22.128  0.00  0.00    +0.144 HD
ATOM     16  H   UNL     1      33.394 -23.524 -17.712  0.00  0.00    +0.156 HD
ATOM     17  H   UNL     1      31.820 -23.222 -18.291  0.00  0.00    +0.156 HD
ENDBRANCH   1   6
BRANCH   1  18
ATOM     18  C   UNL     1      34.707 -17.550 -23.391  0.00  0.00    +0.205 C 
BRANCH  18  20
ATOM     19  N   UNL     1      33.614 -13.608 -24.780  0.00  0.00    +0.390 N 
ATOM     20  C   UNL     1      33.850 -16.329 -23.713  0.00  0.00    +0.040 C 
ATOM     21  C   UNL     1      33.856 -16.031 -25.215  0.00  0.00    -0.019 C 
ATOM     22  C   UNL     1      34.333 -15.098 -22.940  0.00  0.00    -0.019 C 
ATOM     23  C   UNL     1      33.081 -14.751 -25.534  0.00  0.00    -0.077 C 
ATOM     24  C   UNL     1      33.543 -13.847 -23.332  0.00  0.00    -0.077 C 
ATOM     25  H   UNL     1      34.596 -13.496 -25.031  0.00  0.00    -0.079 HD
BRANCH  19  26
ATOM     26  C   UNL     1      32.897 -12.383 -25.133  0.00  0.00    -0.048 C 
BRANCH  26  28
ATOM     27  F   UNL     1      32.199 -10.413 -23.217  0.00  0.00    -0.205 F 
ATOM     28  C   UNL     1      33.728 -11.154 -24.877  0.00  0.00    -0.016 C 
ATOM     29  C   UNL     1      33.325 -10.223 -23.918  0.00  0.00    +0.134 C 
ATOM     30  C   UNL     1      34.901 -10.946 -25.601  0.00  0.00    -0.004 C 
ATOM     31  C   UNL     1      34.097  -9.084 -23.685  0.00  0.00    +0.029 C 
ATOM     32  C   UNL     1      35.673  -9.808 -25.367  0.00  0.00    -0.000 C 
ATOM     33  C   UNL     1      35.271  -8.877 -24.409  0.00  0.00    +0.002 C 
ENDBRANCH  26  28
ENDBRANCH  19  26
ENDBRANCH  18  20
ENDBRANCH   1  18
TORSDOF 5
ENDMDL
MODEL 8
REMARK VINA RESULT:     -11.2      3.561      9.578
REMARK  Name = 23729147
REMARK  5 active torsions:
REMARK  status: ('A' for Active; 'I' for Inactive)
REMARK    1  A    between atoms: O_1  and  C_6
REMARK    2  A    between atoms: O_1  and  C_18
REMARK    3  A    between atoms: C_18  and  C_20
REMARK    4  A    between atoms: N_19  and  C_26
REMARK    5  A    between atoms: C_26  and  C_28
REMARK                            x       y       z     vdW  Elec       q    Type
REMARK                         _______ _______ _______ _____ _____    ______ ____
ROOT
ATOM      1  O   UNL     1      34.945 -18.974 -20.796  0.00  0.00    -0.479 OA
ENDROOT
BRANCH   1   6
ATOM      2  N   UNL     1      34.228 -15.456 -24.051  0.00  0.00    -0.332 NA
ATOM      3  N   UNL     1      34.500 -14.836 -21.738  0.00  0.00    -0.317 NA
ATOM      4  N   UNL     1      34.851 -16.442 -20.084  0.00  0.00    -0.335 N 
ATOM      5  N   UNL     1      34.149 -13.208 -23.387  0.00  0.00    -0.283 N 
ATOM      6  C   UNL     1      34.735 -18.518 -22.075  0.00  0.00    +0.130 C 
ATOM      7  C   UNL     1      34.586 -17.160 -22.401  0.00  0.00    +0.177 C 
ATOM      8  C   UNL     1      34.672 -19.485 -23.074  0.00  0.00    +0.033 C 
ATOM      9  C   UNL     1      34.372 -16.754 -23.728  0.00  0.00    +0.137 C 
ATOM     10  C   UNL     1      34.640 -16.144 -21.450  0.00  0.00    +0.181 C 
ATOM     11  C   UNL     1      34.459 -19.095 -24.392  0.00  0.00    +0.005 C 
ATOM     12  C   UNL     1      34.313 -17.741 -24.708  0.00  0.00    +0.030 C 
ATOM     13  C   UNL     1      34.300 -14.568 -23.039  0.00  0.00    +0.197 C 
ATOM     14  H   UNL     1      34.887 -15.715 -19.421  0.00  0.00    +0.144 HD
ATOM     15  H   UNL     1      34.963 -17.377 -19.795  0.00  0.00    +0.144 HD
ATOM     16  H   UNL     1      33.999 -12.953 -24.325  0.00  0.00    +0.156 HD
ATOM     17  H   UNL     1      34.193 -12.514 -22.689  0.00  0.00    +0.156 HD
ENDBRANCH   1   6
BRANCH   1  18
ATOM     18  C   UNL     1      36.115 -19.738 -20.570  0.00  0.00    +0.205 C 
BRANCH  18  20
ATOM     19  N   UNL     1      34.321 -22.415 -17.693  0.00  0.00    +0.390 N 
ATOM     20  C   UNL     1      35.718 -21.036 -19.870  0.00  0.00    +0.040 C 
ATOM     21  C   UNL     1      34.196 -21.207 -19.848  0.00  0.00    -0.019 C 
ATOM     22  C   UNL     1      36.265 -21.078 -18.440  0.00  0.00    -0.019 C 
ATOM     23  C   UNL     1      33.787 -22.453 -19.061  0.00  0.00    -0.077 C 
ATOM     24  C   UNL     1      35.787 -22.330 -17.699  0.00  0.00    -0.077 C 
ATOM     25  H   UNL     1      33.959 -21.577 -17.237  0.00  0.00    -0.079 HD
BRANCH  19  26
ATOM     26  C   UNL     1      33.879 -23.588 -16.938  0.00  0.00    -0.048 C 
BRANCH  26  28
ATOM     27  F   UNL     1      33.690 -23.596 -14.110  0.00  0.00    -0.205 F 
ATOM     28  C   UNL     1      32.594 -23.326 -16.199  0.00  0.00    -0.016 C 
ATOM     29  C   UNL     1      32.571 -23.346 -14.804  0.00  0.00    +0.134 C 
ATOM     30  C   UNL     1      31.424 -23.066 -16.912  0.00  0.00    -0.004 C 
ATOM     31  C   UNL     1      31.377 -23.105 -14.123  0.00  0.00    +0.029 C 
ATOM     32  C   UNL     1      30.231 -22.824 -16.231  0.00  0.00    -0.000 C 
ATOM     33  C   UNL     1      30.208 -22.844 -14.836  0.00  0.00    +0.002 C 
ENDBRANCH  26  28
ENDBRANCH  19  26
ENDBRANCH  18  20
ENDBRANCH   1  18
TORSDOF 5
ENDMDL
MODEL 9
REMARK VINA RESULT:     -11.1      5.828     12.100
REMARK  Name = 23729147
REMARK  5 active torsions:
REMARK  status: ('A' for Active; 'I' for Inactive)
REMARK    1  A    between atoms: O_1  and  C_6
REMARK    2  A    between atoms: O_1  and  C_18
REMARK    3  A    between atoms: C_18  and  C_20
REMARK    4  A    between atoms: N_19  and  C_26
REMARK    5  A    between atoms: C_26  and  C_28
REMARK                            x       y       z     vdW  Elec       q    Type
REMARK                         _______ _______ _______ _____ _____    ______ ____
ROOT
ATOM      1  O   UNL     1      33.832 -12.784 -23.367  0.00  0.00    -0.479 OA
ENDROOT
BRANCH   1   6
ATOM      2  N   UNL     1      31.885  -8.349 -23.215  0.00  0.00    -0.332 NA
ATOM      3  N   UNL     1      33.826  -8.699 -24.599  0.00  0.00    -0.317 NA
ATOM      4  N   UNL     1      34.848 -10.790 -24.750  0.00  0.00    -0.335 N 
ATOM      5  N   UNL     1      32.813  -6.591 -24.459  0.00  0.00    -0.283 N 
ATOM      6  C   UNL     1      32.900 -11.874 -22.928  0.00  0.00    +0.130 C 
ATOM      7  C   UNL     1      32.886 -10.526 -23.325  0.00  0.00    +0.177 C 
ATOM      8  C   UNL     1      31.936 -12.350 -22.045  0.00  0.00    +0.033 C 
ATOM      9  C   UNL     1      31.908  -9.641 -22.842  0.00  0.00    +0.137 C 
ATOM     10  C   UNL     1      33.820  -9.986 -24.205  0.00  0.00    +0.181 C 
ATOM     11  C   UNL     1      30.963 -11.484 -21.560  0.00  0.00    +0.005 C 
ATOM     12  C   UNL     1      30.956 -10.144 -21.960  0.00  0.00    +0.030 C 
ATOM     13  C   UNL     1      32.845  -7.948 -24.073  0.00  0.00    +0.197 C 
ATOM     14  H   UNL     1      35.503 -10.397 -25.372  0.00  0.00    +0.144 HD
ATOM     15  H   UNL     1      34.909 -11.743 -24.510  0.00  0.00    +0.144 HD
ATOM     16  H   UNL     1      32.116  -5.994 -24.105  0.00  0.00    +0.156 HD
ATOM     17  H   UNL     1      33.489  -6.242 -25.085  0.00  0.00    +0.156 HD
ENDBRANCH   1   6
BRANCH   1  18
ATOM     18  C   UNL     1      33.340 -13.978 -23.947  0.00  0.00    +0.205 C 
BRANCH  18  20
ATOM     19  N   UNL     1      34.643 -17.774 -22.350  0.00  0.00    +0.390 N 
ATOM     20  C   UNL     1      34.264 -15.126 -23.550  0.00  0.00    +0.040 C 
ATOM     21  C   UNL     1      33.877 -16.420 -24.273  0.00  0.00    -0.019 C 
ATOM     22  C   UNL     1      34.240 -15.353 -22.035  0.00  0.00    -0.019 C 
ATOM     23  C   UNL     1      34.734 -17.598 -23.806  0.00  0.00    -0.077 C 
ATOM     24  C   UNL     1      35.086 -16.567 -21.641  0.00  0.00    -0.077 C 
ATOM     25  H   UNL     1      33.665 -17.936 -22.114  0.00  0.00    -0.079 HD
BRANCH  19  26
ATOM     26  C   UNL     1      35.427 -18.934 -21.926  0.00  0.00    -0.048 C 
BRANCH  26  28
ATOM     27  F   UNL     1      36.620 -20.825 -20.183  0.00  0.00    -0.205 F 
ATOM     28  C   UNL     1      34.629 -19.856 -21.042  0.00  0.00    -0.016 C 
ATOM     29  C   UNL     1      35.282 -20.765 -20.208  0.00  0.00    +0.134 C 
ATOM     30  C   UNL     1      33.237 -19.802 -21.060  0.00  0.00    -0.004 C 
ATOM     31  C   UNL     1      34.539 -21.619 -19.392  0.00  0.00    +0.029 C 
ATOM     32  C   UNL     1      32.494 -20.655 -20.244  0.00  0.00    -0.000 C 
ATOM     33  C   UNL     1      33.145 -21.564 -19.410  0.00  0.00    +0.002 C 
ENDBRANCH  26  28
ENDBRANCH  19  26
ENDBRANCH  18  20
ENDBRANCH   1  18
TORSDOF 5
ENDMDL
