MODEL 1
REMARK VINA RESULT:     -11.9      0.000      0.000
REMARK  Name = 17754438
REMARK  6 active torsions:
REMARK  status: ('A' for Active; 'I' for Inactive)
REMARK    1  A    between atoms: N_1  and  C_19
REMARK    2  A    between atoms: C_7  and  C_12
REMARK    3  A    between atoms: N_10  and  C_15
REMARK    4  A    between atoms: C_15  and  C_16
REMARK    5  A    between atoms: C_16  and  O_17
REMARK    6  A    between atoms: C_19  and  C_21
REMARK                            x       y       z     vdW  Elec       q    Type
REMARK                         _______ _______ _______ _____ _____    ______ ____
ROOT
ATOM      1  N   UNL     1      34.440 -20.999 -19.949  0.00  0.00    -0.163 N 
ATOM      2  N   UNL     1      35.299 -22.038 -17.911  0.00  0.00    -0.378 NA
ATOM      3  N   UNL     1      33.253 -20.947 -20.586  0.00  0.00    -0.033 NA
ATOM      4  N   UNL     1      32.547 -22.933 -17.792  0.00  0.00    -0.208 NA
ATOM      5  N   UNL     1      32.378 -21.659 -19.876  0.00  0.00    -0.086 NA
ATOM      6  C   UNL     1      34.354 -21.745 -18.816  0.00  0.00    +0.267 C 
ATOM      7  C   UNL     1      34.800 -22.815 -16.923  0.00  0.00    +0.140 C 
ATOM      8  C   UNL     1      33.034 -22.155 -18.788  0.00  0.00    +0.098 C 
ATOM      9  C   UNL     1      33.481 -23.244 -16.865  0.00  0.00    +0.195 C 
ENDROOT
BRANCH   7  12
ATOM     10  N   UNL     1      36.534 -23.992 -14.030  0.00  0.00    -0.208 N 
ATOM     11  N   UNL     1      37.625 -23.534 -14.668  0.00  0.00    -0.176 NA
ATOM     12  C   UNL     1      35.728 -23.191 -15.896  0.00  0.00    +0.064 C 
ATOM     13  C   UNL     1      35.373 -23.811 -14.723  0.00  0.00    +0.088 C 
ATOM     14  C   UNL     1      37.126 -23.045 -15.807  0.00  0.00    +0.121 C 
BRANCH  10  15
ATOM     15  C   UNL     1      36.670 -24.610 -12.733  0.00  0.00    +0.148 C 
BRANCH  15  16
ATOM     16  C   UNL     1      37.992 -24.267 -12.059  0.00  0.00    +0.161 C 
BRANCH  16  17
ATOM     17  O   UNL     1      37.988 -22.901 -11.664  0.00  0.00    -0.380 OA
ATOM     18  H   UNL     1      37.719 -22.348 -12.413  0.00  0.00    +0.211 HD
ENDBRANCH  16  17
ENDBRANCH  15  16
ENDBRANCH  10  15
ENDBRANCH   7  12
BRANCH   1  19
ATOM     19  C   UNL     1      35.612 -20.304 -20.493  0.00  0.00    +0.145 C 
BRANCH  19  21
ATOM     20  N   UNL     1      34.151 -16.180 -24.083  0.00  0.00    -0.244 NA
ATOM     21  C   UNL     1      35.224 -19.224 -21.446  0.00  0.00    -0.000 C 
ATOM     22  C   UNL     1      34.871 -19.539 -22.755  0.00  0.00    -0.001 C 
ATOM     23  C   UNL     1      34.506 -18.524 -23.656  0.00  0.00    +0.017 C 
ATOM     24  C   UNL     1      35.216 -17.898 -21.033  0.00  0.00    -0.001 C 
ATOM     25  C   UNL     1      34.495 -17.176 -23.244  0.00  0.00    +0.081 C 
ATOM     26  C   UNL     1      34.853 -16.889 -21.929  0.00  0.00    +0.019 C 
ATOM     27  C   UNL     1      34.146 -18.814 -24.979  0.00  0.00    +0.003 C 
ATOM     28  C   UNL     1      33.791 -17.790 -25.846  0.00  0.00    +0.021 C 
ATOM     29  C   UNL     1      33.810 -16.502 -25.351  0.00  0.00    +0.099 C 
ENDBRANCH  19  21
ENDBRANCH   1  19
TORSDOF 6
ENDMDL
MODEL 2
REMARK VINA RESULT:     -11.9      4.541     10.568
REMARK  Name = 17754438
REMARK  6 active torsions:
REMARK  status: ('A' for Active; 'I' for Inactive)
REMARK    1  A    between atoms: N_1  and  C_19
REMARK    2  A    between atoms: C_7  and  C_12
REMARK    3  A    between atoms: N_10  and  C_15
REMARK    4  A    between atoms: C_15  and  C_16
REMARK    5  A    between atoms: C_16  and  O_17
REMARK    6  A    between atoms: C_19  and  C_21
REMARK                            x       y       z     vdW  Elec       q    Type
REMARK                         _______ _______ _______ _____ _____    ______ ____
ROOT
ATOM      1  N   UNL     1      34.750 -18.585 -23.751  0.00  0.00    -0.163 N 
ATOM      2  N   UNL     1      34.102 -16.233 -23.883  0.00  0.00    -0.378 NA
ATOM      3  N   UNL     1      34.654 -19.665 -24.552  0.00  0.00    -0.033 NA
ATOM      4  N   UNL     1      33.147 -17.148 -26.460  0.00  0.00    -0.208 NA
ATOM      5  N   UNL     1      34.043 -19.286 -25.675  0.00  0.00    -0.086 NA
ATOM      6  C   UNL     1      34.205 -17.489 -24.341  0.00  0.00    +0.267 C 
ATOM      7  C   UNL     1      33.487 -15.436 -24.787  0.00  0.00    +0.140 C 
ATOM      8  C   UNL     1      33.761 -17.957 -25.563  0.00  0.00    +0.098 C 
ATOM      9  C   UNL     1      33.030 -15.873 -26.022  0.00  0.00    +0.195 C 
ENDROOT
BRANCH   7  12
ATOM     10  N   UNL     1      33.138 -11.891 -24.516  0.00  0.00    -0.208 N 
ATOM     11  N   UNL     1      33.025 -12.142 -23.200  0.00  0.00    -0.176 NA
ATOM     12  C   UNL     1      33.323 -14.065 -24.398  0.00  0.00    +0.064 C 
ATOM     13  C   UNL     1      33.318 -13.009 -25.277  0.00  0.00    +0.088 C 
ATOM     14  C   UNL     1      33.140 -13.472 -23.135  0.00  0.00    +0.121 C 
BRANCH  10  15
ATOM     15  C   UNL     1      33.061 -10.532 -24.995  0.00  0.00    +0.148 C 
BRANCH  15  16
ATOM     16  C   UNL     1      33.990  -9.592 -24.238  0.00  0.00    +0.161 C 
BRANCH  16  17
ATOM     17  O   UNL     1      35.278 -10.183 -24.121  0.00  0.00    -0.380 OA
ATOM     18  H   UNL     1      35.257 -11.080 -24.490  0.00  0.00    +0.211 HD
ENDBRANCH  16  17
ENDBRANCH  15  16
ENDBRANCH  10  15
ENDBRANCH   7  12
BRANCH   1  19
ATOM     19  C   UNL     1      35.382 -18.687 -22.431  0.00  0.00    +0.145 C 
BRANCH  19  21
ATOM     20  N   UNL     1      32.331 -21.902 -18.913  0.00  0.00    -0.244 NA
ATOM     21  C   UNL     1      34.587 -19.537 -21.499  0.00  0.00    -0.000 C 
ATOM     22  C   UNL     1      35.231 -20.356 -20.576  0.00  0.00    -0.001 C 
ATOM     23  C   UNL     1      34.485 -21.160 -19.696  0.00  0.00    +0.017 C 
ATOM     24  C   UNL     1      33.198 -19.518 -21.548  0.00  0.00    -0.001 C 
ATOM     25  C   UNL     1      33.076 -21.144 -19.741  0.00  0.00    +0.081 C 
ATOM     26  C   UNL     1      32.457 -20.316 -20.673  0.00  0.00    +0.019 C 
ATOM     27  C   UNL     1      35.108 -21.993 -18.758  0.00  0.00    +0.003 C 
ATOM     28  C   UNL     1      34.343 -22.775 -17.903  0.00  0.00    +0.021 C 
ATOM     29  C   UNL     1      32.971 -22.693 -18.021  0.00  0.00    +0.099 C 
ENDBRANCH  19  21
ENDBRANCH   1  19
TORSDOF 6
ENDMDL
MODEL 3
REMARK VINA RESULT:     -11.5      4.574     10.773
REMARK  Name = 17754438
REMARK  6 active torsions:
REMARK  status: ('A' for Active; 'I' for Inactive)
REMARK    1  A    between atoms: N_1  and  C_19
REMARK    2  A    between atoms: C_7  and  C_12
REMARK    3  A    between atoms: N_10  and  C_15
REMARK    4  A    between atoms: C_15  and  C_16
REMARK    5  A    between atoms: C_16  and  O_17
REMARK    6  A    between atoms: C_19  and  C_21
REMARK                            x       y       z     vdW  Elec       q    Type
REMARK                         _______ _______ _______ _____ _____    ______ ____
ROOT
ATOM      1  N   UNL     1      34.672 -17.873 -23.640  0.00  0.00    -0.163 N 
ATOM      2  N   UNL     1      34.003 -15.630 -24.344  0.00  0.00    -0.378 NA
ATOM      3  N   UNL     1      34.542 -19.122 -24.129  0.00  0.00    -0.033 NA
ATOM      4  N   UNL     1      32.929 -17.173 -26.547  0.00  0.00    -0.208 NA
ATOM      5  N   UNL     1      33.875 -19.043 -25.281  0.00  0.00    -0.086 NA
ATOM      6  C   UNL     1      34.091 -16.963 -24.466  0.00  0.00    +0.267 C 
ATOM      7  C   UNL     1      33.340 -15.090 -25.392  0.00  0.00    +0.140 C 
ATOM      8  C   UNL     1      33.591 -17.727 -25.503  0.00  0.00    +0.098 C 
ATOM      9  C   UNL     1      32.826 -15.828 -26.448  0.00  0.00    +0.195 C 
ENDROOT
BRANCH   7  12
ATOM     10  N   UNL     1      33.047 -11.615 -24.619  0.00  0.00    -0.208 N 
ATOM     11  N   UNL     1      32.880 -11.476 -25.946  0.00  0.00    -0.176 NA
ATOM     12  C   UNL     1      33.187 -13.664 -25.363  0.00  0.00    +0.064 C 
ATOM     13  C   UNL     1      33.234 -12.905 -24.219  0.00  0.00    +0.088 C 
ATOM     14  C   UNL     1      32.967 -12.731 -26.395  0.00  0.00    +0.121 C 
BRANCH  10  15
ATOM     15  C   UNL     1      33.019 -10.449 -23.768  0.00  0.00    +0.148 C 
BRANCH  15  16
ATOM     16  C   UNL     1      34.123  -9.455 -24.103  0.00  0.00    +0.161 C 
BRANCH  16  17
ATOM     17  O   UNL     1      35.379 -10.121 -24.117  0.00  0.00    -0.380 OA
ATOM     18  H   UNL     1      35.302 -10.946 -24.620  0.00  0.00    +0.211 HD
ENDBRANCH  16  17
ENDBRANCH  15  16
ENDBRANCH  10  15
ENDBRANCH   7  12
BRANCH   1  19
ATOM     19  C   UNL     1      35.368 -17.635 -22.372  0.00  0.00    +0.145 C 
BRANCH  19  21
ATOM     20  N   UNL     1      35.110 -22.116 -18.925  0.00  0.00    -0.244 NA
ATOM     21  C   UNL     1      35.290 -18.816 -21.465  0.00  0.00    -0.000 C 
ATOM     22  C   UNL     1      34.052 -19.314 -21.070  0.00  0.00    -0.001 C 
ATOM     23  C   UNL     1      33.974 -20.427 -20.214  0.00  0.00    +0.017 C 
ATOM     24  C   UNL     1      36.453 -19.424 -21.007  0.00  0.00    -0.001 C 
ATOM     25  C   UNL     1      35.150 -21.049 -19.746  0.00  0.00    +0.081 C 
ATOM     26  C   UNL     1      36.374 -20.529 -20.157  0.00  0.00    +0.019 C 
ATOM     27  C   UNL     1      32.741 -20.950 -19.802  0.00  0.00    +0.003 C 
ATOM     28  C   UNL     1      32.697 -22.049 -18.956  0.00  0.00    +0.021 C 
ATOM     29  C   UNL     1      33.900 -22.590 -18.551  0.00  0.00    +0.099 C 
ENDBRANCH  19  21
ENDBRANCH   1  19
TORSDOF 6
ENDMDL
MODEL 4
REMARK VINA RESULT:     -11.2      4.268      6.465
REMARK  Name = 17754438
REMARK  6 active torsions:
REMARK  status: ('A' for Active; 'I' for Inactive)
REMARK    1  A    between atoms: N_1  and  C_19
REMARK    2  A    between atoms: C_7  and  C_12
REMARK    3  A    between atoms: N_10  and  C_15
REMARK    4  A    between atoms: C_15  and  C_16
REMARK    5  A    between atoms: C_16  and  O_17
REMARK    6  A    between atoms: C_19  and  C_21
REMARK                            x       y       z     vdW  Elec       q    Type
REMARK                         _______ _______ _______ _____ _____    ______ ____
ROOT
ATOM      1  N   UNL     1      33.884 -23.137 -17.468  0.00  0.00    -0.163 N 
ATOM      2  N   UNL     1      31.540 -23.273 -16.793  0.00  0.00    -0.378 NA
ATOM      3  N   UNL     1      35.073 -23.061 -16.837  0.00  0.00    -0.033 NA
ATOM      4  N   UNL     1      32.793 -23.172 -14.184  0.00  0.00    -0.208 NA
ATOM      5  N   UNL     1      34.839 -23.062 -15.524  0.00  0.00    -0.086 NA
ATOM      6  C   UNL     1      32.861 -23.190 -16.576  0.00  0.00    +0.267 C 
ATOM      7  C   UNL     1      30.857 -23.303 -15.626  0.00  0.00    +0.140 C 
ATOM      8  C   UNL     1      33.489 -23.141 -15.346  0.00  0.00    +0.098 C 
ATOM      9  C   UNL     1      31.457 -23.255 -14.375  0.00  0.00    +0.195 C 
ENDROOT
BRANCH   7  12
ATOM     10  N   UNL     1      27.342 -22.821 -16.042  0.00  0.00    -0.208 N 
ATOM     11  N   UNL     1      27.273 -24.141 -15.797  0.00  0.00    -0.176 NA
ATOM     12  C   UNL     1      29.430 -23.390 -15.741  0.00  0.00    +0.064 C 
ATOM     13  C   UNL     1      28.611 -22.322 -16.019  0.00  0.00    +0.088 C 
ATOM     14  C   UNL     1      28.551 -24.483 -15.614  0.00  0.00    +0.121 C 
BRANCH  10  15
ATOM     15  C   UNL     1      26.133 -22.076 -16.298  0.00  0.00    +0.148 C 
BRANCH  15  16
ATOM     16  C   UNL     1      25.981 -21.696 -17.765  0.00  0.00    +0.161 C 
BRANCH  16  17
ATOM     17  O   UNL     1      25.636 -20.321 -17.870  0.00  0.00    -0.380 OA
ATOM     18  H   UNL     1      24.769 -20.173 -17.464  0.00  0.00    +0.211 HD
ENDBRANCH  16  17
ENDBRANCH  15  16
ENDBRANCH  10  15
ENDBRANCH   7  12
BRANCH   1  19
ATOM     19  C   UNL     1      33.815 -23.156 -18.933  0.00  0.00    +0.145 C 
BRANCH  19  21
ATOM     20  N   UNL     1      36.362 -18.641 -21.204  0.00  0.00    -0.244 NA
ATOM     21  C   UNL     1      34.477 -21.963 -19.535  0.00  0.00    -0.000 C 
ATOM     22  C   UNL     1      33.768 -21.127 -20.393  0.00  0.00    -0.001 C 
ATOM     23  C   UNL     1      34.389 -20.002 -20.964  0.00  0.00    +0.017 C 
ATOM     24  C   UNL     1      35.806 -21.680 -19.245  0.00  0.00    -0.001 C 
ATOM     25  C   UNL     1      35.737 -19.710 -20.673  0.00  0.00    +0.081 C 
ATOM     26  C   UNL     1      36.423 -20.562 -19.812  0.00  0.00    +0.019 C 
ATOM     27  C   UNL     1      33.698 -19.145 -21.830  0.00  0.00    +0.003 C 
ATOM     28  C   UNL     1      34.339 -18.042 -22.378  0.00  0.00    +0.021 C 
ATOM     29  C   UNL     1      35.660 -17.837 -22.035  0.00  0.00    +0.099 C 
ENDBRANCH  19  21
ENDBRANCH   1  19
TORSDOF 6
ENDMDL
MODEL 5
REMARK VINA RESULT:     -10.9      3.413      9.777
REMARK  Name = 17754438
REMARK  6 active torsions:
REMARK  status: ('A' for Active; 'I' for Inactive)
REMARK    1  A    between atoms: N_1  and  C_19
REMARK    2  A    between atoms: C_7  and  C_12
REMARK    3  A    between atoms: N_10  and  C_15
REMARK    4  A    between atoms: C_15  and  C_16
REMARK    5  A    between atoms: C_16  and  O_17
REMARK    6  A    between atoms: C_19  and  C_21
REMARK                            x       y       z     vdW  Elec       q    Type
REMARK                         _______ _______ _______ _____ _____    ______ ____
ROOT
ATOM      1  N   UNL     1      34.963 -22.010 -18.266  0.00  0.00    -0.163 N 
ATOM      2  N   UNL     1      34.847 -20.196 -19.900  0.00  0.00    -0.378 NA
ATOM      3  N   UNL     1      34.154 -23.012 -17.869  0.00  0.00    -0.033 NA
ATOM      4  N   UNL     1      32.257 -21.417 -20.341  0.00  0.00    -0.208 NA
ATOM      5  N   UNL     1      33.031 -22.936 -18.583  0.00  0.00    -0.086 NA
ATOM      6  C   UNL     1      34.379 -21.268 -19.244  0.00  0.00    +0.267 C 
ATOM      7  C   UNL     1      33.946 -19.750 -20.805  0.00  0.00    +0.140 C 
ATOM      8  C   UNL     1      33.151 -21.874 -19.430  0.00  0.00    +0.098 C 
ATOM      9  C   UNL     1      32.705 -20.334 -21.017  0.00  0.00    +0.195 C 
ENDROOT
BRANCH   7  12
ATOM     10  N   UNL     1      34.683 -17.257 -23.255  0.00  0.00    -0.208 N 
ATOM     11  N   UNL     1      35.166 -16.568 -22.207  0.00  0.00    -0.176 NA
ATOM     12  C   UNL     1      34.345 -18.602 -21.567  0.00  0.00    +0.064 C 
ATOM     13  C   UNL     1      34.180 -18.481 -22.925  0.00  0.00    +0.088 C 
ATOM     14  C   UNL     1      34.957 -17.394 -21.179  0.00  0.00    +0.121 C 
BRANCH  10  15
ATOM     15  C   UNL     1      34.729 -16.677 -24.576  0.00  0.00    +0.148 C 
BRANCH  15  16
ATOM     16  C   UNL     1      33.423 -16.856 -25.338  0.00  0.00    +0.161 C 
BRANCH  16  17
ATOM     17  O   UNL     1      33.692 -17.379 -26.633  0.00  0.00    -0.380 OA
ATOM     18  H   UNL     1      33.657 -18.348 -26.604  0.00  0.00    +0.211 HD
ENDBRANCH  16  17
ENDBRANCH  15  16
ENDBRANCH  10  15
ENDBRANCH   7  12
BRANCH   1  19
ATOM     19  C   UNL     1      36.286 -21.831 -17.658  0.00  0.00    +0.145 C 
BRANCH  19  21
ATOM     20  N   UNL     1      36.761 -24.737 -12.825  0.00  0.00    -0.244 NA
ATOM     21  C   UNL     1      36.421 -22.599 -16.387  0.00  0.00    -0.000 C 
ATOM     22  C   UNL     1      37.539 -23.399 -16.167  0.00  0.00    -0.001 C 
ATOM     23  C   UNL     1      37.669 -24.125 -14.971  0.00  0.00    +0.017 C 
ATOM     24  C   UNL     1      35.430 -22.524 -15.416  0.00  0.00    -0.001 C 
ATOM     25  C   UNL     1      36.667 -24.053 -13.981  0.00  0.00    +0.081 C 
ATOM     26  C   UNL     1      35.560 -23.246 -14.227  0.00  0.00    +0.019 C 
ATOM     27  C   UNL     1      38.784 -24.937 -14.724  0.00  0.00    +0.003 C 
ATOM     28  C   UNL     1      38.883 -25.643 -13.533  0.00  0.00    +0.021 C 
ATOM     29  C   UNL     1      37.853 -25.509 -12.625  0.00  0.00    +0.099 C 
ENDBRANCH  19  21
ENDBRANCH   1  19
TORSDOF 6
ENDMDL
MODEL 6
REMARK VINA RESULT:     -10.8      4.347     10.402
REMARK  Name = 17754438
REMARK  6 active torsions:
REMARK  status: ('A' for Active; 'I' for Inactive)
REMARK    1  A    between atoms: N_1  and  C_19
REMARK    2  A    between atoms: C_7  and  C_12
REMARK    3  A    between atoms: N_10  and  C_15
REMARK    4  A    between atoms: C_15  and  C_16
REMARK    5  A    between atoms: C_16  and  O_17
REMARK    6  A    between atoms: C_19  and  C_21
REMARK                            x       y       z     vdW  Elec       q    Type
REMARK                         _______ _______ _______ _____ _____    ______ ____
ROOT
ATOM      1  N   UNL     1      34.956 -18.391 -23.632  0.00  0.00    -0.163 N 
ATOM      2  N   UNL     1      34.180 -16.158 -24.250  0.00  0.00    -0.378 NA
ATOM      3  N   UNL     1      34.840 -19.634 -24.139  0.00  0.00    -0.033 NA
ATOM      4  N   UNL     1      33.036 -17.692 -26.424  0.00  0.00    -0.208 NA
ATOM      5  N   UNL     1      34.108 -19.554 -25.251  0.00  0.00    -0.086 NA
ATOM      6  C   UNL     1      34.303 -17.484 -24.405  0.00  0.00    +0.267 C 
ATOM      7  C   UNL     1      33.444 -15.619 -25.249  0.00  0.00    +0.140 C 
ATOM      8  C   UNL     1      33.771 -18.244 -25.430  0.00  0.00    +0.098 C 
ATOM      9  C   UNL     1      32.895 -16.353 -26.291  0.00  0.00    +0.195 C 
ENDROOT
BRANCH   7  12
ATOM     10  N   UNL     1      33.116 -12.166 -24.394  0.00  0.00    -0.208 N 
ATOM     11  N   UNL     1      32.811 -12.016 -25.695  0.00  0.00    -0.176 NA
ATOM     12  C   UNL     1      33.247 -14.199 -25.182  0.00  0.00    +0.064 C 
ATOM     13  C   UNL     1      33.385 -13.454 -24.036  0.00  0.00    +0.088 C 
ATOM     14  C   UNL     1      32.893 -13.262 -26.170  0.00  0.00    +0.121 C 
BRANCH  10  15
ATOM     15  C   UNL     1      33.136 -11.013 -23.526  0.00  0.00    +0.148 C 
BRANCH  15  16
ATOM     16  C   UNL     1      31.785 -10.748 -22.875  0.00  0.00    +0.161 C 
BRANCH  16  17
ATOM     17  O   UNL     1      31.928 -10.739 -21.461  0.00  0.00    -0.380 OA
ATOM     18  H   UNL     1      31.052 -10.694 -21.048  0.00  0.00    +0.211 HD
ENDBRANCH  16  17
ENDBRANCH  15  16
ENDBRANCH  10  15
ENDBRANCH   7  12
BRANCH   1  19
ATOM     19  C   UNL     1      35.714 -18.155 -22.398  0.00  0.00    +0.145 C 
BRANCH  19  21
ATOM     20  N   UNL     1      34.898 -22.249 -18.577  0.00  0.00    -0.244 NA
ATOM     21  C   UNL     1      35.488 -19.233 -21.393  0.00  0.00    -0.000 C 
ATOM     22  C   UNL     1      34.194 -19.614 -21.053  0.00  0.00    -0.001 C 
ATOM     23  C   UNL     1      33.978 -20.630 -20.105  0.00  0.00    +0.017 C 
ATOM     24  C   UNL     1      36.570 -19.863 -20.789  0.00  0.00    -0.001 C 
ATOM     25  C   UNL     1      35.070 -21.273 -19.489  0.00  0.00    +0.081 C 
ATOM     26  C   UNL     1      36.355 -20.872 -19.848  0.00  0.00    +0.019 C 
ATOM     27  C   UNL     1      32.685 -21.033 -19.746  0.00  0.00    +0.003 C 
ATOM     28  C   UNL     1      32.504 -22.039 -18.806  0.00  0.00    +0.021 C 
ATOM     29  C   UNL     1      33.634 -22.609 -18.257  0.00  0.00    +0.099 C 
ENDBRANCH  19  21
ENDBRANCH   1  19
TORSDOF 6
ENDMDL
MODEL 7
REMARK VINA RESULT:     -10.6      4.177     10.005
REMARK  Name = 17754438
REMARK  6 active torsions:
REMARK  status: ('A' for Active; 'I' for Inactive)
REMARK    1  A    between atoms: N_1  and  C_19
REMARK    2  A    between atoms: C_7  and  C_12
REMARK    3  A    between atoms: N_10  and  C_15
REMARK    4  A    between atoms: C_15  and  C_16
REMARK    5  A    between atoms: C_16  and  O_17
REMARK    6  A    between atoms: C_19  and  C_21
REMARK                            x       y       z     vdW  Elec       q    Type
REMARK                         _______ _______ _______ _____ _____    ______ ____
ROOT
ATOM      1  N   UNL     1      34.440 -21.225 -19.660  0.00  0.00    -0.163 N 
ATOM      2  N   UNL     1      34.123 -19.790 -21.612  0.00  0.00    -0.378 NA
ATOM      3  N   UNL     1      35.439 -21.473 -18.789  0.00  0.00    -0.033 NA
ATOM      4  N   UNL     1      36.852 -19.094 -20.933  0.00  0.00    -0.208 NA
ATOM      5  N   UNL     1      36.480 -20.717 -19.137  0.00  0.00    -0.086 NA
ATOM      6  C   UNL     1      34.817 -20.305 -20.586  0.00  0.00    +0.267 C 
ATOM      7  C   UNL     1      34.868 -18.894 -22.300  0.00  0.00    +0.140 C 
ATOM      8  C   UNL     1      36.117 -19.994 -20.236  0.00  0.00    +0.098 C 
ATOM      9  C   UNL     1      36.175 -18.560 -21.975  0.00  0.00    +0.195 C 
ENDROOT
BRANCH   7  12
ATOM     10  N   UNL     1      33.031 -18.023 -25.237  0.00  0.00    -0.208 N 
ATOM     11  N   UNL     1      33.464 -16.778 -24.971  0.00  0.00    -0.176 NA
ATOM     12  C   UNL     1      34.221 -18.279 -23.424  0.00  0.00    +0.064 C 
ATOM     13  C   UNL     1      33.457 -18.959 -24.341  0.00  0.00    +0.088 C 
ATOM     14  C   UNL     1      34.191 -16.942 -23.862  0.00  0.00    +0.121 C 
BRANCH  10  15
ATOM     15  C   UNL     1      32.191 -18.258 -26.387  0.00  0.00    +0.148 C 
BRANCH  15  16
ATOM     16  C   UNL     1      31.629 -16.970 -26.973  0.00  0.00    +0.161 C 
BRANCH  16  17
ATOM     17  O   UNL     1      32.622 -16.329 -27.763  0.00  0.00    -0.380 OA
ATOM     18  H   UNL     1      33.187 -16.998 -28.178  0.00  0.00    +0.211 HD
ENDBRANCH  16  17
ENDBRANCH  15  16
ENDBRANCH  10  15
ENDBRANCH   7  12
BRANCH   1  19
ATOM     19  C   UNL     1      33.151 -21.914 -19.535  0.00  0.00    +0.145 C 
BRANCH  19  21
ATOM     20  N   UNL     1      32.457 -24.093 -14.359  0.00  0.00    -0.244 NA
ATOM     21  C   UNL     1      32.958 -22.488 -18.172  0.00  0.00    -0.000 C 
ATOM     22  C   UNL     1      31.692 -22.509 -17.595  0.00  0.00    -0.001 C 
ATOM     23  C   UNL     1      31.506 -23.048 -16.310  0.00  0.00    +0.017 C 
ATOM     24  C   UNL     1      34.042 -23.001 -17.470  0.00  0.00    -0.001 C 
ATOM     25  C   UNL     1      32.601 -23.571 -15.592  0.00  0.00    +0.081 C 
ATOM     26  C   UNL     1      33.856 -23.537 -16.193  0.00  0.00    +0.019 C 
ATOM     27  C   UNL     1      30.242 -23.082 -15.705  0.00  0.00    +0.003 C 
ATOM     28  C   UNL     1      30.091 -23.620 -14.435  0.00  0.00    +0.021 C 
ATOM     29  C   UNL     1      31.221 -24.108 -13.811  0.00  0.00    +0.099 C 
ENDBRANCH  19  21
ENDBRANCH   1  19
TORSDOF 6
ENDMDL
MODEL 8
REMARK VINA RESULT:     -10.3      5.860      9.975
REMARK  Name = 17754438
REMARK  6 active torsions:
REMARK  status: ('A' for Active; 'I' for Inactive)
REMARK    1  A    between atoms: N_1  and  C_19
REMARK    2  A    between atoms: C_7  and  C_12
REMARK    3  A    between atoms: N_10  and  C_15
REMARK    4  A    between atoms: C_15  and  C_16
REMARK    5  A    between atoms: C_16  and  O_17
REMARK    6  A    between atoms: C_19  and  C_21
REMARK                            x       y       z     vdW  Elec       q    Type
REMARK                         _______ _______ _______ _____ _____    ______ ____
ROOT
ATOM      1  N   UNL     1      32.992 -12.935 -26.498  0.00  0.00    -0.163 N 
ATOM      2  N   UNL     1      33.584 -15.101 -25.535  0.00  0.00    -0.378 NA
ATOM      3  N   UNL     1      32.143 -12.494 -27.449  0.00  0.00    -0.033 NA
ATOM      4  N   UNL     1      31.597 -15.951 -27.464  0.00  0.00    -0.208 NA
ATOM      5  N   UNL     1      31.503 -13.553 -27.945  0.00  0.00    -0.086 NA
ATOM      6  C   UNL     1      32.915 -14.285 -26.362  0.00  0.00    +0.267 C 
ATOM      7  C   UNL     1      33.211 -16.388 -25.717  0.00  0.00    +0.140 C 
ATOM      8  C   UNL     1      31.962 -14.658 -27.291  0.00  0.00    +0.098 C 
ATOM      9  C   UNL     1      32.259 -16.796 -26.641  0.00  0.00    +0.195 C 
ENDROOT
BRANCH   7  12
ATOM     10  N   UNL     1      35.150 -18.216 -23.338  0.00  0.00    -0.208 N 
ATOM     11  N   UNL     1      34.573 -19.291 -23.902  0.00  0.00    -0.176 NA
ATOM     12  C   UNL     1      33.868 -17.352 -24.881  0.00  0.00    +0.064 C 
ATOM     13  C   UNL     1      34.761 -17.030 -23.888  0.00  0.00    +0.088 C 
ATOM     14  C   UNL     1      33.791 -18.757 -24.844  0.00  0.00    +0.121 C 
BRANCH  10  15
ATOM     15  C   UNL     1      36.083 -18.391 -22.250  0.00  0.00    +0.148 C 
BRANCH  15  16
ATOM     16  C   UNL     1      35.514 -19.245 -21.125  0.00  0.00    +0.161 C 
BRANCH  16  17
ATOM     17  O   UNL     1      36.502 -19.433 -20.120  0.00  0.00    -0.380 OA
ATOM     18  H   UNL     1      36.376 -18.778 -19.416  0.00  0.00    +0.211 HD
ENDBRANCH  16  17
ENDBRANCH  15  16
ENDBRANCH  10  15
ENDBRANCH   7  12
BRANCH   1  19
ATOM     19  C   UNL     1      33.844 -11.994 -25.762  0.00  0.00    +0.145 C 
BRANCH  19  21
ATOM     20  N   UNL     1      31.179  -9.781 -21.287  0.00  0.00    -0.244 NA
ATOM     21  C   UNL     1      33.143 -11.420 -24.578  0.00  0.00    -0.000 C 
ATOM     22  C   UNL     1      32.820 -12.231 -23.494  0.00  0.00    -0.001 C 
ATOM     23  C   UNL     1      32.158 -11.694 -22.376  0.00  0.00    +0.017 C 
ATOM     24  C   UNL     1      32.806 -10.072 -24.551  0.00  0.00    -0.001 C 
ATOM     25  C   UNL     1      31.814 -10.327 -22.342  0.00  0.00    +0.081 C 
ATOM     26  C   UNL     1      32.148  -9.539 -23.440  0.00  0.00    +0.019 C 
ATOM     27  C   UNL     1      31.822 -12.488 -21.272  0.00  0.00    +0.003 C 
ATOM     28  C   UNL     1      31.168 -11.928 -20.183  0.00  0.00    +0.021 C 
ATOM     29  C   UNL     1      30.873 -10.581 -20.241  0.00  0.00    +0.099 C 
ENDBRANCH  19  21
ENDBRANCH   1  19
TORSDOF 6
ENDMDL
MODEL 9
REMARK VINA RESULT:     -10.3      3.175      4.582
REMARK  Name = 17754438
REMARK  6 active torsions:
REMARK  status: ('A' for Active; 'I' for Inactive)
REMARK    1  A    between atoms: N_1  and  C_19
REMARK    2  A    between atoms: C_7  and  C_12
REMARK    3  A    between atoms: N_10  and  C_15
REMARK    4  A    between atoms: C_15  and  C_16
REMARK    5  A    between atoms: C_16  and  O_17
REMARK    6  A    between atoms: C_19  and  C_21
REMARK                            x       y       z     vdW  Elec       q    Type
REMARK                         _______ _______ _______ _____ _____    ______ ____
ROOT
ATOM      1  N   UNL     1      34.362 -21.291 -19.702  0.00  0.00    -0.163 N 
ATOM      2  N   UNL     1      32.982 -22.346 -17.983  0.00  0.00    -0.378 NA
ATOM      3  N   UNL     1      35.679 -21.084 -19.897  0.00  0.00    -0.033 NA
ATOM      4  N   UNL     1      35.606 -22.781 -16.837  0.00  0.00    -0.208 NA
ATOM      5  N   UNL     1      36.332 -21.608 -18.860  0.00  0.00    -0.086 NA
ATOM      6  C   UNL     1      34.139 -21.952 -18.536  0.00  0.00    +0.267 C 
ATOM      7  C   UNL     1      33.196 -22.980 -16.808  0.00  0.00    +0.140 C 
ATOM      8  C   UNL     1      35.404 -22.145 -18.016  0.00  0.00    +0.098 C 
ATOM      9  C   UNL     1      34.454 -23.189 -16.258  0.00  0.00    +0.195 C 
ENDROOT
BRANCH   7  12
ATOM     10  N   UNL     1      29.925 -23.810 -15.639  0.00  0.00    -0.208 N 
ATOM     11  N   UNL     1      30.587 -24.430 -14.647  0.00  0.00    -0.176 NA
ATOM     12  C   UNL     1      32.022 -23.445 -16.127  0.00  0.00    +0.064 C 
ATOM     13  C   UNL     1      30.738 -23.205 -16.551  0.00  0.00    +0.088 C 
ATOM     14  C   UNL     1      31.868 -24.203 -14.951  0.00  0.00    +0.121 C 
BRANCH  10  15
ATOM     15  C   UNL     1      28.482 -23.835 -15.662  0.00  0.00    +0.148 C 
BRANCH  15  16
ATOM     16  C   UNL     1      27.904 -23.108 -16.868  0.00  0.00    +0.161 C 
BRANCH  16  17
ATOM     17  O   UNL     1      27.211 -24.032 -17.698  0.00  0.00    -0.380 OA
ATOM     18  H   UNL     1      27.705 -24.865 -17.737  0.00  0.00    +0.211 HD
ENDBRANCH  16  17
ENDBRANCH  15  16
ENDBRANCH  10  15
ENDBRANCH   7  12
BRANCH   1  19
ATOM     19  C   UNL     1      33.378 -20.822 -20.684  0.00  0.00    +0.145 C 
BRANCH  19  21
ATOM     20  N   UNL     1      35.155 -16.151 -23.337  0.00  0.00    -0.244 NA
ATOM     21  C   UNL     1      33.841 -19.594 -21.391  0.00  0.00    -0.000 C 
ATOM     22  C   UNL     1      33.575 -19.425 -22.747  0.00  0.00    -0.001 C 
ATOM     23  C   UNL     1      34.010 -18.269 -23.418  0.00  0.00    +0.017 C 
ATOM     24  C   UNL     1      34.543 -18.613 -20.702  0.00  0.00    -0.001 C 
ATOM     25  C   UNL     1      34.723 -17.269 -22.724  0.00  0.00    +0.081 C 
ATOM     26  C   UNL     1      34.976 -17.464 -21.369  0.00  0.00    +0.019 C 
ATOM     27  C   UNL     1      33.755 -18.073 -24.781  0.00  0.00    +0.003 C 
ATOM     28  C   UNL     1      34.199 -16.921 -25.416  0.00  0.00    +0.021 C 
ATOM     29  C   UNL     1      34.888 -15.999 -24.654  0.00  0.00    +0.099 C 
ENDBRANCH  19  21
ENDBRANCH   1  19
TORSDOF 6
ENDMDL
