MODEL 1
REMARK VINA RESULT:     -12.8      0.000      0.000
REMARK  Name = 10430360
REMARK  6 active torsions:
REMARK  status: ('A' for Active; 'I' for Inactive)
REMARK    1  A    between atoms: C_4  and  C_18
REMARK    2  A    between atoms: C_7  and  C_14
REMARK    3  A    between atoms: C_17  and  O_23
REMARK    4  A    between atoms: O_23  and  C_24
REMARK    5  A    between atoms: C_24  and  C_25
REMARK    6  A    between atoms: C_25  and  N_26
REMARK                            x       y       z     vdW  Elec       q    Type
REMARK                         _______ _______ _______ _____ _____    ______ ____
ROOT
ATOM      1  N   UNL     1      33.437 -24.686 -13.495  0.00  0.00    -0.276 N 
ATOM      2  N   UNL     1      34.426 -24.185 -14.255  0.00  0.00    -0.173 NA
ATOM      3  C   UNL     1      32.376 -23.783 -15.188  0.00  0.00    +0.036 A 
ATOM      4  C   UNL     1      33.779 -23.634 -15.288  0.00  0.00    +0.102 A 
ATOM      5  C   UNL     1      32.182 -24.479 -14.000  0.00  0.00    +0.075 A 
ATOM      6  C   UNL     1      31.260 -23.414 -15.959  0.00  0.00    +0.006 C 
ATOM      7  C   UNL     1      29.985 -23.762 -15.499  0.00  0.00    +0.033 C 
ATOM      8  C   UNL     1      30.919 -24.836 -13.524  0.00  0.00    +0.019 C 
ATOM      9  C   UNL     1      29.819 -24.461 -14.302  0.00  0.00    +0.004 C 
ATOM     10  H   UNL     1      33.602 -25.161 -12.649  0.00  0.00    +0.189 HD
ENDROOT
BRANCH   7  14
ATOM     11  N   UNL     1      28.098 -24.293 -16.990  0.00  0.00    -0.218 N 
ATOM     12  N   UNL     1      28.312 -22.196 -16.414  0.00  0.00    -0.206 NA
ATOM     13  N   UNL     1      27.076 -23.694 -17.621  0.00  0.00    -0.157 NA
ATOM     14  C   UNL     1      28.825 -23.394 -16.276  0.00  0.00    +0.149 C 
ATOM     15  C   UNL     1      27.250 -22.428 -17.240  0.00  0.00    +0.218 C 
ATOM     16  H   UNL     1      28.294 -25.256 -17.037  0.00  0.00    +0.176 HD
ENDBRANCH   7  14
BRANCH   4  18
ATOM     17  C   UNL     1      34.622 -22.125 -18.584  0.00  0.00    +0.138 C 
ATOM     18  C   UNL     1      34.510 -22.981 -16.337  0.00  0.00    +0.022 C 
ATOM     19  C   UNL     1      33.907 -22.758 -17.575  0.00  0.00    +0.038 C 
ATOM     20  C   UNL     1      35.933 -21.712 -18.373  0.00  0.00    +0.037 C 
ATOM     21  C   UNL     1      35.825 -22.570 -16.118  0.00  0.00    +0.002 C 
ATOM     22  C   UNL     1      36.536 -21.935 -17.135  0.00  0.00    +0.003 C 
BRANCH  17  23
ATOM     23  O   UNL     1      34.030 -21.905 -19.800  0.00  0.00    -0.478 OA
BRANCH  23  24
ATOM     24  C   UNL     1      33.774 -20.551 -20.153  0.00  0.00    +0.183 C 
BRANCH  24  25
ATOM     25  C   UNL     1      34.895 -20.062 -21.056  0.00  0.00    -0.029 C 
BRANCH  25  26
ATOM     26  N   UNL     1      34.443 -18.940 -21.879  0.00  0.00    +0.389 N 
ATOM     27  C   UNL     1      35.219 -17.731 -21.571  0.00  0.00    -0.077 C 
ATOM     28  C   UNL     1      34.532 -19.281 -23.305  0.00  0.00    -0.077 C 
ATOM     29  C   UNL     1      34.725 -16.536 -22.389  0.00  0.00    -0.023 C 
ATOM     30  C   UNL     1      34.016 -18.136 -24.179  0.00  0.00    -0.023 C 
ATOM     31  C   UNL     1      34.754 -16.836 -23.883  0.00  0.00    -0.004 C 
ATOM     32  H   UNL     1      33.464 -18.749 -21.662  0.00  0.00    -0.080 HD
ENDBRANCH  25  26
ENDBRANCH  24  25
ENDBRANCH  23  24
ENDBRANCH  17  23
ENDBRANCH   4  18
TORSDOF 6
ENDMDL
MODEL 2
REMARK VINA RESULT:     -12.1      2.411      5.229
REMARK  Name = 10430360
REMARK  6 active torsions:
REMARK  status: ('A' for Active; 'I' for Inactive)
REMARK    1  A    between atoms: C_4  and  C_18
REMARK    2  A    between atoms: C_7  and  C_14
REMARK    3  A    between atoms: C_17  and  O_23
REMARK    4  A    between atoms: O_23  and  C_24
REMARK    5  A    between atoms: C_24  and  C_25
REMARK    6  A    between atoms: C_25  and  N_26
REMARK                            x       y       z     vdW  Elec       q    Type
REMARK                         _______ _______ _______ _____ _____    ______ ____
ROOT
ATOM      1  N   UNL     1      31.443 -23.127 -16.914  0.00  0.00    -0.276 N 
ATOM      2  N   UNL     1      31.798 -22.430 -18.008  0.00  0.00    -0.173 NA
ATOM      3  C   UNL     1      33.631 -23.050 -16.786  0.00  0.00    +0.036 A 
ATOM      4  C   UNL     1      33.133 -22.383 -17.929  0.00  0.00    +0.102 A 
ATOM      5  C   UNL     1      32.497 -23.528 -16.138  0.00  0.00    +0.075 A 
ATOM      6  C   UNL     1      34.897 -23.301 -16.230  0.00  0.00    +0.006 C 
ATOM      7  C   UNL     1      34.972 -24.028 -15.036  0.00  0.00    +0.033 C 
ATOM      8  C   UNL     1      32.549 -24.254 -14.947  0.00  0.00    +0.019 C 
ATOM      9  C   UNL     1      33.817 -24.495 -14.407  0.00  0.00    +0.004 C 
ATOM     10  H   UNL     1      30.507 -23.330 -16.692  0.00  0.00    +0.189 HD
ENDROOT
BRANCH   7  14
ATOM     11  N   UNL     1      37.406 -24.368 -15.177  0.00  0.00    -0.218 N 
ATOM     12  N   UNL     1      36.527 -24.503 -13.180  0.00  0.00    -0.206 NA
ATOM     13  N   UNL     1      38.463 -24.628 -14.392  0.00  0.00    -0.157 NA
ATOM     14  C   UNL     1      36.263 -24.296 -14.447  0.00  0.00    +0.149 C 
ATOM     15  C   UNL     1      37.879 -24.701 -13.195  0.00  0.00    +0.218 C 
ATOM     16  H   UNL     1      37.454 -24.245 -16.152  0.00  0.00    +0.176 HD
ENDBRANCH   7  14
BRANCH   4  18
ATOM     17  C   UNL     1      33.995 -20.258 -20.860  0.00  0.00    +0.138 C 
ATOM     18  C   UNL     1      33.895 -21.710 -18.943  0.00  0.00    +0.022 C 
ATOM     19  C   UNL     1      33.250 -20.907 -19.883  0.00  0.00    +0.038 C 
ATOM     20  C   UNL     1      35.377 -20.401 -20.910  0.00  0.00    +0.037 C 
ATOM     21  C   UNL     1      35.281 -21.858 -18.986  0.00  0.00    +0.002 C 
ATOM     22  C   UNL     1      36.023 -21.204 -19.970  0.00  0.00    +0.003 C 
BRANCH  17  23
ATOM     23  O   UNL     1      33.362 -19.468 -21.784  0.00  0.00    -0.478 OA
BRANCH  23  24
ATOM     24  C   UNL     1      34.185 -18.623 -22.577  0.00  0.00    +0.183 C 
BRANCH  24  25
ATOM     25  C   UNL     1      33.999 -18.993 -24.040  0.00  0.00    -0.029 C 
BRANCH  25  26
ATOM     26  N   UNL     1      33.163 -18.003 -24.720  0.00  0.00    +0.389 N 
ATOM     27  C   UNL     1      33.971 -16.850 -25.142  0.00  0.00    -0.077 C 
ATOM     28  C   UNL     1      32.470 -18.614 -25.862  0.00  0.00    -0.077 C 
ATOM     29  C   UNL     1      33.102 -15.784 -25.812  0.00  0.00    -0.023 C 
ATOM     30  C   UNL     1      31.553 -17.605 -26.555  0.00  0.00    -0.023 C 
ATOM     31  C   UNL     1      32.322 -16.361 -26.987  0.00  0.00    -0.004 C 
ATOM     32  H   UNL     1      32.455 -17.668 -24.066  0.00  0.00    -0.080 HD
ENDBRANCH  25  26
ENDBRANCH  24  25
ENDBRANCH  23  24
ENDBRANCH  17  23
ENDBRANCH   4  18
TORSDOF 6
ENDMDL
MODEL 3
REMARK VINA RESULT:     -12.0      3.354      6.057
REMARK  Name = 10430360
REMARK  6 active torsions:
REMARK  status: ('A' for Active; 'I' for Inactive)
REMARK    1  A    between atoms: C_4  and  C_18
REMARK    2  A    between atoms: C_7  and  C_14
REMARK    3  A    between atoms: C_17  and  O_23
REMARK    4  A    between atoms: O_23  and  C_24
REMARK    5  A    between atoms: C_24  and  C_25
REMARK    6  A    between atoms: C_25  and  N_26
REMARK                            x       y       z     vdW  Elec       q    Type
REMARK                         _______ _______ _______ _____ _____    ______ ____
ROOT
ATOM      1  N   UNL     1      32.165 -25.115 -14.097  0.00  0.00    -0.276 N 
ATOM      2  N   UNL     1      33.200 -24.652 -14.818  0.00  0.00    -0.173 NA
ATOM      3  C   UNL     1      31.206 -23.879 -15.634  0.00  0.00    +0.036 A 
ATOM      4  C   UNL     1      32.615 -23.898 -15.757  0.00  0.00    +0.102 A 
ATOM      5  C   UNL     1      30.940 -24.689 -14.535  0.00  0.00    +0.075 A 
ATOM      6  C   UNL     1      30.137 -23.278 -16.320  0.00  0.00    +0.006 C 
ATOM      7  C   UNL     1      28.834 -23.517 -15.869  0.00  0.00    +0.033 C 
ATOM      8  C   UNL     1      29.649 -24.940 -14.069  0.00  0.00    +0.019 C 
ATOM      9  C   UNL     1      28.595 -24.334 -14.762  0.00  0.00    +0.004 C 
ATOM     10  H   UNL     1      32.279 -25.710 -13.321  0.00  0.00    +0.189 HD
ENDROOT
BRANCH   7  14
ATOM     11  N   UNL     1      26.693 -22.302 -15.913  0.00  0.00    -0.218 N 
ATOM     12  N   UNL     1      27.530 -22.851 -17.855  0.00  0.00    -0.206 NA
ATOM     13  N   UNL     1      25.791 -21.823 -16.783  0.00  0.00    -0.157 NA
ATOM     14  C   UNL     1      27.721 -22.910 -16.560  0.00  0.00    +0.149 C 
ATOM     15  C   UNL     1      26.343 -22.181 -17.943  0.00  0.00    +0.218 C 
ATOM     16  H   UNL     1      26.620 -22.222 -14.934  0.00  0.00    +0.176 HD
ENDBRANCH   7  14
BRANCH   4  18
ATOM     17  C   UNL     1      35.485 -22.187 -17.395  0.00  0.00    +0.138 C 
ATOM     18  C   UNL     1      33.411 -23.217 -16.738  0.00  0.00    +0.022 C 
ATOM     19  C   UNL     1      34.722 -22.846 -16.439  0.00  0.00    +0.038 C 
ATOM     20  C   UNL     1      34.955 -21.893 -18.647  0.00  0.00    +0.037 C 
ATOM     21  C   UNL     1      32.872 -22.926 -17.992  0.00  0.00    +0.002 C 
ATOM     22  C   UNL     1      33.644 -22.264 -18.946  0.00  0.00    +0.003 C 
BRANCH  17  23
ATOM     23  O   UNL     1      36.773 -21.823 -17.102  0.00  0.00    -0.478 OA
BRANCH  23  24
ATOM     24  C   UNL     1      37.249 -22.140 -15.800  0.00  0.00    +0.183 C 
BRANCH  24  25
ATOM     25  C   UNL     1      37.706 -23.590 -15.788  0.00  0.00    -0.029 C 
BRANCH  25  26
ATOM     26  N   UNL     1      37.739 -24.109 -14.420  0.00  0.00    +0.389 N 
ATOM     27  C   UNL     1      36.743 -23.423 -13.586  0.00  0.00    -0.077 C 
ATOM     28  C   UNL     1      37.526 -25.563 -14.417  0.00  0.00    -0.077 C 
ATOM     29  C   UNL     1      36.798 -23.920 -12.141  0.00  0.00    -0.023 C 
ATOM     30  C   UNL     1      37.607 -26.129 -12.998  0.00  0.00    -0.023 C 
ATOM     31  C   UNL     1      36.622 -25.432 -12.066  0.00  0.00    -0.004 C 
ATOM     32  H   UNL     1      38.661 -23.926 -14.023  0.00  0.00    -0.080 HD
ENDBRANCH  25  26
ENDBRANCH  24  25
ENDBRANCH  23  24
ENDBRANCH  17  23
ENDBRANCH   4  18
TORSDOF 6
ENDMDL
MODEL 4
REMARK VINA RESULT:     -11.9      5.040     11.760
REMARK  Name = 10430360
REMARK  6 active torsions:
REMARK  status: ('A' for Active; 'I' for Inactive)
REMARK    1  A    between atoms: C_4  and  C_18
REMARK    2  A    between atoms: C_7  and  C_14
REMARK    3  A    between atoms: C_17  and  O_23
REMARK    4  A    between atoms: O_23  and  C_24
REMARK    5  A    between atoms: C_24  and  C_25
REMARK    6  A    between atoms: C_25  and  N_26
REMARK                            x       y       z     vdW  Elec       q    Type
REMARK                         _______ _______ _______ _____ _____    ______ ____
ROOT
ATOM      1  N   UNL     1      33.747 -13.106 -27.665  0.00  0.00    -0.276 N 
ATOM      2  N   UNL     1      33.678 -14.447 -27.735  0.00  0.00    -0.173 NA
ATOM      3  C   UNL     1      33.073 -13.691 -25.662  0.00  0.00    +0.036 A 
ATOM      4  C   UNL     1      33.266 -14.803 -26.513  0.00  0.00    +0.102 A 
ATOM      5  C   UNL     1      33.397 -12.590 -26.446  0.00  0.00    +0.075 A 
ATOM      6  C   UNL     1      32.666 -13.492 -24.332  0.00  0.00    +0.006 C 
ATOM      7  C   UNL     1      32.600 -12.182 -23.841  0.00  0.00    +0.033 C 
ATOM      8  C   UNL     1      33.339 -11.276 -25.977  0.00  0.00    +0.019 C 
ATOM      9  C   UNL     1      32.932 -11.095 -24.651  0.00  0.00    +0.004 C 
ATOM     10  H   UNL     1      34.026 -12.545 -28.424  0.00  0.00    +0.189 HD
ENDROOT
BRANCH   7  14
ATOM     11  N   UNL     1      32.214 -12.924 -21.526  0.00  0.00    -0.218 N 
ATOM     12  N   UNL     1      31.735 -10.837 -21.962  0.00  0.00    -0.206 NA
ATOM     13  N   UNL     1      31.778 -12.455 -20.346  0.00  0.00    -0.157 NA
ATOM     14  C   UNL     1      32.185 -11.955 -22.477  0.00  0.00    +0.149 C 
ATOM     15  C   UNL     1      31.500 -11.189 -20.663  0.00  0.00    +0.218 C 
ATOM     16  H   UNL     1      32.517 -13.848 -21.680  0.00  0.00    +0.176 HD
ENDBRANCH   7  14
BRANCH   4  18
ATOM     17  C   UNL     1      33.662 -18.142 -24.916  0.00  0.00    +0.138 C 
ATOM     18  C   UNL     1      33.067 -16.189 -26.192  0.00  0.00    +0.022 C 
ATOM     19  C   UNL     1      33.861 -16.801 -25.222  0.00  0.00    +0.038 C 
ATOM     20  C   UNL     1      32.679 -18.879 -25.567  0.00  0.00    +0.037 C 
ATOM     21  C   UNL     1      32.080 -16.922 -26.849  0.00  0.00    +0.002 C 
ATOM     22  C   UNL     1      31.885 -18.267 -26.537  0.00  0.00    +0.003 C 
BRANCH  17  23
ATOM     23  O   UNL     1      34.440 -18.744 -23.962  0.00  0.00    -0.478 OA
BRANCH  23  24
ATOM     24  C   UNL     1      34.253 -18.317 -22.619  0.00  0.00    +0.183 C 
BRANCH  24  25
ATOM     25  C   UNL     1      35.339 -18.937 -21.754  0.00  0.00    -0.029 C 
BRANCH  25  26
ATOM     26  N   UNL     1      34.749 -19.680 -20.640  0.00  0.00    +0.389 N 
ATOM     27  C   UNL     1      33.368 -20.070 -20.956  0.00  0.00    -0.077 C 
ATOM     28  C   UNL     1      35.571 -20.853 -20.312  0.00  0.00    -0.077 C 
ATOM     29  C   UNL     1      32.720 -20.806 -19.782  0.00  0.00    -0.023 C 
ATOM     30  C   UNL     1      34.995 -21.614 -19.116  0.00  0.00    -0.023 C 
ATOM     31  C   UNL     1      33.545 -22.017 -19.362  0.00  0.00    -0.004 C 
ATOM     32  H   UNL     1      34.725 -19.074 -19.819  0.00  0.00    -0.080 HD
ENDBRANCH  25  26
ENDBRANCH  24  25
ENDBRANCH  23  24
ENDBRANCH  17  23
ENDBRANCH   4  18
TORSDOF 6
ENDMDL
MODEL 5
REMARK VINA RESULT:     -11.7      7.537     12.301
REMARK  Name = 10430360
REMARK  6 active torsions:
REMARK  status: ('A' for Active; 'I' for Inactive)
REMARK    1  A    between atoms: C_4  and  C_18
REMARK    2  A    between atoms: C_7  and  C_14
REMARK    3  A    between atoms: C_17  and  O_23
REMARK    4  A    between atoms: O_23  and  C_24
REMARK    5  A    between atoms: C_24  and  C_25
REMARK    6  A    between atoms: C_25  and  N_26
REMARK                            x       y       z     vdW  Elec       q    Type
REMARK                         _______ _______ _______ _____ _____    ______ ____
ROOT
ATOM      1  N   UNL     1      31.190 -16.492 -27.806  0.00  0.00    -0.276 N 
ATOM      2  N   UNL     1      31.494 -15.187 -27.899  0.00  0.00    -0.173 NA
ATOM      3  C   UNL     1      32.672 -16.196 -26.217  0.00  0.00    +0.036 A 
ATOM      4  C   UNL     1      32.398 -15.006 -26.929  0.00  0.00    +0.102 A 
ATOM      5  C   UNL     1      31.863 -17.156 -26.815  0.00  0.00    +0.075 A 
ATOM      6  C   UNL     1      33.501 -16.568 -25.145  0.00  0.00    +0.006 C 
ATOM      7  C   UNL     1      33.483 -17.901 -24.716  0.00  0.00    +0.033 C 
ATOM      8  C   UNL     1      31.829 -18.489 -26.403  0.00  0.00    +0.019 C 
ATOM      9  C   UNL     1      32.660 -18.843 -25.335  0.00  0.00    +0.004 C 
ATOM     10  H   UNL     1      30.540 -16.932 -28.399  0.00  0.00    +0.189 HD
ENDROOT
BRANCH   7  14
ATOM     11  N   UNL     1      35.630 -17.938 -23.513  0.00  0.00    -0.218 N 
ATOM     12  N   UNL     1      33.991 -19.050 -22.592  0.00  0.00    -0.206 NA
ATOM     13  N   UNL     1      36.187 -18.443 -22.401  0.00  0.00    -0.157 NA
ATOM     14  C   UNL     1      34.327 -18.304 -23.616  0.00  0.00    +0.149 C 
ATOM     15  C   UNL     1      35.155 -19.108 -21.880  0.00  0.00    +0.218 C 
ATOM     16  H   UNL     1      36.105 -17.374 -24.166  0.00  0.00    +0.176 HD
ENDBRANCH   7  14
BRANCH   4  18
ATOM     17  C   UNL     1      33.403 -11.832 -25.266  0.00  0.00    +0.138 C 
ATOM     18  C   UNL     1      32.976 -13.710 -26.710  0.00  0.00    +0.022 C 
ATOM     19  C   UNL     1      32.840 -13.086 -25.470  0.00  0.00    +0.038 C 
ATOM     20  C   UNL     1      34.101 -11.193 -26.285  0.00  0.00    +0.037 C 
ATOM     21  C   UNL     1      33.675 -13.076 -27.737  0.00  0.00    +0.002 C 
ATOM     22  C   UNL     1      34.237 -11.817 -27.525  0.00  0.00    +0.003 C 
BRANCH  17  23
ATOM     23  O   UNL     1      33.270 -11.218 -24.048  0.00  0.00    -0.478 OA
BRANCH  23  24
ATOM     24  C   UNL     1      33.358  -9.799 -24.032  0.00  0.00    +0.183 C 
BRANCH  24  25
ATOM     25  C   UNL     1      32.104  -9.239 -23.381  0.00  0.00    -0.029 C 
BRANCH  25  26
ATOM     26  N   UNL     1      31.966  -9.739 -22.013  0.00  0.00    +0.389 N 
ATOM     27  C   UNL     1      32.133  -8.644 -21.046  0.00  0.00    -0.077 C 
ATOM     28  C   UNL     1      30.670 -10.409 -21.838  0.00  0.00    -0.077 C 
ATOM     29  C   UNL     1      32.040  -9.159 -19.609  0.00  0.00    -0.023 C 
ATOM     30  C   UNL     1      30.530 -10.981 -20.426  0.00  0.00    -0.023 C 
ATOM     31  C   UNL     1      30.731  -9.902 -19.368  0.00  0.00    -0.004 C 
ATOM     32  H   UNL     1      32.700 -10.426 -21.840  0.00  0.00    -0.080 HD
ENDBRANCH  25  26
ENDBRANCH  24  25
ENDBRANCH  23  24
ENDBRANCH  17  23
ENDBRANCH   4  18
TORSDOF 6
ENDMDL
MODEL 6
REMARK VINA RESULT:     -11.5      2.795      5.817
REMARK  Name = 10430360
REMARK  6 active torsions:
REMARK  status: ('A' for Active; 'I' for Inactive)
REMARK    1  A    between atoms: C_4  and  C_18
REMARK    2  A    between atoms: C_7  and  C_14
REMARK    3  A    between atoms: C_17  and  O_23
REMARK    4  A    between atoms: O_23  and  C_24
REMARK    5  A    between atoms: C_24  and  C_25
REMARK    6  A    between atoms: C_25  and  N_26
REMARK                            x       y       z     vdW  Elec       q    Type
REMARK                         _______ _______ _______ _____ _____    ______ ____
ROOT
ATOM      1  N   UNL     1      31.809 -22.202 -18.801  0.00  0.00    -0.276 N 
ATOM      2  N   UNL     1      32.358 -21.380 -19.711  0.00  0.00    -0.173 NA
ATOM      3  C   UNL     1      33.919 -22.115 -18.208  0.00  0.00    +0.036 A 
ATOM      4  C   UNL     1      33.645 -21.326 -19.349  0.00  0.00    +0.102 A 
ATOM      5  C   UNL     1      32.693 -22.678 -17.870  0.00  0.00    +0.075 A 
ATOM      6  C   UNL     1      35.050 -22.413 -17.429  0.00  0.00    +0.006 C 
ATOM      7  C   UNL     1      34.901 -23.273 -16.334  0.00  0.00    +0.033 C 
ATOM      8  C   UNL     1      32.523 -23.537 -16.783  0.00  0.00    +0.019 C 
ATOM      9  C   UNL     1      33.658 -23.824 -16.018  0.00  0.00    +0.004 C 
ATOM     10  H   UNL     1      30.855 -22.441 -18.804  0.00  0.00    +0.189 HD
ENDROOT
BRANCH   7  14
ATOM     11  N   UNL     1      37.328 -23.464 -15.965  0.00  0.00    -0.218 N 
ATOM     12  N   UNL     1      36.050 -24.033 -14.287  0.00  0.00    -0.206 NA
ATOM     13  N   UNL     1      38.206 -23.825 -15.017  0.00  0.00    -0.157 NA
ATOM     14  C   UNL     1      36.051 -23.591 -15.521  0.00  0.00    +0.149 C 
ATOM     15  C   UNL     1      37.383 -24.161 -14.023  0.00  0.00    +0.218 C 
ATOM     16  H   UNL     1      37.577 -23.147 -16.864  0.00  0.00    +0.176 HD
ENDBRANCH   7  14
BRANCH   4  18
ATOM     17  C   UNL     1      35.018 -18.768 -21.677  0.00  0.00    +0.138 C 
ATOM     18  C   UNL     1      34.576 -20.531 -20.099  0.00  0.00    +0.022 C 
ATOM     19  C   UNL     1      34.110 -19.533 -20.956  0.00  0.00    +0.038 C 
ATOM     20  C   UNL     1      36.386 -18.985 -21.554  0.00  0.00    +0.037 C 
ATOM     21  C   UNL     1      35.946 -20.755 -19.970  0.00  0.00    +0.002 C 
ATOM     22  C   UNL     1      36.852 -19.983 -20.697  0.00  0.00    +0.003 C 
BRANCH  17  23
ATOM     23  O   UNL     1      34.561 -17.787 -22.519  0.00  0.00    -0.478 OA
BRANCH  23  24
ATOM     24  C   UNL     1      34.814 -17.964 -23.907  0.00  0.00    +0.183 C 
BRANCH  24  25
ATOM     25  C   UNL     1      33.569 -18.543 -24.559  0.00  0.00    -0.029 C 
BRANCH  25  26
ATOM     26  N   UNL     1      33.228 -17.799 -25.772  0.00  0.00    +0.389 N 
ATOM     27  C   UNL     1      31.858 -18.113 -26.200  0.00  0.00    -0.077 C 
ATOM     28  C   UNL     1      33.399 -16.355 -25.553  0.00  0.00    -0.077 C 
ATOM     29  C   UNL     1      31.503 -17.379 -27.494  0.00  0.00    -0.023 C 
ATOM     30  C   UNL     1      33.094 -15.565 -26.827  0.00  0.00    -0.023 C 
ATOM     31  C   UNL     1      31.696 -15.874 -27.350  0.00  0.00    -0.004 C 
ATOM     32  H   UNL     1      33.864 -18.080 -26.518  0.00  0.00    -0.080 HD
ENDBRANCH  25  26
ENDBRANCH  24  25
ENDBRANCH  23  24
ENDBRANCH  17  23
ENDBRANCH   4  18
TORSDOF 6
ENDMDL
MODEL 7
REMARK VINA RESULT:     -11.5      1.969      4.533
REMARK  Name = 10430360
REMARK  6 active torsions:
REMARK  status: ('A' for Active; 'I' for Inactive)
REMARK    1  A    between atoms: C_4  and  C_18
REMARK    2  A    between atoms: C_7  and  C_14
REMARK    3  A    between atoms: C_17  and  O_23
REMARK    4  A    between atoms: O_23  and  C_24
REMARK    5  A    between atoms: C_24  and  C_25
REMARK    6  A    between atoms: C_25  and  N_26
REMARK                            x       y       z     vdW  Elec       q    Type
REMARK                         _______ _______ _______ _____ _____    ______ ____
ROOT
ATOM      1  N   UNL     1      31.049 -23.141 -17.147  0.00  0.00    -0.276 N 
ATOM      2  N   UNL     1      31.754 -22.572 -18.139  0.00  0.00    -0.173 NA
ATOM      3  C   UNL     1      33.092 -23.080 -16.354  0.00  0.00    +0.036 A 
ATOM      4  C   UNL     1      33.001 -22.534 -17.655  0.00  0.00    +0.102 A 
ATOM      5  C   UNL     1      31.794 -23.469 -16.046  0.00  0.00    +0.075 A 
ATOM      6  C   UNL     1      34.114 -23.285 -15.410  0.00  0.00    +0.006 C 
ATOM      7  C   UNL     1      33.784 -23.880 -14.186  0.00  0.00    +0.033 C 
ATOM      8  C   UNL     1      31.444 -24.064 -14.832  0.00  0.00    +0.019 C 
ATOM      9  C   UNL     1      32.471 -24.262 -13.904  0.00  0.00    +0.004 C 
ATOM     10  H   UNL     1      30.081 -23.306 -17.207  0.00  0.00    +0.189 HD
ENDROOT
BRANCH   7  14
ATOM     11  N   UNL     1      34.760 -25.096 -12.281  0.00  0.00    -0.218 N 
ATOM     12  N   UNL     1      35.921 -23.410 -13.046  0.00  0.00    -0.206 NA
ATOM     13  N   UNL     1      35.842 -25.082 -11.487  0.00  0.00    -0.157 NA
ATOM     14  C   UNL     1      34.818 -24.100 -13.203  0.00  0.00    +0.149 C 
ATOM     15  C   UNL     1      36.512 -24.044 -11.990  0.00  0.00    +0.218 C 
ATOM     16  H   UNL     1      34.024 -25.745 -12.206  0.00  0.00    +0.176 HD
ENDBRANCH   7  14
BRANCH   4  18
ATOM     17  C   UNL     1      34.819 -20.765 -20.378  0.00  0.00    +0.138 C 
ATOM     18  C   UNL     1      34.068 -21.984 -18.443  0.00  0.00    +0.022 C 
ATOM     19  C   UNL     1      33.781 -21.295 -19.622  0.00  0.00    +0.038 C 
ATOM     20  C   UNL     1      36.141 -20.915 -19.973  0.00  0.00    +0.037 C 
ATOM     21  C   UNL     1      35.391 -22.139 -18.030  0.00  0.00    +0.002 C 
ATOM     22  C   UNL     1      36.428 -21.604 -18.794  0.00  0.00    +0.003 C 
BRANCH  17  23
ATOM     23  O   UNL     1      34.538 -20.087 -21.535  0.00  0.00    -0.478 OA
BRANCH  23  24
ATOM     24  C   UNL     1      35.367 -18.973 -21.843  0.00  0.00    +0.183 C 
BRANCH  24  25
ATOM     25  C   UNL     1      35.008 -18.467 -23.231  0.00  0.00    -0.029 C 
BRANCH  25  26
ATOM     26  N   UNL     1      34.321 -17.178 -23.148  0.00  0.00    +0.389 N 
ATOM     27  C   UNL     1      34.960 -16.317 -22.144  0.00  0.00    -0.077 C 
ATOM     28  C   UNL     1      34.290 -16.526 -24.465  0.00  0.00    -0.077 C 
ATOM     29  C   UNL     1      34.224 -14.984 -22.011  0.00  0.00    -0.023 C 
ATOM     30  C   UNL     1      33.532 -15.200 -24.407  0.00  0.00    -0.023 C 
ATOM     31  C   UNL     1      34.121 -14.269 -23.353  0.00  0.00    -0.004 C 
ATOM     32  H   UNL     1      33.357 -17.340 -22.856  0.00  0.00    -0.080 HD
ENDBRANCH  25  26
ENDBRANCH  24  25
ENDBRANCH  23  24
ENDBRANCH  17  23
ENDBRANCH   4  18
TORSDOF 6
ENDMDL
MODEL 8
REMARK VINA RESULT:     -11.3      7.451     12.565
REMARK  Name = 10430360
REMARK  6 active torsions:
REMARK  status: ('A' for Active; 'I' for Inactive)
REMARK    1  A    between atoms: C_4  and  C_18
REMARK    2  A    between atoms: C_7  and  C_14
REMARK    3  A    between atoms: C_17  and  O_23
REMARK    4  A    between atoms: O_23  and  C_24
REMARK    5  A    between atoms: C_24  and  C_25
REMARK    6  A    between atoms: C_25  and  N_26
REMARK                            x       y       z     vdW  Elec       q    Type
REMARK                         _______ _______ _______ _____ _____    ______ ____
ROOT
ATOM      1  N   UNL     1      31.308 -16.548 -27.833  0.00  0.00    -0.276 N 
ATOM      2  N   UNL     1      31.581 -15.233 -27.887  0.00  0.00    -0.173 NA
ATOM      3  C   UNL     1      32.721 -16.248 -26.182  0.00  0.00    +0.036 A 
ATOM      4  C   UNL     1      32.443 -15.050 -26.880  0.00  0.00    +0.102 A 
ATOM      5  C   UNL     1      31.961 -17.215 -26.831  0.00  0.00    +0.075 A 
ATOM      6  C   UNL     1      33.519 -16.621 -25.088  0.00  0.00    +0.006 C 
ATOM      7  C   UNL     1      33.521 -17.963 -24.687  0.00  0.00    +0.033 C 
ATOM      8  C   UNL     1      31.947 -18.557 -26.447  0.00  0.00    +0.019 C 
ATOM      9  C   UNL     1      32.747 -18.913 -25.356  0.00  0.00    +0.004 C 
ATOM     10  H   UNL     1      30.692 -16.992 -28.459  0.00  0.00    +0.189 HD
ENDROOT
BRANCH   7  14
ATOM     11  N   UNL     1      35.625 -17.979 -23.410  0.00  0.00    -0.218 N 
ATOM     12  N   UNL     1      33.976 -19.136 -22.565  0.00  0.00    -0.206 NA
ATOM     13  N   UNL     1      36.152 -18.492 -22.287  0.00  0.00    -0.157 NA
ATOM     14  C   UNL     1      34.333 -18.368 -23.564  0.00  0.00    +0.149 C 
ATOM     15  C   UNL     1      35.115 -19.184 -21.813  0.00  0.00    +0.218 C 
ATOM     16  H   UNL     1      36.111 -17.397 -24.038  0.00  0.00    +0.176 HD
ENDBRANCH   7  14
BRANCH   4  18
ATOM     17  C   UNL     1      33.421 -11.945 -25.077  0.00  0.00    +0.138 C 
ATOM     18  C   UNL     1      32.978 -13.745 -26.613  0.00  0.00    +0.022 C 
ATOM     19  C   UNL     1      32.900 -13.209 -25.327  0.00  0.00    +0.038 C 
ATOM     20  C   UNL     1      34.018 -11.209 -26.094  0.00  0.00    +0.037 C 
ATOM     21  C   UNL     1      33.575 -13.013 -27.638  0.00  0.00    +0.002 C 
ATOM     22  C   UNL     1      34.095 -11.745 -27.380  0.00  0.00    +0.003 C 
BRANCH  17  23
ATOM     23  O   UNL     1      33.346 -11.418 -23.814  0.00  0.00    -0.478 OA
BRANCH  23  24
ATOM     24  C   UNL     1      33.012 -10.040 -23.712  0.00  0.00    +0.183 C 
BRANCH  24  25
ATOM     25  C   UNL     1      32.120  -9.841 -22.498  0.00  0.00    -0.029 C 
BRANCH  25  26
ATOM     26  N   UNL     1      32.185  -8.456 -22.031  0.00  0.00    +0.389 N 
ATOM     27  C   UNL     1      30.944  -7.743 -22.361  0.00  0.00    -0.077 C 
ATOM     28  C   UNL     1      32.456  -8.413 -20.587  0.00  0.00    -0.077 C 
ATOM     29  C   UNL     1      31.015  -6.280 -21.922  0.00  0.00    -0.023 C 
ATOM     30  C   UNL     1      32.576  -6.971 -20.091  0.00  0.00    -0.023 C 
ATOM     31  C   UNL     1      31.332  -6.160 -20.436  0.00  0.00    -0.004 C 
ATOM     32  H   UNL     1      32.955  -7.986 -22.508  0.00  0.00    -0.080 HD
ENDBRANCH  25  26
ENDBRANCH  24  25
ENDBRANCH  23  24
ENDBRANCH  17  23
ENDBRANCH   4  18
TORSDOF 6
ENDMDL
MODEL 9
REMARK VINA RESULT:     -11.2      8.075     12.444
REMARK  Name = 10430360
REMARK  6 active torsions:
REMARK  status: ('A' for Active; 'I' for Inactive)
REMARK    1  A    between atoms: C_4  and  C_18
REMARK    2  A    between atoms: C_7  and  C_14
REMARK    3  A    between atoms: C_17  and  O_23
REMARK    4  A    between atoms: O_23  and  C_24
REMARK    5  A    between atoms: C_24  and  C_25
REMARK    6  A    between atoms: C_25  and  N_26
REMARK                            x       y       z     vdW  Elec       q    Type
REMARK                         _______ _______ _______ _____ _____    ______ ____
ROOT
ATOM      1  N   UNL     1      34.278 -12.372 -28.028  0.00  0.00    -0.276 N 
ATOM      2  N   UNL     1      33.997 -13.671 -28.231  0.00  0.00    -0.173 NA
ATOM      3  C   UNL     1      33.254 -12.971 -26.183  0.00  0.00    +0.036 A 
ATOM      4  C   UNL     1      33.372 -14.036 -27.106  0.00  0.00    +0.102 A 
ATOM      5  C   UNL     1      33.859 -11.891 -26.816  0.00  0.00    +0.075 A 
ATOM      6  C   UNL     1      32.712 -12.799 -24.898  0.00  0.00    +0.006 C 
ATOM      7  C   UNL     1      32.801 -11.537 -24.298  0.00  0.00    +0.033 C 
ATOM      8  C   UNL     1      33.959 -10.626 -26.236  0.00  0.00    +0.019 C 
ATOM      9  C   UNL     1      33.414 -10.470 -24.957  0.00  0.00    +0.004 C 
ATOM     10  H   UNL     1      34.746 -11.817 -28.692  0.00  0.00    +0.189 HD
ENDROOT
BRANCH   7  14
ATOM     11  N   UNL     1      31.996 -10.109 -22.461  0.00  0.00    -0.218 N 
ATOM     12  N   UNL     1      31.928 -12.264 -22.107  0.00  0.00    -0.206 NA
ATOM     13  N   UNL     1      31.490 -10.202 -21.222  0.00  0.00    -0.157 NA
ATOM     14  C   UNL     1      32.251 -11.339 -22.977  0.00  0.00    +0.149 C 
ATOM     15  C   UNL     1      31.469 -11.525 -21.054  0.00  0.00    +0.218 C 
ATOM     16  H   UNL     1      32.158  -9.261 -22.934  0.00  0.00    +0.176 HD
ENDBRANCH   7  14
BRANCH   4  18
ATOM     17  C   UNL     1      33.193 -17.599 -26.046  0.00  0.00    +0.138 C 
ATOM     18  C   UNL     1      32.904 -15.384 -26.942  0.00  0.00    +0.022 C 
ATOM     19  C   UNL     1      33.653 -16.297 -26.200  0.00  0.00    +0.038 C 
ATOM     20  C   UNL     1      31.994 -18.001 -26.624  0.00  0.00    +0.037 C 
ATOM     21  C   UNL     1      31.701 -15.779 -27.525  0.00  0.00    +0.002 C 
ATOM     22  C   UNL     1      31.245 -17.087 -27.365  0.00  0.00    +0.003 C 
BRANCH  17  23
ATOM     23  O   UNL     1      33.927 -18.497 -25.316  0.00  0.00    -0.478 OA
BRANCH  23  24
ATOM     24  C   UNL     1      33.870 -18.372 -23.900  0.00  0.00    +0.183 C 
BRANCH  24  25
ATOM     25  C   UNL     1      35.274 -18.120 -23.376  0.00  0.00    -0.029 C 
BRANCH  25  26
ATOM     26  N   UNL     1      35.303 -16.924 -22.533  0.00  0.00    +0.389 N 
ATOM     27  C   UNL     1      34.565 -15.826 -23.173  0.00  0.00    -0.077 C 
ATOM     28  C   UNL     1      34.763 -17.222 -21.199  0.00  0.00    -0.077 C 
ATOM     29  C   UNL     1      34.627 -14.554 -22.327  0.00  0.00    -0.023 C 
ATOM     30  C   UNL     1      34.832 -15.994 -20.289  0.00  0.00    -0.023 C 
ATOM     31  C   UNL     1      34.115 -14.801 -20.912  0.00  0.00    -0.004 C 
ATOM     32  H   UNL     1      36.273 -16.627 -22.420  0.00  0.00    -0.080 HD
ENDBRANCH  25  26
ENDBRANCH  24  25
ENDBRANCH  23  24
ENDBRANCH  17  23
ENDBRANCH   4  18
TORSDOF 6
ENDMDL
