MODEL 1
REMARK VINA RESULT:     -12.8      0.000      0.000
REMARK  Name = 24871491
REMARK  6 active torsions:
REMARK  status: ('A' for Active; 'I' for Inactive)
REMARK    1  A    between atoms: N_1  and  C_11
REMARK    2  A    between atoms: N_2  and  C_18
REMARK    3  A    between atoms: C_6  and  C_31
REMARK    4  A    between atoms: C_19  and  C_24
REMARK    5  A    between atoms: C_24  and  C_26
REMARK    6  A    between atoms: C_26  and  O_27
REMARK                            x       y       z     vdW  Elec       q    Type
REMARK                         _______ _______ _______ _____ _____    ______ ____
ROOT
ATOM      1  N   UNL     1      32.473 -23.330 -17.111  0.00  0.00    -0.287 N 
ATOM      2  N   UNL     1      34.086 -24.636 -12.878  0.00  0.00    -0.247 N 
ATOM      3  N   UNL     1      33.297 -23.987 -14.988  0.00  0.00    -0.322 NA
ATOM      4  N   UNL     1      31.781 -24.308 -13.142  0.00  0.00    -0.169 NA
ATOM      5  C   UNL     1      32.235 -23.664 -15.755  0.00  0.00    +0.202 C 
ATOM      6  C   UNL     1      30.934 -23.641 -15.294  0.00  0.00    +0.118 C 
ATOM      7  C   UNL     1      33.001 -24.294 -13.710  0.00  0.00    +0.150 C 
ATOM      8  C   UNL     1      30.765 -23.976 -13.966  0.00  0.00    +0.120 C 
ATOM      9  H   UNL     1      31.727 -23.555 -17.712  0.00  0.00    +0.155 HD
ATOM     10  H   UNL     1      33.824 -24.851 -11.955  0.00  0.00    +0.165 HD
ENDROOT
BRANCH   1  11
ATOM     11  C   UNL     1      33.568 -22.741 -17.763  0.00  0.00    +0.050 C 
ATOM     12  C   UNL     1      34.760 -22.526 -17.070  0.00  0.00    +0.010 C 
ATOM     13  C   UNL     1      35.847 -21.941 -17.719  0.00  0.00    -0.021 C 
ATOM     14  C   UNL     1      33.465 -22.371 -19.104  0.00  0.00    +0.015 C 
ATOM     15  C   UNL     1      35.744 -21.571 -19.060  0.00  0.00    -0.004 C 
ATOM     16  C   UNL     1      34.552 -21.785 -19.752  0.00  0.00    +0.001 C 
ATOM     17  C   UNL     1      37.121 -21.710 -16.979  0.00  0.00    +0.031 C 
ENDBRANCH   1  11
BRANCH   2  18
ATOM     18  C   UNL     1      35.474 -24.730 -13.109  0.00  0.00    +0.058 C 
ATOM     19  C   UNL     1      38.219 -24.916 -13.566  0.00  0.00    -0.011 C 
ATOM     20  C   UNL     1      36.115 -23.777 -13.899  0.00  0.00    +0.015 C 
ATOM     21  C   UNL     1      36.205 -25.777 -12.547  0.00  0.00    +0.015 C 
ATOM     22  C   UNL     1      37.489 -23.870 -14.128  0.00  0.00    -0.002 C 
ATOM     23  C   UNL     1      37.578 -25.870 -12.776  0.00  0.00    -0.002 C 
BRANCH  19  24
ATOM     24  C   UNL     1      39.688 -25.015 -13.810  0.00  0.00    +0.136 C 
BRANCH  24  26
ATOM     25  O   UNL     1      40.516 -27.158 -14.619  0.00  0.00    -0.250 OA
ATOM     26  C   UNL     1      40.058 -26.048 -14.856  0.00  0.00    +0.318 C 
BRANCH  26  27
ATOM     27  O   UNL     1      39.822 -25.599 -16.118  0.00  0.00    -0.480 OA
ATOM     28  H   UNL     1      40.196 -26.045 -16.851  0.00  0.00    +0.295 HD
ENDBRANCH  26  27
ENDBRANCH  24  26
ENDBRANCH  19  24
ENDBRANCH   2  18
BRANCH   6  31
ATOM     29  O   UNL     1      29.847 -22.376 -16.957  0.00  0.00    -0.270 OA
ATOM     30  N   UNL     1      28.624 -24.038 -15.956  0.00  0.00    -0.325 N 
ATOM     31  C   UNL     1      29.789 -23.294 -16.120  0.00  0.00    +0.248 C 
ATOM     32  H   UNL     1      27.828 -23.832 -16.498  0.00  0.00    +0.145 HD
ATOM     33  H   UNL     1      28.596 -24.770 -15.299  0.00  0.00    +0.145 HD
ENDBRANCH   6  31
TORSDOF 6
ENDMDL
MODEL 2
REMARK VINA RESULT:     -12.0      1.379      2.021
REMARK  Name = 24871491
REMARK  6 active torsions:
REMARK  status: ('A' for Active; 'I' for Inactive)
REMARK    1  A    between atoms: N_1  and  C_11
REMARK    2  A    between atoms: N_2  and  C_18
REMARK    3  A    between atoms: C_6  and  C_31
REMARK    4  A    between atoms: C_19  and  C_24
REMARK    5  A    between atoms: C_24  and  C_26
REMARK    6  A    between atoms: C_26  and  O_27
REMARK                            x       y       z     vdW  Elec       q    Type
REMARK                         _______ _______ _______ _____ _____    ______ ____
ROOT
ATOM      1  N   UNL     1      31.562 -22.793 -17.582  0.00  0.00    -0.287 N 
ATOM      2  N   UNL     1      33.741 -24.506 -13.769  0.00  0.00    -0.247 N 
ATOM      3  N   UNL     1      32.669 -23.655 -15.672  0.00  0.00    -0.322 NA
ATOM      4  N   UNL     1      31.449 -24.036 -13.630  0.00  0.00    -0.169 NA
ATOM      5  C   UNL     1      31.522 -23.217 -16.232  0.00  0.00    +0.202 C 
ATOM      6  C   UNL     1      30.316 -23.161 -15.563  0.00  0.00    +0.118 C 
ATOM      7  C   UNL     1      32.562 -24.044 -14.387  0.00  0.00    +0.150 C 
ATOM      8  C   UNL     1      30.339 -23.588 -14.252  0.00  0.00    +0.120 C 
ATOM      9  H   UNL     1      30.717 -22.930 -18.068  0.00  0.00    +0.155 HD
ATOM     10  H   UNL     1      33.615 -24.778 -12.832  0.00  0.00    +0.165 HD
ENDROOT
BRANCH   1  11
ATOM     11  C   UNL     1      32.575 -22.214 -18.364  0.00  0.00    +0.050 C 
ATOM     12  C   UNL     1      32.250 -21.278 -19.346  0.00  0.00    +0.010 C 
ATOM     13  C   UNL     1      33.257 -20.703 -20.122  0.00  0.00    -0.021 C 
ATOM     14  C   UNL     1      33.907 -22.573 -18.157  0.00  0.00    +0.015 C 
ATOM     15  C   UNL     1      34.588 -21.062 -19.915  0.00  0.00    -0.004 C 
ATOM     16  C   UNL     1      34.914 -21.999 -18.934  0.00  0.00    +0.001 C 
ATOM     17  C   UNL     1      32.909 -19.704 -21.173  0.00  0.00    +0.031 C 
ENDBRANCH   1  11
BRANCH   2  18
ATOM     18  C   UNL     1      35.065 -24.656 -14.229  0.00  0.00    +0.058 C 
ATOM     19  C   UNL     1      37.684 -24.951 -15.141  0.00  0.00    -0.011 C 
ATOM     20  C   UNL     1      35.874 -23.533 -14.402  0.00  0.00    +0.015 C 
ATOM     21  C   UNL     1      35.565 -25.927 -14.513  0.00  0.00    +0.015 C 
ATOM     22  C   UNL     1      37.184 -23.681 -14.858  0.00  0.00    -0.002 C 
ATOM     23  C   UNL     1      36.875 -26.075 -14.969  0.00  0.00    -0.002 C 
BRANCH  19  24
ATOM     24  C   UNL     1      39.085 -25.110 -15.628  0.00  0.00    +0.136 C 
BRANCH  24  26
ATOM     25  O   UNL     1      40.369 -24.785 -13.585  0.00  0.00    -0.250 OA
ATOM     26  C   UNL     1      40.066 -25.491 -14.537  0.00  0.00    +0.318 C 
BRANCH  26  27
ATOM     27  O   UNL     1      40.586 -26.732 -14.734  0.00  0.00    -0.480 OA
ATOM     28  H   UNL     1      41.343 -26.841 -15.275  0.00  0.00    +0.295 HD
ENDBRANCH  26  27
ENDBRANCH  24  26
ENDBRANCH  19  24
ENDBRANCH   2  18
BRANCH   6  31
ATOM     29  O   UNL     1      28.898 -22.733 -17.396  0.00  0.00    -0.270 OA
ATOM     30  N   UNL     1      28.088 -22.206 -15.316  0.00  0.00    -0.325 N 
ATOM     31  C   UNL     1      29.078 -22.690 -16.165  0.00  0.00    +0.248 C 
ATOM     32  H   UNL     1      27.237 -21.879 -15.688  0.00  0.00    +0.145 HD
ATOM     33  H   UNL     1      28.239 -22.190 -14.344  0.00  0.00    +0.145 HD
ENDBRANCH   6  31
TORSDOF 6
ENDMDL
MODEL 3
REMARK VINA RESULT:     -11.5      3.098      6.502
REMARK  Name = 24871491
REMARK  6 active torsions:
REMARK  status: ('A' for Active; 'I' for Inactive)
REMARK    1  A    between atoms: N_1  and  C_11
REMARK    2  A    between atoms: N_2  and  C_18
REMARK    3  A    between atoms: C_6  and  C_31
REMARK    4  A    between atoms: C_19  and  C_24
REMARK    5  A    between atoms: C_24  and  C_26
REMARK    6  A    between atoms: C_26  and  O_27
REMARK                            x       y       z     vdW  Elec       q    Type
REMARK                         _______ _______ _______ _____ _____    ______ ____
ROOT
ATOM      1  N   UNL     1      33.855 -23.602 -14.492  0.00  0.00    -0.287 N 
ATOM      2  N   UNL     1      31.886 -22.186 -18.534  0.00  0.00    -0.247 N 
ATOM      3  N   UNL     1      32.877 -22.884 -16.528  0.00  0.00    -0.322 NA
ATOM      4  N   UNL     1      30.550 -23.320 -16.978  0.00  0.00    -0.169 NA
ATOM      5  C   UNL     1      32.725 -23.506 -15.339  0.00  0.00    +0.202 C 
ATOM      6  C   UNL     1      31.533 -24.053 -14.907  0.00  0.00    +0.118 C 
ATOM      7  C   UNL     1      31.764 -22.828 -17.285  0.00  0.00    +0.150 C 
ATOM      8  C   UNL     1      30.468 -23.928 -15.776  0.00  0.00    +0.120 C 
ATOM      9  H   UNL     1      33.632 -23.616 -13.533  0.00  0.00    +0.155 HD
ATOM     10  H   UNL     1      31.050 -22.170 -19.053  0.00  0.00    +0.165 HD
ENDROOT
BRANCH   1  11
ATOM     11  C   UNL     1      35.232 -23.681 -14.753  0.00  0.00    +0.050 C 
ATOM     12  C   UNL     1      36.010 -24.645 -14.112  0.00  0.00    +0.010 C 
ATOM     13  C   UNL     1      37.378 -24.723 -14.372  0.00  0.00    -0.021 C 
ATOM     14  C   UNL     1      35.823 -22.796 -15.655  0.00  0.00    +0.015 C 
ATOM     15  C   UNL     1      37.969 -23.838 -15.274  0.00  0.00    -0.004 C 
ATOM     16  C   UNL     1      37.191 -22.874 -15.915  0.00  0.00    +0.001 C 
ATOM     17  C   UNL     1      38.211 -25.753 -13.686  0.00  0.00    +0.031 C 
ENDBRANCH   1  11
BRANCH   2  18
ATOM     18  C   UNL     1      32.970 -21.564 -19.186  0.00  0.00    +0.058 C 
ATOM     19  C   UNL     1      35.113 -20.332 -20.478  0.00  0.00    -0.011 C 
ATOM     20  C   UNL     1      32.737 -20.526 -20.088  0.00  0.00    +0.015 C 
ATOM     21  C   UNL     1      34.274 -21.986 -18.930  0.00  0.00    +0.015 C 
ATOM     22  C   UNL     1      33.810 -19.910 -20.735  0.00  0.00    -0.002 C 
ATOM     23  C   UNL     1      35.346 -21.370 -19.576  0.00  0.00    -0.002 C 
BRANCH  19  24
ATOM     24  C   UNL     1      36.260 -19.673 -21.168  0.00  0.00    +0.136 C 
BRANCH  24  26
ATOM     25  O   UNL     1      35.435 -17.393 -21.392  0.00  0.00    -0.250 OA
ATOM     26  C   UNL     1      35.873 -18.410 -21.912  0.00  0.00    +0.318 C 
BRANCH  26  27
ATOM     27  O   UNL     1      36.068 -18.532 -23.252  0.00  0.00    -0.480 OA
ATOM     28  H   UNL     1      35.466 -18.135 -23.850  0.00  0.00    +0.295 HD
ENDBRANCH  26  27
ENDBRANCH  24  26
ENDBRANCH  19  24
ENDBRANCH   2  18
BRANCH   6  31
ATOM     29  O   UNL     1      32.346 -25.023 -12.920  0.00  0.00    -0.270 OA
ATOM     30  N   UNL     1      30.071 -25.000 -13.205  0.00  0.00    -0.325 N 
ATOM     31  C   UNL     1      31.367 -24.722 -13.627  0.00  0.00    +0.248 C 
ATOM     32  H   UNL     1      29.920 -25.453 -12.344  0.00  0.00    +0.145 HD
ATOM     33  H   UNL     1      29.305 -24.745 -13.768  0.00  0.00    +0.145 HD
ENDBRANCH   6  31
TORSDOF 6
ENDMDL
MODEL 4
REMARK VINA RESULT:     -11.0      3.053      7.283
REMARK  Name = 24871491
REMARK  6 active torsions:
REMARK  status: ('A' for Active; 'I' for Inactive)
REMARK    1  A    between atoms: N_1  and  C_11
REMARK    2  A    between atoms: N_2  and  C_18
REMARK    3  A    between atoms: C_6  and  C_31
REMARK    4  A    between atoms: C_19  and  C_24
REMARK    5  A    between atoms: C_24  and  C_26
REMARK    6  A    between atoms: C_26  and  O_27
REMARK                            x       y       z     vdW  Elec       q    Type
REMARK                         _______ _______ _______ _____ _____    ______ ____
ROOT
ATOM      1  N   UNL     1      33.977 -24.664 -14.250  0.00  0.00    -0.287 N 
ATOM      2  N   UNL     1      36.936 -22.358 -17.104  0.00  0.00    -0.247 N 
ATOM      3  N   UNL     1      35.455 -23.502 -15.693  0.00  0.00    -0.322 NA
ATOM      4  N   UNL     1      37.817 -23.445 -15.225  0.00  0.00    -0.169 NA
ATOM      5  C   UNL     1      35.290 -24.249 -14.581  0.00  0.00    +0.202 C 
ATOM      6  C   UNL     1      36.326 -24.629 -13.753  0.00  0.00    +0.118 C 
ATOM      7  C   UNL     1      36.726 -23.140 -15.951  0.00  0.00    +0.150 C 
ATOM      8  C   UNL     1      37.581 -24.195 -14.128  0.00  0.00    +0.120 C 
ATOM      9  H   UNL     1      33.941 -25.522 -13.769  0.00  0.00    +0.155 HD
ATOM     10  H   UNL     1      37.878 -22.117 -17.252  0.00  0.00    +0.165 HD
ENDROOT
BRANCH   1  11
ATOM     11  C   UNL     1      32.716 -24.089 -14.474  0.00  0.00    +0.050 C 
ATOM     12  C   UNL     1      32.377 -23.624 -15.745  0.00  0.00    +0.010 C 
ATOM     13  C   UNL     1      31.124 -23.052 -15.967  0.00  0.00    -0.021 C 
ATOM     14  C   UNL     1      31.801 -23.983 -13.426  0.00  0.00    +0.015 C 
ATOM     15  C   UNL     1      30.209 -22.947 -14.919  0.00  0.00    -0.004 C 
ATOM     16  C   UNL     1      30.548 -23.411 -13.648  0.00  0.00    +0.001 C 
ATOM     17  C   UNL     1      30.762 -22.554 -17.325  0.00  0.00    +0.031 C 
ENDBRANCH   1  11
BRANCH   2  18
ATOM     18  C   UNL     1      36.061 -21.852 -18.088  0.00  0.00    +0.058 C 
ATOM     19  C   UNL     1      34.331 -20.851 -20.033  0.00  0.00    -0.011 C 
ATOM     20  C   UNL     1      36.544 -20.996 -19.076  0.00  0.00    +0.015 C 
ATOM     21  C   UNL     1      34.712 -22.208 -18.071  0.00  0.00    +0.015 C 
ATOM     22  C   UNL     1      35.679 -20.495 -20.049  0.00  0.00    -0.002 C 
ATOM     23  C   UNL     1      33.847 -21.708 -19.044  0.00  0.00    -0.002 C 
BRANCH  19  24
ATOM     24  C   UNL     1      33.405 -20.316 -21.073  0.00  0.00    +0.136 C 
BRANCH  24  26
ATOM     25  O   UNL     1      34.174 -18.056 -21.557  0.00  0.00    -0.250 OA
ATOM     26  C   UNL     1      34.017 -19.215 -21.917  0.00  0.00    +0.318 C 
BRANCH  26  27
ATOM     27  O   UNL     1      34.378 -19.662 -23.149  0.00  0.00    -0.480 OA
ATOM     28  H   UNL     1      35.041 -19.213 -23.634  0.00  0.00    +0.295 HD
ENDBRANCH  26  27
ENDBRANCH  24  26
ENDBRANCH  19  24
ENDBRANCH   2  18
BRANCH   6  31
ATOM     29  O   UNL     1      35.270 -25.170 -11.718  0.00  0.00    -0.270 OA
ATOM     30  N   UNL     1      36.991 -26.531 -12.384  0.00  0.00    -0.325 N 
ATOM     31  C   UNL     1      36.151 -25.435 -12.556  0.00  0.00    +0.248 C 
ATOM     32  H   UNL     1      36.902 -27.099 -11.585  0.00  0.00    +0.145 HD
ATOM     33  H   UNL     1      37.675 -26.737 -13.061  0.00  0.00    +0.145 HD
ENDBRANCH   6  31
TORSDOF 6
ENDMDL
MODEL 5
REMARK VINA RESULT:     -10.9      9.518     12.961
REMARK  Name = 24871491
REMARK  6 active torsions:
REMARK  status: ('A' for Active; 'I' for Inactive)
REMARK    1  A    between atoms: N_1  and  C_11
REMARK    2  A    between atoms: N_2  and  C_18
REMARK    3  A    between atoms: C_6  and  C_31
REMARK    4  A    between atoms: C_19  and  C_24
REMARK    5  A    between atoms: C_24  and  C_26
REMARK    6  A    between atoms: C_26  and  O_27
REMARK                            x       y       z     vdW  Elec       q    Type
REMARK                         _______ _______ _______ _____ _____    ______ ____
ROOT
ATOM      1  N   UNL     1      33.117 -12.666 -24.323  0.00  0.00    -0.287 N 
ATOM      2  N   UNL     1      33.983 -17.092 -25.696  0.00  0.00    -0.247 N 
ATOM      3  N   UNL     1      33.555 -14.895 -25.001  0.00  0.00    -0.322 NA
ATOM      4  N   UNL     1      33.456 -15.498 -27.331  0.00  0.00    -0.169 NA
ATOM      5  C   UNL     1      33.233 -13.632 -25.352  0.00  0.00    +0.202 C 
ATOM      6  C   UNL     1      33.010 -13.232 -26.654  0.00  0.00    +0.118 C 
ATOM      7  C   UNL     1      33.649 -15.763 -26.026  0.00  0.00    +0.150 C 
ATOM      8  C   UNL     1      33.137 -14.217 -27.612  0.00  0.00    +0.120 C 
ATOM      9  H   UNL     1      33.344 -11.752 -24.609  0.00  0.00    +0.155 HD
ATOM     10  H   UNL     1      34.039 -17.690 -26.476  0.00  0.00    +0.165 HD
ENDROOT
BRANCH   1  11
ATOM     11  C   UNL     1      32.742 -12.760 -22.973  0.00  0.00    +0.050 C 
ATOM     12  C   UNL     1      31.798 -11.876 -22.448  0.00  0.00    +0.010 C 
ATOM     13  C   UNL     1      31.426 -11.970 -21.107  0.00  0.00    -0.021 C 
ATOM     14  C   UNL     1      33.312 -13.737 -22.157  0.00  0.00    +0.015 C 
ATOM     15  C   UNL     1      31.995 -12.947 -20.291  0.00  0.00    -0.004 C 
ATOM     16  C   UNL     1      32.940 -13.829 -20.815  0.00  0.00    +0.001 C 
ATOM     17  C   UNL     1      30.418 -11.025 -20.546  0.00  0.00    +0.031 C 
ENDBRANCH   1  11
BRANCH   2  18
ATOM     18  C   UNL     1      34.253 -17.733 -24.470  0.00  0.00    +0.058 C 
ATOM     19  C   UNL     1      34.787 -19.000 -22.043  0.00  0.00    -0.011 C 
ATOM     20  C   UNL     1      34.506 -16.974 -23.328  0.00  0.00    +0.015 C 
ATOM     21  C   UNL     1      34.267 -19.126 -24.399  0.00  0.00    +0.015 C 
ATOM     22  C   UNL     1      34.774 -17.608 -22.114  0.00  0.00    -0.002 C 
ATOM     23  C   UNL     1      34.535 -19.760 -23.186  0.00  0.00    -0.002 C 
BRANCH  19  24
ATOM     24  C   UNL     1      35.073 -19.678 -20.746  0.00  0.00    +0.136 C 
BRANCH  24  26
ATOM     25  O   UNL     1      32.732 -20.250 -20.400  0.00  0.00    -0.250 OA
ATOM     26  C   UNL     1      33.915 -20.509 -20.230  0.00  0.00    +0.318 C 
BRANCH  26  27
ATOM     27  O   UNL     1      34.342 -21.599 -19.538  0.00  0.00    -0.480 OA
ATOM     28  H   UNL     1      33.980 -22.442 -19.724  0.00  0.00    +0.295 HD
ENDBRANCH  26  27
ENDBRANCH  24  26
ENDBRANCH  19  24
ENDBRANCH   2  18
BRANCH   6  31
ATOM     29  O   UNL     1      33.346 -10.901 -26.663  0.00  0.00    -0.270 OA
ATOM     30  N   UNL     1      31.549 -11.691 -27.848  0.00  0.00    -0.325 N 
ATOM     31  C   UNL     1      32.663 -11.872 -27.035  0.00  0.00    +0.248 C 
ATOM     32  H   UNL     1      31.284 -10.784 -28.125  0.00  0.00    +0.145 HD
ATOM     33  H   UNL     1      31.025 -12.470 -28.145  0.00  0.00    +0.145 HD
ENDBRANCH   6  31
TORSDOF 6
ENDMDL
MODEL 6
REMARK VINA RESULT:     -10.5      9.524     12.817
REMARK  Name = 24871491
REMARK  6 active torsions:
REMARK  status: ('A' for Active; 'I' for Inactive)
REMARK    1  A    between atoms: N_1  and  C_11
REMARK    2  A    between atoms: N_2  and  C_18
REMARK    3  A    between atoms: C_6  and  C_31
REMARK    4  A    between atoms: C_19  and  C_24
REMARK    5  A    between atoms: C_24  and  C_26
REMARK    6  A    between atoms: C_26  and  O_27
REMARK                            x       y       z     vdW  Elec       q    Type
REMARK                         _______ _______ _______ _____ _____    ______ ____
ROOT
ATOM      1  N   UNL     1      33.175 -12.767 -24.385  0.00  0.00    -0.287 N 
ATOM      2  N   UNL     1      33.801 -17.132 -26.052  0.00  0.00    -0.247 N 
ATOM      3  N   UNL     1      33.494 -14.966 -25.211  0.00  0.00    -0.322 NA
ATOM      4  N   UNL     1      33.207 -15.436 -27.556  0.00  0.00    -0.169 NA
ATOM      5  C   UNL     1      33.186 -13.677 -25.470  0.00  0.00    +0.202 C 
ATOM      6  C   UNL     1      32.882 -13.200 -26.728  0.00  0.00    +0.118 C 
ATOM      7  C   UNL     1      33.486 -15.778 -26.285  0.00  0.00    +0.150 C 
ATOM      8  C   UNL     1      32.909 -14.134 -27.744  0.00  0.00    +0.120 C 
ATOM      9  H   UNL     1      33.409 -11.845 -24.638  0.00  0.00    +0.155 HD
ATOM     10  H   UNL     1      33.782 -17.687 -26.864  0.00  0.00    +0.165 HD
ENDROOT
BRANCH   1  11
ATOM     11  C   UNL     1      32.896 -12.925 -23.018  0.00  0.00    +0.050 C 
ATOM     12  C   UNL     1      33.633 -13.832 -22.255  0.00  0.00    +0.010 C 
ATOM     13  C   UNL     1      33.355 -13.988 -20.897  0.00  0.00    -0.021 C 
ATOM     14  C   UNL     1      31.883 -12.174 -22.421  0.00  0.00    +0.015 C 
ATOM     15  C   UNL     1      32.342 -13.237 -20.301  0.00  0.00    -0.004 C 
ATOM     16  C   UNL     1      31.605 -12.331 -21.063  0.00  0.00    +0.001 C 
ATOM     17  C   UNL     1      34.141 -14.958 -20.082  0.00  0.00    +0.031 C 
ENDBRANCH   1  11
BRANCH   2  18
ATOM     18  C   UNL     1      34.139 -17.847 -24.884  0.00  0.00    +0.058 C 
ATOM     19  C   UNL     1      34.808 -19.260 -22.575  0.00  0.00    -0.011 C 
ATOM     20  C   UNL     1      34.290 -17.172 -23.674  0.00  0.00    +0.015 C 
ATOM     21  C   UNL     1      34.324 -19.228 -24.941  0.00  0.00    +0.015 C 
ATOM     22  C   UNL     1      34.625 -17.879 -22.518  0.00  0.00    -0.002 C 
ATOM     23  C   UNL     1      34.658 -19.935 -23.786  0.00  0.00    -0.002 C 
BRANCH  19  24
ATOM     24  C   UNL     1      35.166 -20.016 -21.339  0.00  0.00    +0.136 C 
BRANCH  24  26
ATOM     25  O   UNL     1      37.405 -19.060 -21.361  0.00  0.00    -0.250 OA
ATOM     26  C   UNL     1      36.501 -19.610 -20.747  0.00  0.00    +0.318 C 
BRANCH  26  27
ATOM     27  O   UNL     1      36.590 -19.932 -19.429  0.00  0.00    -0.480 OA
ATOM     28  H   UNL     1      35.814 -20.125 -18.942  0.00  0.00    +0.295 HD
ENDBRANCH  26  27
ENDBRANCH  24  26
ENDBRANCH  19  24
ENDBRANCH   2  18
BRANCH   6  31
ATOM     29  O   UNL     1      33.228 -10.877 -26.545  0.00  0.00    -0.270 OA
ATOM     30  N   UNL     1      31.459 -11.561 -27.834  0.00  0.00    -0.325 N 
ATOM     31  C   UNL     1      32.551 -11.812 -27.010  0.00  0.00    +0.248 C 
ATOM     32  H   UNL     1      31.206 -10.634 -28.046  0.00  0.00    +0.145 HD
ATOM     33  H   UNL     1      30.940 -12.310 -28.205  0.00  0.00    +0.145 HD
ENDBRANCH   6  31
TORSDOF 6
ENDMDL
MODEL 7
REMARK VINA RESULT:      -9.9     12.649     16.584
REMARK  Name = 24871491
REMARK  6 active torsions:
REMARK  status: ('A' for Active; 'I' for Inactive)
REMARK    1  A    between atoms: N_1  and  C_11
REMARK    2  A    between atoms: N_2  and  C_18
REMARK    3  A    between atoms: C_6  and  C_31
REMARK    4  A    between atoms: C_19  and  C_24
REMARK    5  A    between atoms: C_24  and  C_26
REMARK    6  A    between atoms: C_26  and  O_27
REMARK                            x       y       z     vdW  Elec       q    Type
REMARK                         _______ _______ _______ _____ _____    ______ ____
ROOT
ATOM      1  N   UNL     1      32.773 -14.144 -24.483  0.00  0.00    -0.287 N 
ATOM      2  N   UNL     1      33.425  -9.827 -26.262  0.00  0.00    -0.247 N 
ATOM      3  N   UNL     1      33.098 -11.968 -25.366  0.00  0.00    -0.322 NA
ATOM      4  N   UNL     1      33.616 -11.668 -27.700  0.00  0.00    -0.169 NA
ATOM      5  C   UNL     1      33.060 -13.300 -25.583  0.00  0.00    +0.202 C 
ATOM      6  C   UNL     1      33.287 -13.882 -26.814  0.00  0.00    +0.118 C 
ATOM      7  C   UNL     1      33.377 -11.223 -26.452  0.00  0.00    +0.150 C 
ATOM      8  C   UNL     1      33.562 -13.009 -27.847  0.00  0.00    +0.120 C 
ATOM      9  H   UNL     1      32.313 -14.977 -24.732  0.00  0.00    +0.155 HD
ATOM     10  H   UNL     1      33.633  -9.324 -27.082  0.00  0.00    +0.165 HD
ENDROOT
BRANCH   1  11
ATOM     11  C   UNL     1      33.016 -14.022 -23.106  0.00  0.00    +0.050 C 
ATOM     12  C   UNL     1      32.210 -13.191 -22.326  0.00  0.00    +0.010 C 
ATOM     13  C   UNL     1      32.452 -13.071 -20.957  0.00  0.00    -0.021 C 
ATOM     14  C   UNL     1      34.062 -14.731 -22.516  0.00  0.00    +0.015 C 
ATOM     15  C   UNL     1      33.498 -13.780 -20.368  0.00  0.00    -0.004 C 
ATOM     16  C   UNL     1      34.304 -14.610 -21.148  0.00  0.00    +0.001 C 
ATOM     17  C   UNL     1      31.592 -12.182 -20.124  0.00  0.00    +0.031 C 
ENDBRANCH   1  11
BRANCH   2  18
ATOM     18  C   UNL     1      33.234  -9.010 -25.129  0.00  0.00    +0.058 C 
ATOM     19  C   UNL     1      32.857  -7.395 -22.887  0.00  0.00    -0.011 C 
ATOM     20  C   UNL     1      34.199  -8.977 -24.123  0.00  0.00    +0.015 C 
ATOM     21  C   UNL     1      32.080  -8.236 -25.014  0.00  0.00    +0.015 C 
ATOM     22  C   UNL     1      34.011  -8.169 -23.001  0.00  0.00    -0.002 C 
ATOM     23  C   UNL     1      31.891  -7.429 -23.892  0.00  0.00    -0.002 C 
BRANCH  19  24
ATOM     24  C   UNL     1      32.655  -6.531 -21.687  0.00  0.00    +0.136 C 
BRANCH  24  26
ATOM     25  O   UNL     1      31.450  -8.066 -20.230  0.00  0.00    -0.250 OA
ATOM     26  C   UNL     1      32.397  -7.314 -20.415  0.00  0.00    +0.318 C 
BRANCH  26  27
ATOM     27  O   UNL     1      33.354  -7.084 -19.477  0.00  0.00    -0.480 OA
ATOM     28  H   UNL     1      33.182  -7.275 -18.576  0.00  0.00    +0.295 HD
ENDBRANCH  26  27
ENDBRANCH  24  26
ENDBRANCH  19  24
ENDBRANCH   2  18
BRANCH   6  31
ATOM     29  O   UNL     1      34.125 -16.073 -26.601  0.00  0.00    -0.270 OA
ATOM     30  N   UNL     1      32.177 -15.821 -27.784  0.00  0.00    -0.325 N 
ATOM     31  C   UNL     1      33.246 -15.316 -27.051  0.00  0.00    +0.248 C 
ATOM     32  H   UNL     1      32.116 -16.787 -27.964  0.00  0.00    +0.145 HD
ATOM     33  H   UNL     1      31.481 -15.212 -28.122  0.00  0.00    +0.145 HD
ENDBRANCH   6  31
TORSDOF 6
ENDMDL
