MODEL 1
REMARK VINA RESULT:     -12.8      0.000      0.000
REMARK  Name = 24748573
REMARK  3 active torsions:
REMARK  status: ('A' for Active; 'I' for Inactive)
REMARK    1  A    between atoms: N_2  and  C_18
REMARK    2  A    between atoms: C_13  and  C_25
REMARK    3  A    between atoms: C_25  and  O_26
REMARK                            x       y       z     vdW  Elec       q    Type
REMARK                         _______ _______ _______ _____ _____    ______ ____
ROOT
ATOM      1  N   UNL     1      34.694 -23.257 -16.190  0.00  0.00    -0.391 NA
ATOM      2  N   UNL     1      33.240 -22.799 -17.976  0.00  0.00    -0.288 N 
ATOM      3  N   UNL     1      30.089 -24.004 -14.220  0.00  0.00    -0.243 NA
ATOM      4  C   UNL     1      33.871 -23.915 -14.015  0.00  0.00    +0.098 C 
ATOM      5  C   UNL     1      32.526 -23.828 -14.502  0.00  0.00    +0.011 C 
ATOM      6  C   UNL     1      32.305 -23.451 -15.839  0.00  0.00    +0.044 C 
ATOM      7  C   UNL     1      34.918 -23.615 -14.916  0.00  0.00    +0.119 C 
ATOM      8  C   UNL     1      33.418 -23.183 -16.623  0.00  0.00    +0.183 C 
ATOM      9  C   UNL     1      34.214 -24.283 -12.690  0.00  0.00    -0.015 C 
ATOM     10  C   UNL     1      36.236 -23.692 -14.475  0.00  0.00    +0.035 C 
ATOM     11  C   UNL     1      31.004 -23.355 -16.351  0.00  0.00    +0.024 C 
ATOM     12  C   UNL     1      31.360 -24.088 -13.756  0.00  0.00    +0.095 C 
ATOM     13  C   UNL     1      36.555 -24.055 -13.168  0.00  0.00    +0.077 C 
ATOM     14  C   UNL     1      35.541 -24.352 -12.273  0.00  0.00    +0.003 C 
ATOM     15  C   UNL     1      29.945 -23.639 -15.509  0.00  0.00    +0.099 C 
ATOM     16  H   UNL     1      32.433 -23.179 -18.394  0.00  0.00    +0.155 HD
ENDROOT
BRANCH   2  18
ATOM     17 CL   UNL     1      33.302 -19.418 -21.826  0.00  0.00    -0.082 Cl
ATOM     18  C   UNL     1      33.992 -21.984 -18.836  0.00  0.00    +0.051 C 
ATOM     19  C   UNL     1      33.348 -21.200 -19.794  0.00  0.00    +0.026 C 
ATOM     20  C   UNL     1      35.383 -21.955 -18.730  0.00  0.00    +0.015 C 
ATOM     21  C   UNL     1      34.095 -20.386 -20.645  0.00  0.00    +0.059 C 
ATOM     22  C   UNL     1      36.129 -21.141 -19.583  0.00  0.00    +0.002 C 
ATOM     23  C   UNL     1      35.485 -20.357 -20.539  0.00  0.00    +0.011 C 
ENDBRANCH   2  18
BRANCH  13  25
ATOM     24  O   UNL     1      38.817 -24.827 -13.264  0.00  0.00    -0.245 OA
ATOM     25  C   UNL     1      37.945 -24.121 -12.747  0.00  0.00    +0.338 C 
BRANCH  25  26
ATOM     26  O   UNL     1      38.209 -23.302 -11.692  0.00  0.00    -0.477 OA
ATOM     27  H   UNL     1      37.552 -22.709 -11.384  0.00  0.00    +0.295 HD
ENDBRANCH  25  26
ENDBRANCH  13  25
TORSDOF 3
ENDMDL
MODEL 2
REMARK VINA RESULT:     -11.3      8.593     11.998
REMARK  Name = 24748573
REMARK  3 active torsions:
REMARK  status: ('A' for Active; 'I' for Inactive)
REMARK    1  A    between atoms: N_2  and  C_18
REMARK    2  A    between atoms: C_13  and  C_25
REMARK    3  A    between atoms: C_25  and  O_26
REMARK                            x       y       z     vdW  Elec       q    Type
REMARK                         _______ _______ _______ _____ _____    ______ ____
ROOT
ATOM      1  N   UNL     1      33.815 -14.787 -22.919  0.00  0.00    -0.391 NA
ATOM      2  N   UNL     1      32.852 -12.752 -23.591  0.00  0.00    -0.288 N 
ATOM      3  N   UNL     1      32.854 -15.474 -27.843  0.00  0.00    -0.243 NA
ATOM      4  C   UNL     1      34.141 -16.614 -24.468  0.00  0.00    +0.098 C 
ATOM      5  C   UNL     1      33.570 -15.821 -25.517  0.00  0.00    +0.011 C 
ATOM      6  C   UNL     1      33.133 -14.516 -25.228  0.00  0.00    +0.044 C 
ATOM      7  C   UNL     1      34.236 -16.033 -23.182  0.00  0.00    +0.119 C 
ATOM      8  C   UNL     1      33.281 -14.062 -23.926  0.00  0.00    +0.183 C 
ATOM      9  C   UNL     1      34.615 -17.938 -24.641  0.00  0.00    -0.015 C 
ATOM     10  C   UNL     1      34.787 -16.776 -22.141  0.00  0.00    +0.035 C 
ATOM     11  C   UNL     1      32.569 -13.711 -26.227  0.00  0.00    +0.024 C 
ATOM     12  C   UNL     1      33.395 -16.226 -26.854  0.00  0.00    +0.095 C 
ATOM     13  C   UNL     1      35.248 -18.078 -22.329  0.00  0.00    +0.077 C 
ATOM     14  C   UNL     1      35.162 -18.660 -23.583  0.00  0.00    +0.003 C 
ATOM     15  C   UNL     1      32.455 -14.233 -27.502  0.00  0.00    +0.099 C 
ATOM     16  H   UNL     1      32.912 -12.112 -24.337  0.00  0.00    +0.155 HD
ENDROOT
BRANCH   2  18
ATOM     17 CL   UNL     1      31.204  -8.594 -21.093  0.00  0.00    -0.082 Cl
ATOM     18  C   UNL     1      32.360 -12.192 -22.403  0.00  0.00    +0.051 C 
ATOM     19  C   UNL     1      32.064 -10.830 -22.345  0.00  0.00    +0.026 C 
ATOM     20  C   UNL     1      32.164 -12.997 -21.280  0.00  0.00    +0.015 C 
ATOM     21  C   UNL     1      31.570 -10.273 -21.165  0.00  0.00    +0.059 C 
ATOM     22  C   UNL     1      31.671 -12.440 -20.100  0.00  0.00    +0.002 C 
ATOM     23  C   UNL     1      31.374 -11.079 -20.043  0.00  0.00    +0.011 C 
ENDBRANCH   2  18
BRANCH  13  25
ATOM     24  O   UNL     1      37.021 -18.969 -20.994  0.00  0.00    -0.245 OA
ATOM     25  C   UNL     1      35.815 -18.820 -21.215  0.00  0.00    +0.338 C 
BRANCH  25  26
ATOM     26  O   UNL     1      34.859 -19.353 -20.405  0.00  0.00    -0.477 OA
ATOM     27  H   UNL     1      34.891 -19.201 -19.481  0.00  0.00    +0.295 HD
ENDBRANCH  25  26
ENDBRANCH  13  25
TORSDOF 3
ENDMDL
MODEL 3
REMARK VINA RESULT:     -11.1      4.261      7.232
REMARK  Name = 24748573
REMARK  3 active torsions:
REMARK  status: ('A' for Active; 'I' for Inactive)
REMARK    1  A    between atoms: N_2  and  C_18
REMARK    2  A    between atoms: C_13  and  C_25
REMARK    3  A    between atoms: C_25  and  O_26
REMARK                            x       y       z     vdW  Elec       q    Type
REMARK                         _______ _______ _______ _____ _____    ______ ____
ROOT
ATOM      1  N   UNL     1      33.207 -22.651 -17.910  0.00  0.00    -0.391 NA
ATOM      2  N   UNL     1      32.622 -24.011 -16.086  0.00  0.00    -0.288 N 
ATOM      3  N   UNL     1      37.512 -23.055 -15.276  0.00  0.00    -0.243 NA
ATOM      4  C   UNL     1      35.448 -21.790 -18.189  0.00  0.00    +0.098 C 
ATOM      5  C   UNL     1      35.848 -22.452 -16.983  0.00  0.00    +0.011 C 
ATOM      6  C   UNL     1      34.899 -23.204 -16.267  0.00  0.00    +0.044 C 
ATOM      7  C   UNL     1      34.103 -21.931 -18.601  0.00  0.00    +0.119 C 
ATOM      8  C   UNL     1      33.610 -23.264 -16.777  0.00  0.00    +0.183 C 
ATOM      9  C   UNL     1      36.315 -21.008 -18.991  0.00  0.00    -0.015 C 
ATOM     10  C   UNL     1      33.681 -21.302 -19.770  0.00  0.00    +0.035 C 
ATOM     11  C   UNL     1      35.253 -23.864 -15.083  0.00  0.00    +0.024 C 
ATOM     12  C   UNL     1      37.138 -22.427 -16.418  0.00  0.00    +0.095 C 
ATOM     13  C   UNL     1      34.548 -20.535 -20.547  0.00  0.00    +0.077 C 
ATOM     14  C   UNL     1      35.869 -20.387 -20.156  0.00  0.00    +0.003 C 
ATOM     15  C   UNL     1      36.557 -23.759 -14.638  0.00  0.00    +0.099 C 
ATOM     16  H   UNL     1      32.982 -24.779 -15.586  0.00  0.00    +0.155 HD
ENDROOT
BRANCH   2  18
ATOM     17 CL   UNL     1      28.170 -25.878 -14.369  0.00  0.00    -0.082 Cl
ATOM     18  C   UNL     1      31.231 -23.867 -15.977  0.00  0.00    +0.051 C 
ATOM     19  C   UNL     1      30.479 -24.833 -15.307  0.00  0.00    +0.026 C 
ATOM     20  C   UNL     1      30.598 -22.756 -16.537  0.00  0.00    +0.015 C 
ATOM     21  C   UNL     1      29.097 -24.688 -15.196  0.00  0.00    +0.059 C 
ATOM     22  C   UNL     1      29.215 -22.611 -16.425  0.00  0.00    +0.002 C 
ATOM     23  C   UNL     1      28.465 -23.577 -15.754  0.00  0.00    +0.011 C 
ENDBRANCH   2  18
BRANCH  13  25
ATOM     24  O   UNL     1      34.764 -19.597 -22.737  0.00  0.00    -0.245 OA
ATOM     25  C   UNL     1      34.068 -19.893 -21.759  0.00  0.00    +0.338 C 
BRANCH  25  26
ATOM     26  O   UNL     1      32.731 -19.639 -21.720  0.00  0.00    -0.477 OA
ATOM     27  H   UNL     1      32.424 -18.771 -21.547  0.00  0.00    +0.295 HD
ENDBRANCH  25  26
ENDBRANCH  13  25
TORSDOF 3
ENDMDL
MODEL 4
REMARK VINA RESULT:     -11.1      3.464      6.247
REMARK  Name = 24748573
REMARK  3 active torsions:
REMARK  status: ('A' for Active; 'I' for Inactive)
REMARK    1  A    between atoms: N_2  and  C_18
REMARK    2  A    between atoms: C_13  and  C_25
REMARK    3  A    between atoms: C_25  and  O_26
REMARK                            x       y       z     vdW  Elec       q    Type
REMARK                         _______ _______ _______ _____ _____    ______ ____
ROOT
ATOM      1  N   UNL     1      34.785 -23.176 -16.018  0.00  0.00    -0.391 NA
ATOM      2  N   UNL     1      34.650 -24.239 -13.928  0.00  0.00    -0.288 N 
ATOM      3  N   UNL     1      29.835 -24.072 -15.439  0.00  0.00    -0.243 NA
ATOM      4  C   UNL     1      32.820 -22.746 -17.358  0.00  0.00    +0.098 C 
ATOM      5  C   UNL     1      32.004 -23.352 -16.347  0.00  0.00    +0.011 C 
ATOM      6  C   UNL     1      32.615 -23.858 -15.186  0.00  0.00    +0.044 C 
ATOM      7  C   UNL     1      34.214 -22.689 -17.130  0.00  0.00    +0.119 C 
ATOM      8  C   UNL     1      33.993 -23.741 -15.082  0.00  0.00    +0.183 C 
ATOM      9  C   UNL     1      32.317 -22.203 -18.566  0.00  0.00    -0.015 C 
ATOM     10  C   UNL     1      35.036 -22.106 -18.092  0.00  0.00    +0.035 C 
ATOM     11  C   UNL     1      31.850 -24.458 -14.176  0.00  0.00    +0.024 C 
ATOM     12  C   UNL     1      30.604 -23.499 -16.397  0.00  0.00    +0.095 C 
ATOM     13  C   UNL     1      34.523 -21.577 -19.275  0.00  0.00    +0.077 C 
ATOM     14  C   UNL     1      33.159 -21.626 -19.513  0.00  0.00    +0.003 C 
ATOM     15  C   UNL     1      30.481 -24.537 -14.351  0.00  0.00    +0.099 C 
ATOM     16  H   UNL     1      34.098 -24.209 -13.113  0.00  0.00    +0.155 HD
ENDROOT
BRANCH   2  18
ATOM     17 CL   UNL     1      39.426 -24.876 -15.669  0.00  0.00    -0.082 Cl
ATOM     18  C   UNL     1      35.933 -24.766 -13.723  0.00  0.00    +0.051 C 
ATOM     19  C   UNL     1      36.925 -24.583 -14.687  0.00  0.00    +0.026 C 
ATOM     20  C   UNL     1      36.220 -25.471 -12.553  0.00  0.00    +0.015 C 
ATOM     21  C   UNL     1      38.203 -25.103 -14.481  0.00  0.00    +0.059 C 
ATOM     22  C   UNL     1      37.497 -25.992 -12.348  0.00  0.00    +0.002 C 
ATOM     23  C   UNL     1      38.489 -25.807 -13.311  0.00  0.00    +0.011 C 
ENDBRANCH   2  18
BRANCH  13  25
ATOM     24  O   UNL     1      35.069 -20.237 -21.180  0.00  0.00    -0.245 OA
ATOM     25  C   UNL     1      35.415 -20.979 -20.254  0.00  0.00    +0.338 C 
BRANCH  25  26
ATOM     26  O   UNL     1      36.717 -21.320 -20.049  0.00  0.00    -0.477 OA
ATOM     27  H   UNL     1      36.938 -21.958 -19.399  0.00  0.00    +0.295 HD
ENDBRANCH  25  26
ENDBRANCH  13  25
TORSDOF 3
ENDMDL
MODEL 5
REMARK VINA RESULT:     -10.7      9.815     13.474
REMARK  Name = 24748573
REMARK  3 active torsions:
REMARK  status: ('A' for Active; 'I' for Inactive)
REMARK    1  A    between atoms: N_2  and  C_18
REMARK    2  A    between atoms: C_13  and  C_25
REMARK    3  A    between atoms: C_25  and  O_26
REMARK                            x       y       z     vdW  Elec       q    Type
REMARK                         _______ _______ _______ _____ _____    ______ ____
ROOT
ATOM      1  N   UNL     1      33.680 -12.704 -23.202  0.00  0.00    -0.391 NA
ATOM      2  N   UNL     1      33.087 -10.629 -24.130  0.00  0.00    -0.288 N 
ATOM      3  N   UNL     1      32.530 -13.814 -28.007  0.00  0.00    -0.243 NA
ATOM      4  C   UNL     1      33.647 -14.738 -24.508  0.00  0.00    +0.098 C 
ATOM      5  C   UNL     1      33.211 -13.992 -25.651  0.00  0.00    +0.011 C 
ATOM      6  C   UNL     1      33.019 -12.604 -25.531  0.00  0.00    +0.044 C 
ATOM      7  C   UNL     1      33.866 -14.029 -23.304  0.00  0.00    +0.119 C 
ATOM      8  C   UNL     1      33.268 -12.026 -24.295  0.00  0.00    +0.183 C 
ATOM      9  C   UNL     1      33.873 -16.137 -24.510  0.00  0.00    -0.015 C 
ATOM     10  C   UNL     1      34.292 -14.723 -22.175  0.00  0.00    +0.035 C 
ATOM     11  C   UNL     1      32.592 -11.842 -26.626  0.00  0.00    +0.024 C 
ATOM     12  C   UNL     1      32.943 -14.522 -26.928  0.00  0.00    +0.095 C 
ATOM     13  C   UNL     1      34.509 -16.100 -22.196  0.00  0.00    +0.077 C 
ATOM     14  C   UNL     1      34.299 -16.809 -23.367  0.00  0.00    +0.003 C 
ATOM     15  C   UNL     1      32.366 -12.489 -27.827  0.00  0.00    +0.099 C 
ATOM     16  H   UNL     1      33.248 -10.108 -24.950  0.00  0.00    +0.155 HD
ENDROOT
BRANCH   2  18
ATOM     17 CL   UNL     1      30.370 -10.189 -19.808  0.00  0.00    -0.082 Cl
ATOM     18  C   UNL     1      32.724  -9.846 -23.024  0.00  0.00    +0.051 C 
ATOM     19  C   UNL     1      31.829 -10.348 -22.078  0.00  0.00    +0.026 C 
ATOM     20  C   UNL     1      33.259  -8.567 -22.869  0.00  0.00    +0.015 C 
ATOM     21  C   UNL     1      31.471  -9.571 -20.976  0.00  0.00    +0.059 C 
ATOM     22  C   UNL     1      32.900  -7.790 -21.767  0.00  0.00    +0.002 C 
ATOM     23  C   UNL     1      32.006  -8.292 -20.821  0.00  0.00    +0.011 C 
ENDBRANCH   2  18
BRANCH  13  25
ATOM     24  O   UNL     1      35.469 -17.909 -20.960  0.00  0.00    -0.245 OA
ATOM     25  C   UNL     1      34.952 -16.787 -20.994  0.00  0.00    +0.338 C 
BRANCH  25  26
ATOM     26  O   UNL     1      34.740 -16.054 -19.866  0.00  0.00    -0.477 OA
ATOM     27  H   UNL     1      35.168 -15.228 -19.758  0.00  0.00    +0.295 HD
ENDBRANCH  25  26
ENDBRANCH  13  25
TORSDOF 3
ENDMDL
MODEL 6
REMARK VINA RESULT:     -10.7      3.196      6.138
REMARK  Name = 24748573
REMARK  3 active torsions:
REMARK  status: ('A' for Active; 'I' for Inactive)
REMARK    1  A    between atoms: N_2  and  C_18
REMARK    2  A    between atoms: C_13  and  C_25
REMARK    3  A    between atoms: C_25  and  O_26
REMARK                            x       y       z     vdW  Elec       q    Type
REMARK                         _______ _______ _______ _____ _____    ______ ____
ROOT
ATOM      1  N   UNL     1      33.546 -23.661 -15.858  0.00  0.00    -0.391 NA
ATOM      2  N   UNL     1      32.322 -24.822 -14.224  0.00  0.00    -0.288 N 
ATOM      3  N   UNL     1      36.650 -23.745 -11.859  0.00  0.00    -0.243 NA
ATOM      4  C   UNL     1      35.768 -22.816 -15.424  0.00  0.00    +0.098 C 
ATOM      5  C   UNL     1      35.703 -23.342 -14.092  0.00  0.00    +0.011 C 
ATOM      6  C   UNL     1      34.543 -24.021 -13.680  0.00  0.00    +0.044 C 
ATOM      7  C   UNL     1      34.647 -23.011 -16.263  0.00  0.00    +0.119 C 
ATOM      8  C   UNL     1      33.511 -24.146 -14.599  0.00  0.00    +0.183 C 
ATOM      9  C   UNL     1      36.883 -22.117 -15.948  0.00  0.00    -0.015 C 
ATOM     10  C   UNL     1      34.679 -22.514 -17.563  0.00  0.00    +0.035 C 
ATOM     11  C   UNL     1      34.442 -24.548 -12.385  0.00  0.00    +0.024 C 
ATOM     12  C   UNL     1      36.715 -23.247 -13.118  0.00  0.00    +0.095 C 
ATOM     13  C   UNL     1      35.784 -21.828 -18.063  0.00  0.00    +0.077 C 
ATOM     14  C   UNL     1      36.890 -21.628 -17.253  0.00  0.00    +0.003 C 
ATOM     15  C   UNL     1      35.512 -24.385 -11.526  0.00  0.00    +0.099 C 
ATOM     16  H   UNL     1      32.463 -25.530 -13.554  0.00  0.00    +0.155 HD
ENDROOT
BRANCH   2  18
ATOM     17 CL   UNL     1      28.844 -22.222 -16.943  0.00  0.00    -0.082 Cl
ATOM     18  C   UNL     1      30.985 -24.679 -14.624  0.00  0.00    +0.051 C 
ATOM     19  C   UNL     1      30.621 -23.641 -15.482  0.00  0.00    +0.026 C 
ATOM     20  C   UNL     1      30.020 -25.577 -14.167  0.00  0.00    +0.015 C 
ATOM     21  C   UNL     1      29.293 -23.501 -15.884  0.00  0.00    +0.059 C 
ATOM     22  C   UNL     1      28.691 -25.436 -14.568  0.00  0.00    +0.002 C 
ATOM     23  C   UNL     1      28.328 -24.399 -15.427  0.00  0.00    +0.011 C 
ENDBRANCH   2  18
BRANCH  13  25
ATOM     24  O   UNL     1      35.243 -21.879 -20.392  0.00  0.00    -0.245 OA
ATOM     25  C   UNL     1      35.776 -21.323 -19.426  0.00  0.00    +0.338 C 
BRANCH  25  26
ATOM     26  O   UNL     1      36.431 -20.135 -19.546  0.00  0.00    -0.477 OA
ATOM     27  H   UNL     1      35.946 -19.345 -19.685  0.00  0.00    +0.295 HD
ENDBRANCH  25  26
ENDBRANCH  13  25
TORSDOF 3
ENDMDL
MODEL 7
REMARK VINA RESULT:     -10.6      3.797      6.704
REMARK  Name = 24748573
REMARK  3 active torsions:
REMARK  status: ('A' for Active; 'I' for Inactive)
REMARK    1  A    between atoms: N_2  and  C_18
REMARK    2  A    between atoms: C_13  and  C_25
REMARK    3  A    between atoms: C_25  and  O_26
REMARK                            x       y       z     vdW  Elec       q    Type
REMARK                         _______ _______ _______ _____ _____    ______ ____
ROOT
ATOM      1  N   UNL     1      34.046 -24.007 -15.579  0.00  0.00    -0.391 NA
ATOM      2  N   UNL     1      36.335 -23.704 -16.010  0.00  0.00    -0.288 N 
ATOM      3  N   UNL     1      34.121 -21.077 -19.709  0.00  0.00    -0.243 NA
ATOM      4  C   UNL     1      32.345 -23.011 -16.978  0.00  0.00    +0.098 C 
ATOM      5  C   UNL     1      33.366 -22.430 -17.799  0.00  0.00    +0.011 C 
ATOM      6  C   UNL     1      34.716 -22.660 -17.479  0.00  0.00    +0.044 C 
ATOM      7  C   UNL     1      32.755 -23.795 -15.875  0.00  0.00    +0.119 C 
ATOM      8  C   UNL     1      34.988 -23.448 -16.369  0.00  0.00    +0.183 C 
ATOM      9  C   UNL     1      30.956 -22.849 -17.204  0.00  0.00    -0.015 C 
ATOM     10  C   UNL     1      31.788 -24.375 -15.058  0.00  0.00    +0.035 C 
ATOM     11  C   UNL     1      35.742 -22.109 -18.258  0.00  0.00    +0.024 C 
ATOM     12  C   UNL     1      33.152 -21.625 -18.934  0.00  0.00    +0.095 C 
ATOM     13  C   UNL     1      30.425 -24.204 -15.295  0.00  0.00    +0.077 C 
ATOM     14  C   UNL     1      30.008 -23.439 -16.371  0.00  0.00    +0.003 C 
ATOM     15  C   UNL     1      35.393 -21.335 -19.349  0.00  0.00    +0.099 C 
ATOM     16  H   UNL     1      36.955 -23.714 -16.775  0.00  0.00    +0.155 HD
ENDROOT
BRANCH   2  18
ATOM     17 CL   UNL     1      36.504 -22.807 -10.968  0.00  0.00    -0.082 Cl
ATOM     18  C   UNL     1      36.956 -23.947 -14.775  0.00  0.00    +0.051 C 
ATOM     19  C   UNL     1      36.479 -23.326 -13.620  0.00  0.00    +0.026 C 
ATOM     20  C   UNL     1      38.048 -24.812 -14.702  0.00  0.00    +0.015 C 
ATOM     21  C   UNL     1      37.093 -23.571 -12.393  0.00  0.00    +0.059 C 
ATOM     22  C   UNL     1      38.663 -25.056 -13.473  0.00  0.00    +0.002 C 
ATOM     23  C   UNL     1      38.184 -24.436 -12.319  0.00  0.00    +0.011 C 
ENDBRANCH   2  18
BRANCH  13  25
ATOM     24  O   UNL     1      28.292 -25.128 -14.731  0.00  0.00    -0.245 OA
ATOM     25  C   UNL     1      29.448 -24.825 -14.416  0.00  0.00    +0.338 C 
BRANCH  25  26
ATOM     26  O   UNL     1      29.941 -25.053 -13.168  0.00  0.00    -0.477 OA
ATOM     27  H   UNL     1      29.601 -25.758 -12.652  0.00  0.00    +0.295 HD
ENDBRANCH  25  26
ENDBRANCH  13  25
TORSDOF 3
ENDMDL
MODEL 8
REMARK VINA RESULT:      -9.9      3.240      4.906
REMARK  Name = 24748573
REMARK  3 active torsions:
REMARK  status: ('A' for Active; 'I' for Inactive)
REMARK    1  A    between atoms: N_2  and  C_18
REMARK    2  A    between atoms: C_13  and  C_25
REMARK    3  A    between atoms: C_25  and  O_26
REMARK                            x       y       z     vdW  Elec       q    Type
REMARK                         _______ _______ _______ _____ _____    ______ ____
ROOT
ATOM      1  N   UNL     1      33.674 -22.788 -16.369  0.00  0.00    -0.391 NA
ATOM      2  N   UNL     1      35.763 -22.060 -17.156  0.00  0.00    -0.288 N 
ATOM      3  N   UNL     1      36.994 -25.386 -13.563  0.00  0.00    -0.243 NA
ATOM      4  C   UNL     1      33.479 -24.426 -14.601  0.00  0.00    +0.098 C 
ATOM      5  C   UNL     1      34.908 -24.501 -14.520  0.00  0.00    +0.011 C 
ATOM      6  C   UNL     1      35.686 -23.705 -15.379  0.00  0.00    +0.044 C 
ATOM      7  C   UNL     1      32.921 -23.543 -15.554  0.00  0.00    +0.119 C 
ATOM      8  C   UNL     1      35.017 -22.879 -16.271  0.00  0.00    +0.183 C 
ATOM      9  C   UNL     1      32.597 -25.179 -13.788  0.00  0.00    -0.015 C 
ATOM     10  C   UNL     1      31.536 -23.445 -15.658  0.00  0.00    +0.035 C 
ATOM     11  C   UNL     1      37.086 -23.751 -15.329  0.00  0.00    +0.024 C 
ATOM     12  C   UNL     1      35.642 -25.318 -13.638  0.00  0.00    +0.095 C 
ATOM     13  C   UNL     1      30.682 -24.194 -14.850  0.00  0.00    +0.077 C 
ATOM     14  C   UNL     1      31.214 -25.064 -13.912  0.00  0.00    +0.003 C 
ATOM     15  C   UNL     1      37.681 -24.598 -14.413  0.00  0.00    +0.099 C 
ATOM     16  H   UNL     1      36.636 -21.779 -16.797  0.00  0.00    +0.155 HD
ENDROOT
BRANCH   2  18
ATOM     17 CL   UNL     1      32.289 -20.705 -20.671  0.00  0.00    -0.082 Cl
ATOM     18  C   UNL     1      35.497 -21.572 -18.444  0.00  0.00    +0.051 C 
ATOM     19  C   UNL     1      34.179 -21.403 -18.869  0.00  0.00    +0.026 C 
ATOM     20  C   UNL     1      36.552 -21.251 -19.300  0.00  0.00    +0.015 C 
ATOM     21  C   UNL     1      33.915 -20.914 -20.148  0.00  0.00    +0.059 C 
ATOM     22  C   UNL     1      36.287 -20.763 -20.579  0.00  0.00    +0.002 C 
ATOM     23  C   UNL     1      34.969 -20.593 -21.003  0.00  0.00    +0.011 C 
ENDBRANCH   2  18
BRANCH  13  25
ATOM     24  O   UNL     1      28.649 -23.055 -15.388  0.00  0.00    -0.245 OA
ATOM     25  C   UNL     1      29.241 -24.064 -14.992  0.00  0.00    +0.338 C 
BRANCH  25  26
ATOM     26  O   UNL     1      28.578 -25.199 -14.638  0.00  0.00    -0.477 OA
ATOM     27  H   UNL     1      29.054 -25.937 -14.310  0.00  0.00    +0.295 HD
ENDBRANCH  25  26
ENDBRANCH  13  25
TORSDOF 3
ENDMDL
