MODEL 1
REMARK VINA RESULT:     -13.4      0.000      0.000
REMARK  Name = 24882195
REMARK  2 active torsions:
REMARK  status: ('A' for Active; 'I' for Inactive)
REMARK    1  A    between atoms: C_5  and  N_15
REMARK    2  A    between atoms: N_15  and  C_21
REMARK                            x       y       z     vdW  Elec       q    Type
REMARK                         _______ _______ _______ _____ _____    ______ ____
ROOT
ATOM      1  C   UNL     1      34.571 -22.493 -17.677  0.00  0.00    +0.001 C 
ATOM      2  C   UNL     1      33.206 -22.409 -18.029  0.00  0.00    +0.000 C 
ATOM      3  C   UNL     1      35.143 -21.009 -19.541  0.00  0.00    +0.000 C 
ATOM      4  C   UNL     1      33.778 -20.924 -19.893  0.00  0.00    +0.000 C 
ATOM      5  C   UNL     1      33.993 -23.967 -15.829  0.00  0.00    +0.049 C 
ATOM      6  C   UNL     1      35.521 -21.792 -18.438  0.00  0.00    +0.000 C 
ATOM      7  C   UNL     1      34.949 -23.277 -16.575  0.00  0.00    +0.015 C 
ATOM      8  C   UNL     1      32.827 -21.626 -19.133  0.00  0.00    +0.000 C 
ATOM      9  C   UNL     1      32.256 -23.110 -17.268  0.00  0.00    +0.001 C 
ATOM     10  C   UNL     1      32.648 -23.884 -16.175  0.00  0.00    +0.015 C 
ATOM     11  C   UNL     1      36.092 -20.308 -20.303  0.00  0.00    +0.000 C 
ATOM     12  C   UNL     1      33.399 -20.141 -20.996  0.00  0.00    +0.000 C 
ATOM     13  C   UNL     1      35.701 -19.534 -21.395  0.00  0.00    +0.000 C 
ATOM     14  C   UNL     1      34.356 -19.451 -21.741  0.00  0.00    +0.000 C 
ENDROOT
BRANCH   5  15
ATOM     15  N   UNL     1      34.390 -24.749 -14.724  0.00  0.00    -0.299 N 
ATOM     16  H   UNL     1      33.678 -25.279 -14.298  0.00  0.00    +0.153 HD
BRANCH  15  21
ATOM     17  N   UNL     1      35.735 -24.623 -12.797  0.00  0.00    -0.106 N 
ATOM     18  N   UNL     1      38.101 -25.053 -12.795  0.00  0.00    -0.340 NA
ATOM     19  N   UNL     1      34.771 -24.276 -11.905  0.00  0.00    -0.139 NA
ATOM     20  N   UNL     1      36.783 -24.440 -10.853  0.00  0.00    -0.145 NA
ATOM     21  C   UNL     1      35.617 -24.866 -14.172  0.00  0.00    +0.138 C 
ATOM     22  C   UNL     1      36.723 -25.199 -14.856  0.00  0.00    +0.061 C 
ATOM     23  C   UNL     1      36.960 -24.718 -12.129  0.00  0.00    +0.174 C 
ATOM     24  C   UNL     1      37.991 -25.279 -14.070  0.00  0.00    +0.125 C 
ATOM     25  C   UNL     1      39.241 -25.651 -14.827  0.00  0.00    +0.068 C 
ATOM     26  C   UNL     1      35.454 -24.183 -10.769  0.00  0.00    +0.230 C 
ENDBRANCH  15  21
ENDBRANCH   5  15
TORSDOF 2
ENDMDL
MODEL 2
REMARK VINA RESULT:     -13.2      1.250      2.210
REMARK  Name = 24882195
REMARK  2 active torsions:
REMARK  status: ('A' for Active; 'I' for Inactive)
REMARK    1  A    between atoms: C_5  and  N_15
REMARK    2  A    between atoms: N_15  and  C_21
REMARK                            x       y       z     vdW  Elec       q    Type
REMARK                         _______ _______ _______ _____ _____    ______ ____
ROOT
ATOM      1  C   UNL     1      34.310 -22.216 -18.047  0.00  0.00    +0.001 C 
ATOM      2  C   UNL     1      32.956 -22.033 -18.405  0.00  0.00    +0.000 C 
ATOM      3  C   UNL     1      34.997 -20.789 -19.916  0.00  0.00    +0.000 C 
ATOM      4  C   UNL     1      33.644 -20.606 -20.275  0.00  0.00    +0.000 C 
ATOM      5  C   UNL     1      33.616 -23.631 -16.192  0.00  0.00    +0.049 C 
ATOM      6  C   UNL     1      35.312 -21.592 -18.807  0.00  0.00    +0.000 C 
ATOM      7  C   UNL     1      34.624 -23.019 -16.938  0.00  0.00    +0.015 C 
ATOM      8  C   UNL     1      32.640 -21.230 -19.515  0.00  0.00    +0.000 C 
ATOM      9  C   UNL     1      31.953 -22.656 -17.644  0.00  0.00    +0.001 C 
ATOM     10  C   UNL     1      32.282 -23.451 -16.545  0.00  0.00    +0.015 C 
ATOM     11  C   UNL     1      35.999 -20.165 -20.678  0.00  0.00    +0.000 C 
ATOM     12  C   UNL     1      33.329 -19.803 -21.384  0.00  0.00    +0.000 C 
ATOM     13  C   UNL     1      35.670 -19.371 -21.776  0.00  0.00    +0.000 C 
ATOM     14  C   UNL     1      34.337 -19.190 -22.128  0.00  0.00    +0.000 C 
ENDROOT
BRANCH   5  15
ATOM     15  N   UNL     1      33.950 -24.434 -15.081  0.00  0.00    -0.299 N 
ATOM     16  H   UNL     1      33.231 -25.016 -14.744  0.00  0.00    +0.153 HD
BRANCH  15  21
ATOM     17  N   UNL     1      35.992 -25.556 -14.753  0.00  0.00    -0.106 N 
ATOM     18  N   UNL     1      37.649 -24.865 -13.154  0.00  0.00    -0.340 NA
ATOM     19  N   UNL     1      35.828 -26.540 -15.676  0.00  0.00    -0.139 NA
ATOM     20  N   UNL     1      37.837 -26.779 -14.632  0.00  0.00    -0.145 NA
ATOM     21  C   UNL     1      35.124 -24.509 -14.418  0.00  0.00    +0.138 C 
ATOM     22  C   UNL     1      35.506 -23.647 -13.463  0.00  0.00    +0.061 C 
ATOM     23  C   UNL     1      37.231 -25.722 -14.127  0.00  0.00    +0.174 C 
ATOM     24  C   UNL     1      36.843 -23.893 -12.843  0.00  0.00    +0.125 C 
ATOM     25  C   UNL     1      37.284 -22.933 -11.767  0.00  0.00    +0.068 C 
ATOM     26  C   UNL     1      36.955 -27.233 -15.557  0.00  0.00    +0.230 C 
ENDBRANCH  15  21
ENDBRANCH   5  15
TORSDOF 2
ENDMDL
MODEL 3
REMARK VINA RESULT:     -12.5      2.576      4.787
REMARK  Name = 24882195
REMARK  2 active torsions:
REMARK  status: ('A' for Active; 'I' for Inactive)
REMARK    1  A    between atoms: C_5  and  N_15
REMARK    2  A    between atoms: N_15  and  C_21
REMARK                            x       y       z     vdW  Elec       q    Type
REMARK                         _______ _______ _______ _____ _____    ______ ____
ROOT
ATOM      1  C   UNL     1      33.900 -21.121 -19.962  0.00  0.00    +0.001 C 
ATOM      2  C   UNL     1      35.250 -20.925 -19.597  0.00  0.00    +0.000 C 
ATOM      3  C   UNL     1      34.140 -19.455 -21.742  0.00  0.00    +0.000 C 
ATOM      4  C   UNL     1      35.490 -19.259 -21.378  0.00  0.00    +0.000 C 
ATOM      5  C   UNL     1      33.672 -22.774 -18.190  0.00  0.00    +0.049 C 
ATOM      6  C   UNL     1      33.363 -20.383 -21.029  0.00  0.00    +0.000 C 
ATOM      7  C   UNL     1      33.124 -22.049 -19.248  0.00  0.00    +0.015 C 
ATOM      8  C   UNL     1      36.028 -19.997 -20.310  0.00  0.00    +0.000 C 
ATOM      9  C   UNL     1      35.788 -21.664 -18.530  0.00  0.00    +0.001 C 
ATOM     10  C   UNL     1      35.003 -22.582 -17.831  0.00  0.00    +0.015 C 
ATOM     11  C   UNL     1      33.603 -18.716 -22.809  0.00  0.00    +0.000 C 
ATOM     12  C   UNL     1      36.267 -18.331 -22.091  0.00  0.00    +0.000 C 
ATOM     13  C   UNL     1      34.387 -17.798 -23.507  0.00  0.00    +0.000 C 
ATOM     14  C   UNL     1      35.718 -17.606 -23.149  0.00  0.00    +0.000 C 
ENDROOT
BRANCH   5  15
ATOM     15  N   UNL     1      32.878 -23.703 -17.485  0.00  0.00    -0.299 N 
ATOM     16  H   UNL     1      32.935 -24.636 -17.794  0.00  0.00    +0.153 HD
BRANCH  15  21
ATOM     17  N   UNL     1      32.555 -23.700 -15.154  0.00  0.00    -0.106 N 
ATOM     18  N   UNL     1      30.486 -23.080 -14.097  0.00  0.00    -0.340 NA
ATOM     19  N   UNL     1      33.794 -24.115 -14.781  0.00  0.00    -0.139 NA
ATOM     20  N   UNL     1      32.500 -23.778 -12.939  0.00  0.00    -0.145 NA
ATOM     21  C   UNL     1      32.049 -23.481 -16.441  0.00  0.00    +0.138 C 
ATOM     22  C   UNL     1      30.779 -23.067 -16.564  0.00  0.00    +0.061 C 
ATOM     23  C   UNL     1      31.779 -23.499 -14.008  0.00  0.00    +0.174 C 
ATOM     24  C   UNL     1      30.017 -22.877 -15.293  0.00  0.00    +0.125 C 
ATOM     25  C   UNL     1      28.588 -22.413 -15.416  0.00  0.00    +0.068 C 
ATOM     26  C   UNL     1      33.700 -24.141 -13.456  0.00  0.00    +0.230 C 
ENDBRANCH  15  21
ENDBRANCH   5  15
TORSDOF 2
ENDMDL
MODEL 4
REMARK VINA RESULT:     -12.5      7.166     11.581
REMARK  Name = 24882195
REMARK  2 active torsions:
REMARK  status: ('A' for Active; 'I' for Inactive)
REMARK    1  A    between atoms: C_5  and  N_15
REMARK    2  A    between atoms: N_15  and  C_21
REMARK                            x       y       z     vdW  Elec       q    Type
REMARK                         _______ _______ _______ _____ _____    ______ ____
ROOT
ATOM      1  C   UNL     1      34.224 -19.781 -21.485  0.00  0.00    +0.001 C 
ATOM      2  C   UNL     1      35.577 -19.771 -21.080  0.00  0.00    +0.000 C 
ATOM      3  C   UNL     1      33.679 -21.291 -19.635  0.00  0.00    +0.000 C 
ATOM      4  C   UNL     1      35.032 -21.282 -19.228  0.00  0.00    +0.000 C 
ATOM      5  C   UNL     1      34.776 -18.281 -23.321  0.00  0.00    +0.049 C 
ATOM      6  C   UNL     1      33.294 -20.541 -20.758  0.00  0.00    +0.000 C 
ATOM      7  C   UNL     1      33.840 -19.031 -22.609  0.00  0.00    +0.015 C 
ATOM      8  C   UNL     1      35.964 -20.522 -19.956  0.00  0.00    +0.000 C 
ATOM      9  C   UNL     1      36.507 -19.011 -21.807  0.00  0.00    +0.001 C 
ATOM     10  C   UNL     1      36.109 -18.271 -22.921  0.00  0.00    +0.015 C 
ATOM     11  C   UNL     1      32.750 -22.052 -18.907  0.00  0.00    +0.000 C 
ATOM     12  C   UNL     1      35.418 -22.032 -18.105  0.00  0.00    +0.000 C 
ATOM     13  C   UNL     1      33.149 -22.792 -17.794  0.00  0.00    +0.000 C 
ATOM     14  C   UNL     1      34.481 -22.782 -17.394  0.00  0.00    +0.000 C 
ENDROOT
BRANCH   5  15
ATOM     15  N   UNL     1      34.372 -17.532 -24.447  0.00  0.00    -0.299 N 
ATOM     16  H   UNL     1      34.376 -18.015 -25.304  0.00  0.00    +0.153 HD
BRANCH  15  21
ATOM     17  N   UNL     1      33.411 -15.788 -25.701  0.00  0.00    -0.106 N 
ATOM     18  N   UNL     1      33.086 -13.562 -24.853  0.00  0.00    -0.340 NA
ATOM     19  N   UNL     1      33.183 -16.474 -26.851  0.00  0.00    -0.139 NA
ATOM     20  N   UNL     1      32.484 -14.319 -27.077  0.00  0.00    -0.145 NA
ATOM     21  C   UNL     1      33.981 -16.241 -24.504  0.00  0.00    +0.138 C 
ATOM     22  C   UNL     1      34.105 -15.371 -23.489  0.00  0.00    +0.061 C 
ATOM     23  C   UNL     1      32.973 -14.470 -25.862  0.00  0.00    +0.174 C 
ATOM     24  C   UNL     1      33.615 -13.982 -23.742  0.00  0.00    +0.125 C 
ATOM     25  C   UNL     1      33.749 -12.994 -22.611  0.00  0.00    +0.068 C 
ATOM     26  C   UNL     1      32.632 -15.549 -27.630  0.00  0.00    +0.230 C 
ENDBRANCH  15  21
ENDBRANCH   5  15
TORSDOF 2
ENDMDL
MODEL 5
REMARK VINA RESULT:     -12.4      1.565      2.936
REMARK  Name = 24882195
REMARK  2 active torsions:
REMARK  status: ('A' for Active; 'I' for Inactive)
REMARK    1  A    between atoms: C_5  and  N_15
REMARK    2  A    between atoms: N_15  and  C_21
REMARK                            x       y       z     vdW  Elec       q    Type
REMARK                         _______ _______ _______ _____ _____    ______ ____
ROOT
ATOM      1  C   UNL     1      35.228 -21.114 -19.279  0.00  0.00    +0.001 C 
ATOM      2  C   UNL     1      33.865 -21.259 -19.619  0.00  0.00    +0.000 C 
ATOM      3  C   UNL     1      35.537 -19.586 -21.169  0.00  0.00    +0.000 C 
ATOM      4  C   UNL     1      34.174 -19.729 -21.509  0.00  0.00    +0.000 C 
ATOM      5  C   UNL     1      34.912 -22.634 -17.405  0.00  0.00    +0.049 C 
ATOM      6  C   UNL     1      36.046 -20.280 -20.059  0.00  0.00    +0.000 C 
ATOM      7  C   UNL     1      35.737 -21.809 -18.170  0.00  0.00    +0.015 C 
ATOM      8  C   UNL     1      33.355 -20.564 -20.729  0.00  0.00    +0.000 C 
ATOM      9  C   UNL     1      33.047 -22.093 -18.839  0.00  0.00    +0.001 C 
ATOM     10  C   UNL     1      33.568 -22.776 -17.739  0.00  0.00    +0.015 C 
ATOM     11  C   UNL     1      36.354 -18.752 -21.950  0.00  0.00    +0.000 C 
ATOM     12  C   UNL     1      33.664 -19.035 -22.618  0.00  0.00    +0.000 C 
ATOM     13  C   UNL     1      35.834 -18.069 -23.049  0.00  0.00    +0.000 C 
ATOM     14  C   UNL     1      34.491 -18.210 -23.382  0.00  0.00    +0.000 C 
ENDROOT
BRANCH   5  15
ATOM     15  N   UNL     1      35.439 -23.325 -16.293  0.00  0.00    -0.299 N 
ATOM     16  H   UNL     1      36.375 -23.618 -16.377  0.00  0.00    +0.153 HD
BRANCH  15  21
ATOM     17  N   UNL     1      35.589 -23.555 -13.956  0.00  0.00    -0.106 N 
ATOM     18  N   UNL     1      33.755 -24.251 -12.566  0.00  0.00    -0.340 NA
ATOM     19  N   UNL     1      36.891 -23.193 -13.805  0.00  0.00    -0.139 NA
ATOM     20  N   UNL     1      35.981 -23.695 -11.779  0.00  0.00    -0.145 NA
ATOM     21  C   UNL     1      34.829 -23.638 -15.130  0.00  0.00    +0.138 C 
ATOM     22  C   UNL     1      33.547 -24.023 -15.031  0.00  0.00    +0.061 C 
ATOM     23  C   UNL     1      35.053 -23.857 -12.701  0.00  0.00    +0.174 C 
ATOM     24  C   UNL     1      33.049 -24.328 -13.656  0.00  0.00    +0.125 C 
ATOM     25  C   UNL     1      31.611 -24.763 -13.530  0.00  0.00    +0.068 C 
ATOM     26  C   UNL     1      37.064 -23.296 -12.492  0.00  0.00    +0.230 C 
ENDBRANCH  15  21
ENDBRANCH   5  15
TORSDOF 2
ENDMDL
MODEL 6
REMARK VINA RESULT:     -12.4      1.336      2.987
REMARK  Name = 24882195
REMARK  2 active torsions:
REMARK  status: ('A' for Active; 'I' for Inactive)
REMARK    1  A    between atoms: C_5  and  N_15
REMARK    2  A    between atoms: N_15  and  C_21
REMARK                            x       y       z     vdW  Elec       q    Type
REMARK                         _______ _______ _______ _____ _____    ______ ____
ROOT
ATOM      1  C   UNL     1      34.468 -21.916 -18.277  0.00  0.00    +0.001 C 
ATOM      2  C   UNL     1      35.829 -21.539 -18.272  0.00  0.00    +0.000 C 
ATOM      3  C   UNL     1      34.113 -20.606 -20.317  0.00  0.00    +0.000 C 
ATOM      4  C   UNL     1      35.474 -20.229 -20.313  0.00  0.00    +0.000 C 
ATOM      5  C   UNL     1      34.830 -23.214 -16.251  0.00  0.00    +0.049 C 
ATOM      6  C   UNL     1      33.628 -21.444 -19.299  0.00  0.00    +0.000 C 
ATOM      7  C   UNL     1      33.984 -22.753 -17.259  0.00  0.00    +0.015 C 
ATOM      8  C   UNL     1      36.315 -20.701 -19.290  0.00  0.00    +0.000 C 
ATOM      9  C   UNL     1      36.669 -22.011 -17.250  0.00  0.00    +0.001 C 
ATOM     10  C   UNL     1      36.172 -22.843 -16.246  0.00  0.00    +0.015 C 
ATOM     11  C   UNL     1      33.274 -20.133 -21.339  0.00  0.00    +0.000 C 
ATOM     12  C   UNL     1      35.959 -19.391 -21.330  0.00  0.00    +0.000 C 
ATOM     13  C   UNL     1      33.770 -19.302 -22.343  0.00  0.00    +0.000 C 
ATOM     14  C   UNL     1      35.111 -18.932 -22.339  0.00  0.00    +0.000 C 
ENDROOT
BRANCH   5  15
ATOM     15  N   UNL     1      34.328 -24.055 -15.236  0.00  0.00    -0.299 N 
ATOM     16  H   UNL     1      33.391 -24.338 -15.341  0.00  0.00    +0.153 HD
BRANCH  15  21
ATOM     17  N   UNL     1      35.905 -25.541 -14.318  0.00  0.00    -0.106 N 
ATOM     18  N   UNL     1      36.416 -25.658 -11.971  0.00  0.00    -0.340 NA
ATOM     19  N   UNL     1      36.295 -26.151 -15.468  0.00  0.00    -0.139 NA
ATOM     20  N   UNL     1      37.431 -27.024 -13.699  0.00  0.00    -0.145 NA
ATOM     21  C   UNL     1      34.961 -24.522 -14.138  0.00  0.00    +0.138 C 
ATOM     22  C   UNL     1      34.741 -24.072 -12.893  0.00  0.00    +0.061 C 
ATOM     23  C   UNL     1      36.616 -26.092 -13.248  0.00  0.00    +0.174 C 
ATOM     24  C   UNL     1      35.539 -24.712 -11.804  0.00  0.00    +0.125 C 
ATOM     25  C   UNL     1      35.301 -24.217 -10.401  0.00  0.00    +0.068 C 
ATOM     26  C   UNL     1      37.202 -27.020 -15.036  0.00  0.00    +0.230 C 
ENDBRANCH  15  21
ENDBRANCH   5  15
TORSDOF 2
ENDMDL
MODEL 7
REMARK VINA RESULT:     -12.4      5.736      9.834
REMARK  Name = 24882195
REMARK  2 active torsions:
REMARK  status: ('A' for Active; 'I' for Inactive)
REMARK    1  A    between atoms: C_5  and  N_15
REMARK    2  A    between atoms: N_15  and  C_21
REMARK                            x       y       z     vdW  Elec       q    Type
REMARK                         _______ _______ _______ _____ _____    ______ ____
ROOT
ATOM      1  C   UNL     1      35.198 -20.717 -19.782  0.00  0.00    +0.001 C 
ATOM      2  C   UNL     1      33.828 -21.056 -19.759  0.00  0.00    +0.000 C 
ATOM      3  C   UNL     1      35.565 -22.061 -17.766  0.00  0.00    +0.000 C 
ATOM      4  C   UNL     1      34.194 -22.401 -17.743  0.00  0.00    +0.000 C 
ATOM      5  C   UNL     1      34.824 -19.385 -21.784  0.00  0.00    +0.049 C 
ATOM      6  C   UNL     1      36.048 -21.224 -18.785  0.00  0.00    +0.000 C 
ATOM      7  C   UNL     1      35.681 -19.880 -20.800  0.00  0.00    +0.015 C 
ATOM      8  C   UNL     1      33.343 -21.894 -18.740  0.00  0.00    +0.000 C 
ATOM      9  C   UNL     1      32.978 -20.550 -20.756  0.00  0.00    +0.001 C 
ATOM     10  C   UNL     1      33.473 -19.719 -21.762  0.00  0.00    +0.015 C 
ATOM     11  C   UNL     1      36.414 -22.568 -16.769  0.00  0.00    +0.000 C 
ATOM     12  C   UNL     1      33.710 -23.238 -16.724  0.00  0.00    +0.000 C 
ATOM     13  C   UNL     1      35.918 -23.398 -15.764  0.00  0.00    +0.000 C 
ATOM     14  C   UNL     1      34.568 -23.733 -15.742  0.00  0.00    +0.000 C 
ENDROOT
BRANCH   5  15
ATOM     15  N   UNL     1      35.326 -18.545 -22.800  0.00  0.00    -0.299 N 
ATOM     16  H   UNL     1      36.184 -18.821 -23.197  0.00  0.00    +0.153 HD
BRANCH  15  21
ATOM     17  N   UNL     1      34.613 -16.335 -22.422  0.00  0.00    -0.106 N 
ATOM     18  N   UNL     1      33.672 -14.928 -24.130  0.00  0.00    -0.340 NA
ATOM     19  N   UNL     1      34.915 -16.253 -21.099  0.00  0.00    -0.139 NA
ATOM     20  N   UNL     1      34.017 -14.287 -21.816  0.00  0.00    -0.145 NA
ATOM     21  C   UNL     1      34.787 -17.412 -23.300  0.00  0.00    +0.138 C 
ATOM     22  C   UNL     1      34.411 -17.257 -24.579  0.00  0.00    +0.061 C 
ATOM     23  C   UNL     1      34.065 -15.118 -22.839  0.00  0.00    +0.174 C 
ATOM     24  C   UNL     1      33.834 -15.928 -24.945  0.00  0.00    +0.125 C 
ATOM     25  C   UNL     1      33.405 -15.741 -26.378  0.00  0.00    +0.068 C 
ATOM     26  C   UNL     1      34.539 -15.015 -20.797  0.00  0.00    +0.230 C 
ENDBRANCH  15  21
ENDBRANCH   5  15
TORSDOF 2
ENDMDL
MODEL 8
REMARK VINA RESULT:     -12.3      2.029      3.874
REMARK  Name = 24882195
REMARK  2 active torsions:
REMARK  status: ('A' for Active; 'I' for Inactive)
REMARK    1  A    between atoms: C_5  and  N_15
REMARK    2  A    between atoms: N_15  and  C_21
REMARK                            x       y       z     vdW  Elec       q    Type
REMARK                         _______ _______ _______ _____ _____    ______ ____
ROOT
ATOM      1  C   UNL     1      34.065 -21.134 -19.739  0.00  0.00    +0.001 C 
ATOM      2  C   UNL     1      35.441 -20.937 -19.491  0.00  0.00    +0.000 C 
ATOM      3  C   UNL     1      34.188 -19.596 -21.642  0.00  0.00    +0.000 C 
ATOM      4  C   UNL     1      35.564 -19.399 -21.395  0.00  0.00    +0.000 C 
ATOM      5  C   UNL     1      33.953 -22.659 -17.846  0.00  0.00    +0.049 C 
ATOM      6  C   UNL     1      33.456 -20.461 -20.811  0.00  0.00    +0.000 C 
ATOM      7  C   UNL     1      33.334 -21.998 -18.907  0.00  0.00    +0.015 C 
ATOM      8  C   UNL     1      36.173 -20.072 -20.322  0.00  0.00    +0.000 C 
ATOM      9  C   UNL     1      36.049 -21.610 -18.418  0.00  0.00    +0.001 C 
ATOM     10  C   UNL     1      35.309 -22.466 -17.601  0.00  0.00    +0.015 C 
ATOM     11  C   UNL     1      33.580 -18.922 -22.714  0.00  0.00    +0.000 C 
ATOM     12  C   UNL     1      36.295 -18.535 -22.226  0.00  0.00    +0.000 C 
ATOM     13  C   UNL     1      34.320 -18.067 -23.531  0.00  0.00    +0.000 C 
ATOM     14  C   UNL     1      35.676 -17.874 -23.287  0.00  0.00    +0.000 C 
ENDROOT
BRANCH   5  15
ATOM     15  N   UNL     1      33.204 -23.524 -17.020  0.00  0.00    -0.299 N 
ATOM     16  H   UNL     1      32.506 -24.050 -17.474  0.00  0.00    +0.153 HD
BRANCH  15  21
ATOM     17  N   UNL     1      32.142 -23.692 -14.927  0.00  0.00    -0.106 N 
ATOM     18  N   UNL     1      33.311 -24.123 -12.871  0.00  0.00    -0.340 NA
ATOM     19  N   UNL     1      30.863 -23.481 -15.337  0.00  0.00    -0.139 NA
ATOM     20  N   UNL     1      30.916 -23.806 -13.084  0.00  0.00    -0.145 NA
ATOM     21  C   UNL     1      33.316 -23.726 -15.689  0.00  0.00    +0.138 C 
ATOM     22  C   UNL     1      34.478 -23.955 -15.058  0.00  0.00    +0.061 C 
ATOM     23  C   UNL     1      32.149 -23.889 -13.543  0.00  0.00    +0.174 C 
ATOM     24  C   UNL     1      34.401 -24.155 -13.579  0.00  0.00    +0.125 C 
ATOM     25  C   UNL     1      35.699 -24.412 -12.856  0.00  0.00    +0.068 C 
ATOM     26  C   UNL     1      30.182 -23.561 -14.199  0.00  0.00    +0.230 C 
ENDBRANCH  15  21
ENDBRANCH   5  15
TORSDOF 2
ENDMDL
MODEL 9
REMARK VINA RESULT:     -12.3      5.360      9.446
REMARK  Name = 24882195
REMARK  2 active torsions:
REMARK  status: ('A' for Active; 'I' for Inactive)
REMARK    1  A    between atoms: C_5  and  N_15
REMARK    2  A    between atoms: N_15  and  C_21
REMARK                            x       y       z     vdW  Elec       q    Type
REMARK                         _______ _______ _______ _____ _____    ______ ____
ROOT
ATOM      1  C   UNL     1      35.454 -21.617 -18.566  0.00  0.00    +0.001 C 
ATOM      2  C   UNL     1      34.111 -22.025 -18.416  0.00  0.00    +0.000 C 
ATOM      3  C   UNL     1      36.036 -22.762 -16.480  0.00  0.00    +0.000 C 
ATOM      4  C   UNL     1      34.692 -23.171 -16.329  0.00  0.00    +0.000 C 
ATOM      5  C   UNL     1      34.867 -20.482 -20.637  0.00  0.00    +0.049 C 
ATOM      6  C   UNL     1      36.399 -21.990 -17.595  0.00  0.00    +0.000 C 
ATOM      7  C   UNL     1      35.816 -20.845 -19.681  0.00  0.00    +0.015 C 
ATOM      8  C   UNL     1      33.747 -22.797 -17.299  0.00  0.00    +0.000 C 
ATOM      9  C   UNL     1      33.166 -21.652 -19.386  0.00  0.00    +0.001 C 
ATOM     10  C   UNL     1      33.543 -20.884 -20.489  0.00  0.00    +0.015 C 
ATOM     11  C   UNL     1      36.979 -23.136 -15.508  0.00  0.00    +0.000 C 
ATOM     12  C   UNL     1      34.329 -23.943 -15.213  0.00  0.00    +0.000 C 
ATOM     13  C   UNL     1      36.603 -23.903 -14.406  0.00  0.00    +0.000 C 
ATOM     14  C   UNL     1      35.280 -24.306 -14.258  0.00  0.00    +0.000 C 
ENDROOT
BRANCH   5  15
ATOM     15  N   UNL     1      35.248 -19.706 -21.752  0.00  0.00    -0.299 N 
ATOM     16  H   UNL     1      35.811 -20.163 -22.417  0.00  0.00    +0.153 HD
BRANCH  15  21
ATOM     17  N   UNL     1      34.570 -18.108 -23.341  0.00  0.00    -0.106 N 
ATOM     18  N   UNL     1      34.259 -15.778 -22.836  0.00  0.00    -0.340 NA
ATOM     19  N   UNL     1      34.463 -18.932 -24.416  0.00  0.00    -0.139 NA
ATOM     20  N   UNL     1      33.925 -16.800 -25.010  0.00  0.00    -0.145 NA
ATOM     21  C   UNL     1      34.943 -18.419 -22.027  0.00  0.00    +0.138 C 
ATOM     22  C   UNL     1      34.977 -17.428 -21.124  0.00  0.00    +0.061 C 
ATOM     23  C   UNL     1      34.234 -16.807 -23.729  0.00  0.00    +0.174 C 
ATOM     24  C   UNL     1      34.606 -16.067 -21.617  0.00  0.00    +0.125 C 
ATOM     25  C   UNL     1      34.641 -14.943 -20.613  0.00  0.00    +0.068 C 
ATOM     26  C   UNL     1      34.077 -18.098 -25.376  0.00  0.00    +0.230 C 
ENDBRANCH  15  21
ENDBRANCH   5  15
TORSDOF 2
ENDMDL
