MODEL 1
REMARK VINA RESULT:     -12.1      0.000      0.000
REMARK  Name = 24832041
REMARK  6 active torsions:
REMARK  status: ('A' for Active; 'I' for Inactive)
REMARK    1  A    between atoms: C_1  and  C_18
REMARK    2  A    between atoms: C_4  and  C_7
REMARK    3  A    between atoms: C_10  and  C_15
REMARK    4  A    between atoms: C_18  and  N_19
REMARK    5  A    between atoms: C_18  and  C_23
REMARK    6  A    between atoms: C_23  and  C_26
REMARK                            x       y       z     vdW  Elec       q    Type
REMARK                         _______ _______ _______ _____ _____    ______ ____
ROOT
ATOM      1  C   UNL     1      33.390 -21.777 -19.029  0.00  0.00    -0.042 C 
ATOM      2  C   UNL     1      32.339 -21.080 -19.624  0.00  0.00    -0.006 C 
ATOM      3  C   UNL     1      34.706 -21.510 -19.405  0.00  0.00    -0.006 C 
ATOM      4  C   UNL     1      33.921 -19.847 -20.973  0.00  0.00    -0.000 C 
ATOM      5  C   UNL     1      32.604 -20.115 -20.596  0.00  0.00    -0.000 C 
ATOM      6  C   UNL     1      34.972 -20.545 -20.377  0.00  0.00    -0.000 C 
ENDROOT
BRANCH   4   7
ATOM      7  C   UNL     1      34.195 -18.846 -21.980  0.00  0.00    +0.000 C 
ATOM      8  C   UNL     1      33.662 -18.982 -23.262  0.00  0.00    +0.005 C 
ATOM      9  C   UNL     1      34.993 -17.746 -21.669  0.00  0.00    +0.000 C 
ATOM     10  C   UNL     1      33.926 -18.017 -24.233  0.00  0.00    +0.053 C 
ATOM     11  C   UNL     1      35.258 -16.780 -22.641  0.00  0.00    +0.000 C 
ATOM     12  C   UNL     1      34.725 -16.915 -23.923  0.00  0.00    +0.005 C 
BRANCH  10  15
ATOM     13  O   UNL     1      34.079 -18.040 -26.584  0.00  0.00    -0.270 OA
ATOM     14  N   UNL     1      32.012 -18.441 -25.678  0.00  0.00    -0.325 N 
ATOM     15  C   UNL     1      33.369 -18.156 -25.569  0.00  0.00    +0.243 C 
ATOM     16  H   UNL     1      31.599 -18.542 -26.566  0.00  0.00    +0.145 HD
ATOM     17  H   UNL     1      31.463 -18.544 -24.867  0.00  0.00    +0.145 HD
ENDBRANCH  10  15
ENDBRANCH   4   7
BRANCH   1  18
ATOM     18  C   UNL     1      33.107 -22.808 -17.990  0.00  0.00    -0.038 C 
BRANCH  18  19
ATOM     19  N   UNL     1      33.136 -24.178 -18.546  0.00  0.00    +0.384 N 
ATOM     20  H   UNL     1      32.195 -24.574 -18.523  0.00  0.00    -0.089 HD
ATOM     21  H   UNL     1      33.762 -24.759 -17.987  0.00  0.00    -0.089 HD
ATOM     22  H   UNL     1      33.468 -24.149 -19.509  0.00  0.00    -0.089 HD
ENDBRANCH  18  19
BRANCH  18  23
ATOM     23  C   UNL     1      31.750 -22.618 -17.252  0.00  0.00    +0.011 C 
BRANCH  23  26
ATOM     24  F   UNL     1      33.777 -22.711 -15.271  0.00  0.00    -0.205 F 
ATOM     25  F   UNL     1      29.311 -25.747 -14.405  0.00  0.00    -0.204 F 
ATOM     26  C   UNL     1      31.643 -23.455 -15.998  0.00  0.00    +0.006 C 
ATOM     27  C   UNL     1      32.679 -23.452 -15.065  0.00  0.00    +0.136 C 
ATOM     28  C   UNL     1      30.505 -24.229 -15.775  0.00  0.00    +0.028 C 
ATOM     29  C   UNL     1      30.403 -25.003 -14.619  0.00  0.00    +0.140 C 
ATOM     30  C   UNL     1      32.578 -24.226 -13.908  0.00  0.00    +0.032 C 
ATOM     31  C   UNL     1      31.440 -25.001 -13.685  0.00  0.00    +0.032 C 
ENDBRANCH  23  26
ENDBRANCH  18  23
ENDBRANCH   1  18
TORSDOF 6
ENDMDL
MODEL 2
REMARK VINA RESULT:     -12.1      1.124      2.032
REMARK  Name = 24832041
REMARK  6 active torsions:
REMARK  status: ('A' for Active; 'I' for Inactive)
REMARK    1  A    between atoms: C_1  and  C_18
REMARK    2  A    between atoms: C_4  and  C_7
REMARK    3  A    between atoms: C_10  and  C_15
REMARK    4  A    between atoms: C_18  and  N_19
REMARK    5  A    between atoms: C_18  and  C_23
REMARK    6  A    between atoms: C_23  and  C_26
REMARK                            x       y       z     vdW  Elec       q    Type
REMARK                         _______ _______ _______ _____ _____    ______ ____
ROOT
ATOM      1  C   UNL     1      33.689 -21.774 -19.357  0.00  0.00    -0.042 C 
ATOM      2  C   UNL     1      34.979 -21.381 -19.712  0.00  0.00    -0.006 C 
ATOM      3  C   UNL     1      32.586 -21.102 -19.884  0.00  0.00    -0.006 C 
ATOM      4  C   UNL     1      34.064 -19.643 -21.120  0.00  0.00    -0.000 C 
ATOM      5  C   UNL     1      35.167 -20.316 -20.593  0.00  0.00    -0.000 C 
ATOM      6  C   UNL     1      32.773 -20.037 -20.765  0.00  0.00    -0.000 C 
ENDROOT
BRANCH   4   7
ATOM      7  C   UNL     1      34.259 -18.541 -22.034  0.00  0.00    +0.000 C 
ATOM      8  C   UNL     1      33.909 -18.678 -23.378  0.00  0.00    +0.005 C 
ATOM      9  C   UNL     1      34.797 -17.340 -21.573  0.00  0.00    +0.000 C 
ATOM     10  C   UNL     1      34.097 -17.614 -24.260  0.00  0.00    +0.053 C 
ATOM     11  C   UNL     1      34.985 -16.275 -22.456  0.00  0.00    +0.000 C 
ATOM     12  C   UNL     1      34.635 -16.412 -23.799  0.00  0.00    +0.005 C 
BRANCH  10  15
ATOM     13  O   UNL     1      34.357 -17.165 -26.558  0.00  0.00    -0.270 OA
ATOM     14  N   UNL     1      32.660 -18.590 -25.968  0.00  0.00    -0.325 N 
ATOM     15  C   UNL     1      33.730 -17.755 -25.660  0.00  0.00    +0.243 C 
ATOM     16  H   UNL     1      32.383 -18.710 -26.905  0.00  0.00    +0.145 HD
ATOM     17  H   UNL     1      32.181 -19.062 -25.250  0.00  0.00    +0.145 HD
ENDBRANCH  10  15
ENDBRANCH   4   7
BRANCH   1  18
ATOM     18  C   UNL     1      33.488 -22.912 -18.416  0.00  0.00    -0.038 C 
BRANCH  18  19
ATOM     19  N   UNL     1      33.392 -24.207 -19.124  0.00  0.00    +0.384 N 
ATOM     20  H   UNL     1      32.803 -24.845 -18.589  0.00  0.00    -0.089 HD
ATOM     21  H   UNL     1      34.325 -24.609 -19.225  0.00  0.00    -0.089 HD
ATOM     22  H   UNL     1      32.983 -24.061 -20.046  0.00  0.00    -0.089 HD
ENDBRANCH  18  19
BRANCH  18  23
ATOM     23  C   UNL     1      32.236 -22.772 -17.501  0.00  0.00    +0.011 C 
BRANCH  23  26
ATOM     24  F   UNL     1      30.234 -22.795 -15.492  0.00  0.00    -0.205 F 
ATOM     25  F   UNL     1      35.192 -24.626 -14.084  0.00  0.00    -0.204 F 
ATOM     26  C   UNL     1      32.484 -23.260 -16.092  0.00  0.00    +0.006 C 
ATOM     27  C   UNL     1      31.452 -23.243 -15.154  0.00  0.00    +0.136 C 
ATOM     28  C   UNL     1      33.748 -23.727 -15.731  0.00  0.00    +0.028 C 
ATOM     29  C   UNL     1      33.979 -24.178 -14.431  0.00  0.00    +0.140 C 
ATOM     30  C   UNL     1      31.684 -23.693 -13.854  0.00  0.00    +0.032 C 
ATOM     31  C   UNL     1      32.947 -24.161 -13.493  0.00  0.00    +0.032 C 
ENDBRANCH  23  26
ENDBRANCH  18  23
ENDBRANCH   1  18
TORSDOF 6
ENDMDL
MODEL 3
REMARK VINA RESULT:     -12.1      2.391      2.986
REMARK  Name = 24832041
REMARK  6 active torsions:
REMARK  status: ('A' for Active; 'I' for Inactive)
REMARK    1  A    between atoms: C_1  and  C_18
REMARK    2  A    between atoms: C_4  and  C_7
REMARK    3  A    between atoms: C_10  and  C_15
REMARK    4  A    between atoms: C_18  and  N_19
REMARK    5  A    between atoms: C_18  and  C_23
REMARK    6  A    between atoms: C_23  and  C_26
REMARK                            x       y       z     vdW  Elec       q    Type
REMARK                         _______ _______ _______ _____ _____    ______ ____
ROOT
ATOM      1  C   UNL     1      33.948 -22.041 -18.797  0.00  0.00    -0.042 C 
ATOM      2  C   UNL     1      32.810 -21.468 -19.364  0.00  0.00    -0.006 C 
ATOM      3  C   UNL     1      35.215 -21.624 -19.203  0.00  0.00    -0.006 C 
ATOM      4  C   UNL     1      34.207 -20.060 -20.744  0.00  0.00    -0.000 C 
ATOM      5  C   UNL     1      32.939 -20.477 -20.337  0.00  0.00    -0.000 C 
ATOM      6  C   UNL     1      35.345 -20.634 -20.176  0.00  0.00    -0.000 C 
ENDROOT
BRANCH   4   7
ATOM      7  C   UNL     1      34.341 -19.033 -21.753  0.00  0.00    +0.000 C 
ATOM      8  C   UNL     1      33.776 -19.217 -23.015  0.00  0.00    +0.005 C 
ATOM      9  C   UNL     1      35.035 -17.858 -21.464  0.00  0.00    +0.000 C 
ATOM     10  C   UNL     1      33.905 -18.226 -23.989  0.00  0.00    +0.053 C 
ATOM     11  C   UNL     1      35.164 -16.867 -22.438  0.00  0.00    +0.000 C 
ATOM     12  C   UNL     1      34.599 -17.051 -23.700  0.00  0.00    +0.005 C 
BRANCH  10  15
ATOM     13  O   UNL     1      34.020 -18.527 -26.322  0.00  0.00    -0.270 OA
ATOM     14  N   UNL     1      31.927 -18.487 -25.386  0.00  0.00    -0.325 N 
ATOM     15  C   UNL     1      33.314 -18.416 -25.304  0.00  0.00    +0.243 C 
ATOM     16  H   UNL     1      31.491 -18.614 -26.260  0.00  0.00    +0.145 HD
ATOM     17  H   UNL     1      31.380 -18.411 -24.571  0.00  0.00    +0.145 HD
ENDBRANCH  10  15
ENDBRANCH   4   7
BRANCH   1  18
ATOM     18  C   UNL     1      33.810 -23.099 -17.755  0.00  0.00    -0.038 C 
BRANCH  18  19
ATOM     19  N   UNL     1      32.423 -23.603 -17.656  0.00  0.00    +0.384 N 
ATOM     20  H   UNL     1      32.060 -23.787 -18.591  0.00  0.00    -0.089 HD
ATOM     21  H   UNL     1      31.840 -22.902 -17.196  0.00  0.00    -0.089 HD
ATOM     22  H   UNL     1      32.412 -24.465 -17.112  0.00  0.00    -0.089 HD
ENDBRANCH  18  19
BRANCH  18  23
ATOM     23  C   UNL     1      34.265 -22.660 -16.333  0.00  0.00    +0.011 C 
BRANCH  23  26
ATOM     24  F   UNL     1      36.908 -21.635 -16.240  0.00  0.00    -0.205 F 
ATOM     25  F   UNL     1      36.161 -26.753 -14.462  0.00  0.00    -0.204 F 
ATOM     26  C   UNL     1      35.444 -23.457 -15.823  0.00  0.00    +0.006 C 
ATOM     27  C   UNL     1      36.717 -22.888 -15.806  0.00  0.00    +0.136 C 
ATOM     28  C   UNL     1      35.255 -24.762 -15.369  0.00  0.00    +0.028 C 
ATOM     29  C   UNL     1      36.341 -25.500 -14.897  0.00  0.00    +0.140 C 
ATOM     30  C   UNL     1      37.803 -23.627 -15.335  0.00  0.00    +0.032 C 
ATOM     31  C   UNL     1      37.616 -24.932 -14.880  0.00  0.00    +0.032 C 
ENDBRANCH  23  26
ENDBRANCH  18  23
ENDBRANCH   1  18
TORSDOF 6
ENDMDL
MODEL 4
REMARK VINA RESULT:     -12.0      4.412      9.446
REMARK  Name = 24832041
REMARK  6 active torsions:
REMARK  status: ('A' for Active; 'I' for Inactive)
REMARK    1  A    between atoms: C_1  and  C_18
REMARK    2  A    between atoms: C_4  and  C_7
REMARK    3  A    between atoms: C_10  and  C_15
REMARK    4  A    between atoms: C_18  and  N_19
REMARK    5  A    between atoms: C_18  and  C_23
REMARK    6  A    between atoms: C_23  and  C_26
REMARK                            x       y       z     vdW  Elec       q    Type
REMARK                         _______ _______ _______ _____ _____    ______ ____
ROOT
ATOM      1  C   UNL     1      34.288 -19.704 -21.560  0.00  0.00    -0.042 C 
ATOM      2  C   UNL     1      33.061 -20.072 -21.010  0.00  0.00    -0.006 C 
ATOM      3  C   UNL     1      35.475 -20.156 -20.982  0.00  0.00    -0.006 C 
ATOM      4  C   UNL     1      34.205 -21.345 -19.304  0.00  0.00    -0.000 C 
ATOM      5  C   UNL     1      33.019 -20.893 -19.883  0.00  0.00    -0.000 C 
ATOM      6  C   UNL     1      35.434 -20.976 -19.855  0.00  0.00    -0.000 C 
ENDROOT
BRANCH   4   7
ATOM      7  C   UNL     1      34.162 -22.196 -18.136  0.00  0.00    +0.000 C 
ATOM      8  C   UNL     1      35.318 -22.405 -17.383  0.00  0.00    +0.005 C 
ATOM      9  C   UNL     1      32.966 -22.807 -17.763  0.00  0.00    +0.000 C 
ATOM     10  C   UNL     1      35.276 -23.227 -16.256  0.00  0.00    +0.053 C 
ATOM     11  C   UNL     1      32.924 -23.628 -16.636  0.00  0.00    +0.000 C 
ATOM     12  C   UNL     1      34.079 -23.838 -15.882  0.00  0.00    +0.005 C 
BRANCH  10  15
ATOM     13  O   UNL     1      37.084 -22.498 -14.933  0.00  0.00    -0.270 OA
ATOM     14  N   UNL     1      36.926 -24.753 -15.316  0.00  0.00    -0.325 N 
ATOM     15  C   UNL     1      36.479 -23.444 -15.468  0.00  0.00    +0.243 C 
ATOM     16  H   UNL     1      37.737 -24.939 -14.791  0.00  0.00    +0.145 HD
ATOM     17  H   UNL     1      36.431 -25.494 -15.734  0.00  0.00    +0.145 HD
ENDBRANCH  10  15
ENDBRANCH   4   7
BRANCH   1  18
ATOM     18  C   UNL     1      34.333 -18.828 -22.765  0.00  0.00    -0.038 C 
BRANCH  18  19
ATOM     19  N   UNL     1      34.558 -19.602 -24.005  0.00  0.00    +0.384 N 
ATOM     20  H   UNL     1      35.436 -19.310 -24.435  0.00  0.00    -0.089 HD
ATOM     21  H   UNL     1      33.789 -19.434 -24.655  0.00  0.00    -0.089 HD
ATOM     22  H   UNL     1      34.603 -20.596 -23.783  0.00  0.00    -0.089 HD
ENDBRANCH  18  19
BRANCH  18  23
ATOM     23  C   UNL     1      35.409 -17.705 -22.700  0.00  0.00    +0.011 C 
BRANCH  23  26
ATOM     24  F   UNL     1      34.993 -16.512 -20.161  0.00  0.00    -0.205 F 
ATOM     25  F   UNL     1      33.513 -13.601 -24.549  0.00  0.00    -0.204 F 
ATOM     26  C   UNL     1      34.809 -16.329 -22.521  0.00  0.00    +0.006 C 
ATOM     27  C   UNL     1      34.633 -15.804 -21.241  0.00  0.00    +0.136 C 
ATOM     28  C   UNL     1      34.431 -15.586 -23.639  0.00  0.00    +0.028 C 
ATOM     29  C   UNL     1      33.877 -14.316 -23.477  0.00  0.00    +0.140 C 
ATOM     30  C   UNL     1      34.078 -14.534 -21.079  0.00  0.00    +0.032 C 
ATOM     31  C   UNL     1      33.701 -13.790 -22.196  0.00  0.00    +0.032 C 
ENDBRANCH  23  26
ENDBRANCH  18  23
ENDBRANCH   1  18
TORSDOF 6
ENDMDL
MODEL 5
REMARK VINA RESULT:     -11.8      4.154      9.243
REMARK  Name = 24832041
REMARK  6 active torsions:
REMARK  status: ('A' for Active; 'I' for Inactive)
REMARK    1  A    between atoms: C_1  and  C_18
REMARK    2  A    between atoms: C_4  and  C_7
REMARK    3  A    between atoms: C_10  and  C_15
REMARK    4  A    between atoms: C_18  and  N_19
REMARK    5  A    between atoms: C_18  and  C_23
REMARK    6  A    between atoms: C_23  and  C_26
REMARK                            x       y       z     vdW  Elec       q    Type
REMARK                         _______ _______ _______ _____ _____    ______ ____
ROOT
ATOM      1  C   UNL     1      34.017 -19.727 -21.607  0.00  0.00    -0.042 C 
ATOM      2  C   UNL     1      32.685 -19.868 -21.219  0.00  0.00    -0.006 C 
ATOM      3  C   UNL     1      35.024 -20.373 -20.890  0.00  0.00    -0.006 C 
ATOM      4  C   UNL     1      33.367 -21.301 -19.396  0.00  0.00    -0.000 C 
ATOM      5  C   UNL     1      32.359 -20.655 -20.113  0.00  0.00    -0.000 C 
ATOM      6  C   UNL     1      34.699 -21.159 -19.785  0.00  0.00    -0.000 C 
ENDROOT
BRANCH   4   7
ATOM      7  C   UNL     1      33.029 -22.116 -18.251  0.00  0.00    +0.000 C 
ATOM      8  C   UNL     1      31.697 -22.247 -17.856  0.00  0.00    +0.005 C 
ATOM      9  C   UNL     1      34.035 -22.772 -17.541  0.00  0.00    +0.000 C 
ATOM     10  C   UNL     1      31.372 -23.034 -16.751  0.00  0.00    +0.053 C 
ATOM     11  C   UNL     1      33.709 -23.559 -16.436  0.00  0.00    +0.000 C 
ATOM     12  C   UNL     1      32.378 -23.690 -16.041  0.00  0.00    +0.005 C 
BRANCH  10  15
ATOM     13  O   UNL     1      29.077 -22.522 -16.887  0.00  0.00    -0.270 OA
ATOM     14  N   UNL     1      29.698 -24.077 -15.321  0.00  0.00    -0.325 N 
ATOM     15  C   UNL     1      29.984 -23.174 -16.340  0.00  0.00    +0.243 C 
ATOM     16  H   UNL     1      28.770 -24.197 -15.015  0.00  0.00    +0.145 HD
ATOM     17  H   UNL     1      30.423 -24.596 -14.905  0.00  0.00    +0.145 HD
ENDBRANCH  10  15
ENDBRANCH   4   7
BRANCH   1  18
ATOM     18  C   UNL     1      34.365 -18.888 -22.789  0.00  0.00    -0.038 C 
BRANCH  18  19
ATOM     19  N   UNL     1      34.843 -19.703 -23.926  0.00  0.00    +0.384 N 
ATOM     20  H   UNL     1      35.233 -19.090 -24.643  0.00  0.00    -0.089 HD
ATOM     21  H   UNL     1      34.062 -20.230 -24.318  0.00  0.00    -0.089 HD
ATOM     22  H   UNL     1      35.563 -20.349 -23.604  0.00  0.00    -0.089 HD
ENDBRANCH  18  19
BRANCH  18  23
ATOM     23  C   UNL     1      35.432 -17.791 -22.502  0.00  0.00    +0.011 C 
BRANCH  23  26
ATOM     24  F   UNL     1      34.977 -16.445 -20.047  0.00  0.00    -0.205 F 
ATOM     25  F   UNL     1      33.595 -13.796 -24.628  0.00  0.00    -0.204 F 
ATOM     26  C   UNL     1      34.837 -16.404 -22.416  0.00  0.00    +0.006 C 
ATOM     27  C   UNL     1      34.641 -15.802 -21.174  0.00  0.00    +0.136 C 
ATOM     28  C   UNL     1      34.484 -15.727 -23.584  0.00  0.00    +0.028 C 
ATOM     29  C   UNL     1      33.935 -14.447 -23.508  0.00  0.00    +0.140 C 
ATOM     30  C   UNL     1      34.092 -14.522 -21.098  0.00  0.00    +0.032 C 
ATOM     31  C   UNL     1      33.739 -13.844 -22.265  0.00  0.00    +0.032 C 
ENDBRANCH  23  26
ENDBRANCH  18  23
ENDBRANCH   1  18
TORSDOF 6
ENDMDL
MODEL 6
REMARK VINA RESULT:     -11.7      4.723      7.116
REMARK  Name = 24832041
REMARK  6 active torsions:
REMARK  status: ('A' for Active; 'I' for Inactive)
REMARK    1  A    between atoms: C_1  and  C_18
REMARK    2  A    between atoms: C_4  and  C_7
REMARK    3  A    between atoms: C_10  and  C_15
REMARK    4  A    between atoms: C_18  and  N_19
REMARK    5  A    between atoms: C_18  and  C_23
REMARK    6  A    between atoms: C_23  and  C_26
REMARK                            x       y       z     vdW  Elec       q    Type
REMARK                         _______ _______ _______ _____ _____    ______ ____
ROOT
ATOM      1  C   UNL     1      34.878 -16.695 -22.070  0.00  0.00    -0.042 C 
ATOM      2  C   UNL     1      34.613 -15.783 -21.049  0.00  0.00    -0.006 C 
ATOM      3  C   UNL     1      34.664 -16.334 -23.401  0.00  0.00    -0.006 C 
ATOM      4  C   UNL     1      33.921 -14.148 -22.688  0.00  0.00    -0.000 C 
ATOM      5  C   UNL     1      34.135 -14.510 -21.357  0.00  0.00    -0.000 C 
ATOM      6  C   UNL     1      34.185 -15.061 -23.710  0.00  0.00    -0.000 C 
ENDROOT
BRANCH   4   7
ATOM      7  C   UNL     1      33.425 -12.828 -23.008  0.00  0.00    +0.000 C 
ATOM      8  C   UNL     1      32.460 -12.230 -22.197  0.00  0.00    +0.005 C 
ATOM      9  C   UNL     1      33.912 -12.152 -24.126  0.00  0.00    +0.000 C 
ATOM     10  C   UNL     1      31.981 -10.956 -22.505  0.00  0.00    +0.053 C 
ATOM     11  C   UNL     1      33.434 -10.879 -24.434  0.00  0.00    +0.000 C 
ATOM     12  C   UNL     1      32.469 -10.280 -23.624  0.00  0.00    +0.005 C 
BRANCH  10  15
ATOM     13  O   UNL     1      30.936  -9.098 -21.505  0.00  0.00    -0.270 OA
ATOM     14  N   UNL     1      30.046 -11.159 -21.040  0.00  0.00    -0.325 N 
ATOM     15  C   UNL     1      30.977 -10.331 -21.660  0.00  0.00    +0.243 C 
ATOM     16  H   UNL     1      29.351 -10.772 -20.459  0.00  0.00    +0.145 HD
ATOM     17  H   UNL     1      30.081 -12.133 -21.181  0.00  0.00    +0.145 HD
ENDBRANCH  10  15
ENDBRANCH   4   7
BRANCH   1  18
ATOM     18  C   UNL     1      35.390 -18.056 -21.741  0.00  0.00    -0.038 C 
BRANCH  18  19
ATOM     19  N   UNL     1      36.628 -18.377 -22.484  0.00  0.00    +0.384 N 
ATOM     20  H   UNL     1      36.396 -18.924 -23.313  0.00  0.00    -0.089 HD
ATOM     21  H   UNL     1      37.254 -18.917 -21.884  0.00  0.00    -0.089 HD
ATOM     22  H   UNL     1      37.090 -17.513 -22.766  0.00  0.00    -0.089 HD
ENDBRANCH  18  19
BRANCH  18  23
ATOM     23  C   UNL     1      34.368 -19.203 -21.994  0.00  0.00    +0.011 C 
BRANCH  23  26
ATOM     24  F   UNL     1      31.922 -20.172 -20.937  0.00  0.00    -0.205 F 
ATOM     25  F   UNL     1      36.529 -22.012 -18.633  0.00  0.00    -0.204 F 
ATOM     26  C   UNL     1      34.294 -20.184 -20.847  0.00  0.00    +0.006 C 
ATOM     27  C   UNL     1      33.055 -20.619 -20.378  0.00  0.00    +0.136 C 
ATOM     28  C   UNL     1      35.468 -20.654 -20.259  0.00  0.00    +0.028 C 
ATOM     29  C   UNL     1      35.403 -21.560 -19.199  0.00  0.00    +0.140 C 
ATOM     30  C   UNL     1      32.990 -21.525 -19.318  0.00  0.00    +0.032 C 
ATOM     31  C   UNL     1      34.163 -21.996 -18.730  0.00  0.00    +0.032 C 
ENDBRANCH  23  26
ENDBRANCH  18  23
ENDBRANCH   1  18
TORSDOF 6
ENDMDL
MODEL 7
REMARK VINA RESULT:     -11.7      3.005      3.809
REMARK  Name = 24832041
REMARK  6 active torsions:
REMARK  status: ('A' for Active; 'I' for Inactive)
REMARK    1  A    between atoms: C_1  and  C_18
REMARK    2  A    between atoms: C_4  and  C_7
REMARK    3  A    between atoms: C_10  and  C_15
REMARK    4  A    between atoms: C_18  and  N_19
REMARK    5  A    between atoms: C_18  and  C_23
REMARK    6  A    between atoms: C_23  and  C_26
REMARK                            x       y       z     vdW  Elec       q    Type
REMARK                         _______ _______ _______ _____ _____    ______ ____
ROOT
ATOM      1  C   UNL     1      34.015 -22.199 -18.648  0.00  0.00    -0.042 C 
ATOM      2  C   UNL     1      35.301 -21.804 -19.015  0.00  0.00    -0.006 C 
ATOM      3  C   UNL     1      32.905 -21.605 -19.249  0.00  0.00    -0.006 C 
ATOM      4  C   UNL     1      34.367 -20.220 -20.584  0.00  0.00    -0.000 C 
ATOM      5  C   UNL     1      35.477 -20.814 -19.982  0.00  0.00    -0.000 C 
ATOM      6  C   UNL     1      33.081 -20.616 -20.216  0.00  0.00    -0.000 C 
ENDROOT
BRANCH   4   7
ATOM      7  C   UNL     1      34.550 -19.195 -21.587  0.00  0.00    +0.000 C 
ATOM      8  C   UNL     1      34.487 -17.848 -21.228  0.00  0.00    +0.005 C 
ATOM      9  C   UNL     1      34.790 -19.552 -22.913  0.00  0.00    +0.000 C 
ATOM     10  C   UNL     1      34.663 -16.859 -22.196  0.00  0.00    +0.053 C 
ATOM     11  C   UNL     1      34.966 -18.563 -23.881  0.00  0.00    +0.000 C 
ATOM     12  C   UNL     1      34.903 -17.217 -23.523  0.00  0.00    +0.005 C 
BRANCH  10  15
ATOM     13  O   UNL     1      34.709 -15.094 -20.637  0.00  0.00    -0.270 OA
ATOM     14  N   UNL     1      34.429 -14.522 -22.840  0.00  0.00    -0.325 N 
ATOM     15  C   UNL     1      34.599 -15.455 -21.822  0.00  0.00    +0.243 C 
ATOM     16  H   UNL     1      34.381 -13.562 -22.625  0.00  0.00    +0.145 HD
ATOM     17  H   UNL     1      34.357 -14.820 -23.775  0.00  0.00    +0.145 HD
ENDBRANCH  10  15
ENDBRANCH   4   7
BRANCH   1  18
ATOM     18  C   UNL     1      33.826 -23.257 -17.615  0.00  0.00    -0.038 C 
BRANCH  18  19
ATOM     19  N   UNL     1      32.414 -23.684 -17.511  0.00  0.00    +0.384 N 
ATOM     20  H   UNL     1      31.981 -23.659 -18.435  0.00  0.00    -0.089 HD
ATOM     21  H   UNL     1      31.913 -23.053 -16.885  0.00  0.00    -0.089 HD
ATOM     22  H   UNL     1      32.371 -24.634 -17.142  0.00  0.00    -0.089 HD
ENDBRANCH  18  19
BRANCH  18  23
ATOM     23  C   UNL     1      34.311 -22.855 -16.192  0.00  0.00    +0.011 C 
BRANCH  23  26
ATOM     24  F   UNL     1      36.969 -21.873 -16.065  0.00  0.00    -0.205 F 
ATOM     25  F   UNL     1      36.151 -27.045 -14.484  0.00  0.00    -0.204 F 
ATOM     26  C   UNL     1      35.480 -23.688 -15.715  0.00  0.00    +0.006 C 
ATOM     27  C   UNL     1      36.761 -23.139 -15.679  0.00  0.00    +0.136 C 
ATOM     28  C   UNL     1      35.273 -25.007 -15.311  0.00  0.00    +0.028 C 
ATOM     29  C   UNL     1      36.349 -25.778 -14.872  0.00  0.00    +0.140 C 
ATOM     30  C   UNL     1      37.837 -23.911 -15.239  0.00  0.00    +0.032 C 
ATOM     31  C   UNL     1      37.632 -25.230 -14.835  0.00  0.00    +0.032 C 
ENDBRANCH  23  26
ENDBRANCH  18  23
ENDBRANCH   1  18
TORSDOF 6
ENDMDL
MODEL 8
REMARK VINA RESULT:     -11.6      3.504      4.956
REMARK  Name = 24832041
REMARK  6 active torsions:
REMARK  status: ('A' for Active; 'I' for Inactive)
REMARK    1  A    between atoms: C_1  and  C_18
REMARK    2  A    between atoms: C_4  and  C_7
REMARK    3  A    between atoms: C_10  and  C_15
REMARK    4  A    between atoms: C_18  and  N_19
REMARK    5  A    between atoms: C_18  and  C_23
REMARK    6  A    between atoms: C_23  and  C_26
REMARK                            x       y       z     vdW  Elec       q    Type
REMARK                         _______ _______ _______ _____ _____    ______ ____
ROOT
ATOM      1  C   UNL     1      33.849 -23.570 -16.198  0.00  0.00    -0.042 C 
ATOM      2  C   UNL     1      35.018 -22.919 -16.590  0.00  0.00    -0.006 C 
ATOM      3  C   UNL     1      32.675 -23.396 -16.931  0.00  0.00    -0.006 C 
ATOM      4  C   UNL     1      33.840 -21.919 -18.448  0.00  0.00    -0.000 C 
ATOM      5  C   UNL     1      35.014 -22.094 -17.715  0.00  0.00    -0.000 C 
ATOM      6  C   UNL     1      32.670 -22.570 -18.055  0.00  0.00    -0.000 C 
ENDROOT
BRANCH   4   7
ATOM      7  C   UNL     1      33.836 -21.064 -19.614  0.00  0.00    +0.000 C 
ATOM      8  C   UNL     1      35.027 -20.490 -20.061  0.00  0.00    +0.005 C 
ATOM      9  C   UNL     1      32.644 -20.814 -20.291  0.00  0.00    +0.000 C 
ATOM     10  C   UNL     1      35.023 -19.664 -21.186  0.00  0.00    +0.053 C 
ATOM     11  C   UNL     1      32.641 -19.989 -21.416  0.00  0.00    +0.000 C 
ATOM     12  C   UNL     1      33.830 -19.414 -21.864  0.00  0.00    +0.005 C 
BRANCH  10  15
ATOM     13  O   UNL     1      37.323 -19.186 -21.014  0.00  0.00    -0.270 OA
ATOM     14  N   UNL     1      36.232 -18.368 -22.857  0.00  0.00    -0.325 N 
ATOM     15  C   UNL     1      36.264 -19.067 -21.654  0.00  0.00    +0.243 C 
ATOM     16  H   UNL     1      37.052 -17.949 -23.206  0.00  0.00    +0.145 HD
ATOM     17  H   UNL     1      35.389 -18.292 -23.361  0.00  0.00    +0.145 HD
ENDBRANCH  10  15
ENDBRANCH   4   7
BRANCH   1  18
ATOM     18  C   UNL     1      33.852 -24.453 -14.997  0.00  0.00    -0.038 C 
BRANCH  18  19
ATOM     19  N   UNL     1      32.483 -24.786 -14.549  0.00  0.00    +0.384 N 
ATOM     20  H   UNL     1      31.904 -25.008 -15.360  0.00  0.00    -0.089 HD
ATOM     21  H   UNL     1      32.083 -23.987 -14.055  0.00  0.00    -0.089 HD
ATOM     22  H   UNL     1      32.515 -25.591 -13.925  0.00  0.00    -0.089 HD
ENDBRANCH  18  19
BRANCH  18  23
ATOM     23  C   UNL     1      34.628 -23.872 -13.779  0.00  0.00    +0.011 C 
BRANCH  23  26
ATOM     24  F   UNL     1      36.572 -22.861 -11.979  0.00  0.00    -0.205 F 
ATOM     25  F   UNL     1      37.962 -27.250 -14.933  0.00  0.00    -0.204 F 
ATOM     26  C   UNL     1      35.999 -24.487 -13.611  0.00  0.00    +0.006 C 
ATOM     27  C   UNL     1      36.906 -23.937 -12.706  0.00  0.00    +0.136 C 
ATOM     28  C   UNL     1      36.354 -25.606 -14.363  0.00  0.00    +0.028 C 
ATOM     29  C   UNL     1      37.619 -26.176 -14.211  0.00  0.00    +0.140 C 
ATOM     30  C   UNL     1      38.170 -24.506 -12.553  0.00  0.00    +0.032 C 
ATOM     31  C   UNL     1      38.527 -25.626 -13.305  0.00  0.00    +0.032 C 
ENDBRANCH  23  26
ENDBRANCH  18  23
ENDBRANCH   1  18
TORSDOF 6
ENDMDL
MODEL 9
REMARK VINA RESULT:     -11.5      2.143      3.006
REMARK  Name = 24832041
REMARK  6 active torsions:
REMARK  status: ('A' for Active; 'I' for Inactive)
REMARK    1  A    between atoms: C_1  and  C_18
REMARK    2  A    between atoms: C_4  and  C_7
REMARK    3  A    between atoms: C_10  and  C_15
REMARK    4  A    between atoms: C_18  and  N_19
REMARK    5  A    between atoms: C_18  and  C_23
REMARK    6  A    between atoms: C_23  and  C_26
REMARK                            x       y       z     vdW  Elec       q    Type
REMARK                         _______ _______ _______ _____ _____    ______ ____
ROOT
ATOM      1  C   UNL     1      33.793 -21.812 -19.351  0.00  0.00    -0.042 C 
ATOM      2  C   UNL     1      35.093 -21.452 -19.704  0.00  0.00    -0.006 C 
ATOM      3  C   UNL     1      32.708 -21.109 -19.876  0.00  0.00    -0.006 C 
ATOM      4  C   UNL     1      34.224 -19.685 -21.105  0.00  0.00    -0.000 C 
ATOM      5  C   UNL     1      35.309 -20.388 -20.581  0.00  0.00    -0.000 C 
ATOM      6  C   UNL     1      32.923 -20.046 -20.752  0.00  0.00    -0.000 C 
ENDROOT
BRANCH   4   7
ATOM      7  C   UNL     1      34.448 -18.583 -22.014  0.00  0.00    +0.000 C 
ATOM      8  C   UNL     1      34.400 -17.270 -21.544  0.00  0.00    +0.005 C 
ATOM      9  C   UNL     1      34.711 -18.833 -23.361  0.00  0.00    +0.000 C 
ATOM     10  C   UNL     1      34.616 -16.207 -22.422  0.00  0.00    +0.053 C 
ATOM     11  C   UNL     1      34.927 -17.769 -24.238  0.00  0.00    +0.000 C 
ATOM     12  C   UNL     1      34.880 -16.457 -23.769  0.00  0.00    +0.005 C 
BRANCH  10  15
ATOM     13  O   UNL     1      34.569 -14.584 -20.715  0.00  0.00    -0.270 OA
ATOM     14  N   UNL     1      34.542 -13.815 -22.875  0.00  0.00    -0.325 N 
ATOM     15  C   UNL     1      34.569 -14.838 -21.932  0.00  0.00    +0.243 C 
ATOM     16  H   UNL     1      34.509 -12.875 -22.581  0.00  0.00    +0.145 HD
ATOM     17  H   UNL     1      34.555 -14.029 -23.836  0.00  0.00    +0.145 HD
ENDBRANCH  10  15
ENDBRANCH   4   7
BRANCH   1  18
ATOM     18  C   UNL     1      33.562 -22.949 -18.415  0.00  0.00    -0.038 C 
BRANCH  18  19
ATOM     19  N   UNL     1      33.444 -24.239 -19.128  0.00  0.00    +0.384 N 
ATOM     20  H   UNL     1      33.155 -24.966 -18.473  0.00  0.00    -0.089 HD
ATOM     21  H   UNL     1      34.347 -24.487 -19.534  0.00  0.00    -0.089 HD
ATOM     22  H   UNL     1      32.750 -24.156 -19.870  0.00  0.00    -0.089 HD
ENDBRANCH  18  19
BRANCH  18  23
ATOM     23  C   UNL     1      32.307 -22.785 -17.508  0.00  0.00    +0.011 C 
BRANCH  23  26
ATOM     24  F   UNL     1      30.243 -22.944 -15.571  0.00  0.00    -0.205 F 
ATOM     25  F   UNL     1      35.217 -24.633 -14.048  0.00  0.00    -0.204 F 
ATOM     26  C   UNL     1      32.527 -23.306 -16.106  0.00  0.00    +0.006 C 
ATOM     27  C   UNL     1      31.464 -23.356 -15.205  0.00  0.00    +0.136 C 
ATOM     28  C   UNL     1      33.794 -23.738 -15.717  0.00  0.00    +0.028 C 
ATOM     29  C   UNL     1      34.000 -24.219 -14.424  0.00  0.00    +0.140 C 
ATOM     30  C   UNL     1      31.670 -23.838 -13.911  0.00  0.00    +0.032 C 
ATOM     31  C   UNL     1      32.937 -24.270 -13.521  0.00  0.00    +0.032 C 
ENDBRANCH  23  26
ENDBRANCH  18  23
ENDBRANCH   1  18
TORSDOF 6
ENDMDL
