MODEL 1
REMARK VINA RESULT:     -12.8      0.000      0.000
REMARK  Name = 10389239
REMARK  2 active torsions:
REMARK  status: ('A' for Active; 'I' for Inactive)
REMARK    1  A    between atoms: C_2  and  C_14
REMARK    2  A    between atoms: C_4  and  C_20
REMARK                            x       y       z     vdW  Elec       q    Type
REMARK                         _______ _______ _______ _____ _____    ______ ____
ROOT
ATOM      1  N   UNL     1      31.832 -22.422 -18.043  0.00  0.00    -0.244 NA
ATOM      2  C   UNL     1      33.781 -23.435 -16.315  0.00  0.00    +0.016 C 
ATOM      3  C   UNL     1      34.150 -22.628 -17.385  0.00  0.00    +0.020 C 
ATOM      4  C   UNL     1      33.146 -22.151 -18.213  0.00  0.00    +0.083 C 
ATOM      5  C   UNL     1      32.440 -23.738 -16.107  0.00  0.00    +0.022 C 
ATOM      6  C   UNL     1      31.512 -23.210 -16.992  0.00  0.00    +0.099 C 
ENDROOT
BRANCH   2  14
ATOM      7  O   UNL     1      35.703 -25.498 -11.467  0.00  0.00    -0.270 OA
ATOM      8  N   UNL     1      36.110 -24.030 -15.779  0.00  0.00    -0.316 N 
ATOM      9  N   UNL     1      37.759 -25.798 -12.478  0.00  0.00    -0.300 N 
ATOM     10  C   UNL     1      36.820 -24.560 -14.741  0.00  0.00    +0.031 C 
ATOM     11  C   UNL     1      38.285 -24.781 -14.705  0.00  0.00    +0.063 C 
ATOM     12  C   UNL     1      35.951 -24.838 -13.707  0.00  0.00    +0.064 C 
ATOM     13  C   UNL     1      38.566 -25.903 -13.700  0.00  0.00    +0.096 C 
ATOM     14  C   UNL     1      34.786 -23.958 -15.421  0.00  0.00    +0.048 C 
ATOM     15  C   UNL     1      34.660 -24.448 -14.136  0.00  0.00    +0.020 C 
ATOM     16  C   UNL     1      36.423 -25.402 -12.456  0.00  0.00    +0.247 C 
ATOM     17  H   UNL     1      36.486 -23.747 -16.644  0.00  0.00    +0.152 HD
ATOM     18  H   UNL     1      38.189 -26.021 -11.621  0.00  0.00    +0.150 HD
ENDBRANCH   2  14
BRANCH   4  20
ATOM     19  N   UNL     1      32.686 -20.094 -21.285  0.00  0.00    -0.244 NA
ATOM     20  C   UNL     1      33.453 -21.308 -19.343  0.00  0.00    +0.037 C 
ATOM     21  C   UNL     1      34.751 -20.895 -19.601  0.00  0.00    +0.005 C 
ATOM     22  C   UNL     1      35.024 -20.076 -20.705  0.00  0.00    +0.018 C 
ATOM     23  C   UNL     1      33.947 -19.694 -21.532  0.00  0.00    +0.081 C 
ATOM     24  C   UNL     1      32.464 -20.884 -20.209  0.00  0.00    +0.100 C 
ATOM     25  C   UNL     1      36.329 -19.639 -20.993  0.00  0.00    +0.001 C 
ATOM     26  C   UNL     1      34.219 -18.881 -22.628  0.00  0.00    +0.019 C 
ATOM     27  C   UNL     1      36.573 -18.826 -22.097  0.00  0.00    +0.000 C 
ATOM     28  C   UNL     1      35.516 -18.447 -22.915  0.00  0.00    +0.002 C 
ENDBRANCH   4  20
TORSDOF 2
ENDMDL
MODEL 2
REMARK VINA RESULT:     -12.3      1.486      2.000
REMARK  Name = 10389239
REMARK  2 active torsions:
REMARK  status: ('A' for Active; 'I' for Inactive)
REMARK    1  A    between atoms: C_2  and  C_14
REMARK    2  A    between atoms: C_4  and  C_20
REMARK                            x       y       z     vdW  Elec       q    Type
REMARK                         _______ _______ _______ _____ _____    ______ ____
ROOT
ATOM      1  N   UNL     1      32.876 -22.286 -18.715  0.00  0.00    -0.244 NA
ATOM      2  C   UNL     1      34.423 -23.126 -16.545  0.00  0.00    +0.016 C 
ATOM      3  C   UNL     1      34.963 -22.266 -17.494  0.00  0.00    +0.020 C 
ATOM      4  C   UNL     1      34.155 -21.880 -18.551  0.00  0.00    +0.083 C 
ATOM      5  C   UNL     1      33.112 -23.568 -16.678  0.00  0.00    +0.022 C 
ATOM      6  C   UNL     1      32.387 -23.121 -17.772  0.00  0.00    +0.099 C 
ENDROOT
BRANCH   2  14
ATOM      7  O   UNL     1      37.538 -22.412 -11.935  0.00  0.00    -0.270 OA
ATOM      8  N   UNL     1      35.550 -24.881 -15.232  0.00  0.00    -0.316 N 
ATOM      9  N   UNL     1      37.629 -24.710 -11.712  0.00  0.00    -0.300 N 
ATOM     10  C   UNL     1      36.307 -24.988 -14.102  0.00  0.00    +0.031 C 
ATOM     11  C   UNL     1      36.891 -26.236 -13.556  0.00  0.00    +0.063 C 
ATOM     12  C   UNL     1      36.466 -23.732 -13.555  0.00  0.00    +0.064 C 
ATOM     13  C   UNL     1      37.100 -26.037 -12.051  0.00  0.00    +0.096 C 
ATOM     14  C   UNL     1      35.221 -23.560 -15.423  0.00  0.00    +0.048 C 
ATOM     15  C   UNL     1      35.783 -22.824 -14.398  0.00  0.00    +0.020 C 
ATOM     16  C   UNL     1      37.240 -23.530 -12.345  0.00  0.00    +0.247 C 
ATOM     17  H   UNL     1      35.281 -25.627 -15.815  0.00  0.00    +0.152 HD
ATOM     18  H   UNL     1      38.299 -24.651 -10.994  0.00  0.00    +0.150 HD
ENDBRANCH   2  14
BRANCH   4  20
ATOM     19  N   UNL     1      36.480 -19.724 -20.509  0.00  0.00    -0.244 NA
ATOM     20  C   UNL     1      34.647 -20.989 -19.575  0.00  0.00    +0.037 C 
ATOM     21  C   UNL     1      33.819 -20.534 -20.591  0.00  0.00    +0.005 C 
ATOM     22  C   UNL     1      34.319 -19.669 -21.574  0.00  0.00    +0.018 C 
ATOM     23  C   UNL     1      35.674 -19.284 -21.493  0.00  0.00    +0.081 C 
ATOM     24  C   UNL     1      35.958 -20.557 -19.579  0.00  0.00    +0.100 C 
ATOM     25  C   UNL     1      33.507 -19.191 -22.616  0.00  0.00    +0.001 C 
ATOM     26  C   UNL     1      36.170 -18.426 -22.470  0.00  0.00    +0.019 C 
ATOM     27  C   UNL     1      34.029 -18.333 -23.580  0.00  0.00    +0.000 C 
ATOM     28  C   UNL     1      35.363 -17.950 -23.506  0.00  0.00    +0.002 C 
ENDBRANCH   4  20
TORSDOF 2
ENDMDL
MODEL 3
REMARK VINA RESULT:     -12.1      6.293     12.053
REMARK  Name = 10389239
REMARK  2 active torsions:
REMARK  status: ('A' for Active; 'I' for Inactive)
REMARK    1  A    between atoms: C_2  and  C_14
REMARK    2  A    between atoms: C_4  and  C_20
REMARK                            x       y       z     vdW  Elec       q    Type
REMARK                         _______ _______ _______ _____ _____    ______ ____
ROOT
ATOM      1  N   UNL     1      34.271 -17.861 -24.902  0.00  0.00    -0.244 NA
ATOM      2  C   UNL     1      33.638 -15.182 -24.419  0.00  0.00    +0.016 C 
ATOM      3  C   UNL     1      34.039 -16.003 -23.372  0.00  0.00    +0.020 C 
ATOM      4  C   UNL     1      34.341 -17.324 -23.664  0.00  0.00    +0.083 C 
ATOM      5  C   UNL     1      33.553 -15.697 -25.708  0.00  0.00    +0.022 C 
ATOM      6  C   UNL     1      33.878 -17.031 -25.895  0.00  0.00    +0.099 C 
ENDROOT
BRANCH   2  14
ATOM      7  O   UNL     1      31.555 -10.897 -21.461  0.00  0.00    -0.270 OA
ATOM      8  N   UNL     1      33.524 -12.821 -25.113  0.00  0.00    -0.316 N 
ATOM      9  N   UNL     1      32.338  -9.464 -23.096  0.00  0.00    -0.300 N 
ATOM     10  C   UNL     1      33.119 -11.622 -24.603  0.00  0.00    +0.031 C 
ATOM     11  C   UNL     1      33.151 -10.317 -25.306  0.00  0.00    +0.063 C 
ATOM     12  C   UNL     1      32.647 -11.822 -23.323  0.00  0.00    +0.064 C 
ATOM     13  C   UNL     1      33.218  -9.214 -24.244  0.00  0.00    +0.096 C 
ATOM     14  C   UNL     1      33.312 -13.798 -24.171  0.00  0.00    +0.048 C 
ATOM     15  C   UNL     1      32.762 -13.206 -23.052  0.00  0.00    +0.020 C 
ATOM     16  C   UNL     1      32.134 -10.721 -22.529  0.00  0.00    +0.247 C 
ATOM     17  H   UNL     1      33.907 -12.963 -26.009  0.00  0.00    +0.152 HD
ATOM     18  H   UNL     1      31.864  -8.697 -22.702  0.00  0.00    +0.150 HD
ENDBRANCH   2  14
BRANCH   4  20
ATOM     19  N   UNL     1      36.542 -19.128 -21.258  0.00  0.00    -0.244 NA
ATOM     20  C   UNL     1      34.764 -18.236 -22.628  0.00  0.00    +0.037 C 
ATOM     21  C   UNL     1      33.861 -19.084 -22.004  0.00  0.00    +0.005 C 
ATOM     22  C   UNL     1      34.296 -19.961 -21.000  0.00  0.00    +0.018 C 
ATOM     23  C   UNL     1      35.663 -19.950 -20.654  0.00  0.00    +0.081 C 
ATOM     24  C   UNL     1      36.082 -18.297 -22.222  0.00  0.00    +0.100 C 
ATOM     25  C   UNL     1      33.406 -20.832 -20.348  0.00  0.00    +0.001 C 
ATOM     26  C   UNL     1      36.094 -20.821 -19.658  0.00  0.00    +0.019 C 
ATOM     27  C   UNL     1      33.864 -21.694 -19.355  0.00  0.00    +0.000 C 
ATOM     28  C   UNL     1      35.210 -21.688 -19.010  0.00  0.00    +0.002 C 
ENDBRANCH   4  20
TORSDOF 2
ENDMDL
MODEL 4
REMARK VINA RESULT:     -12.0      4.601     10.535
REMARK  Name = 10389239
REMARK  2 active torsions:
REMARK  status: ('A' for Active; 'I' for Inactive)
REMARK    1  A    between atoms: C_2  and  C_14
REMARK    2  A    between atoms: C_4  and  C_20
REMARK                            x       y       z     vdW  Elec       q    Type
REMARK                         _______ _______ _______ _____ _____    ______ ____
ROOT
ATOM      1  N   UNL     1      36.342 -19.863 -20.727  0.00  0.00    -0.244 NA
ATOM      2  C   UNL     1      34.882 -18.574 -22.732  0.00  0.00    +0.016 C 
ATOM      3  C   UNL     1      34.235 -19.397 -21.819  0.00  0.00    +0.020 C 
ATOM      4  C   UNL     1      35.003 -20.013 -20.844  0.00  0.00    +0.083 C 
ATOM      5  C   UNL     1      36.259 -18.394 -22.647  0.00  0.00    +0.022 C 
ATOM      6  C   UNL     1      36.936 -19.055 -21.634  0.00  0.00    +0.099 C 
ENDROOT
BRANCH   2  14
ATOM      7  O   UNL     1      33.321 -14.196 -25.871  0.00  0.00    -0.270 OA
ATOM      8  N   UNL     1      33.148 -18.551 -24.482  0.00  0.00    -0.316 N 
ATOM      9  N   UNL     1      31.991 -15.630 -27.104  0.00  0.00    -0.300 N 
ATOM     10  C   UNL     1      32.612 -17.676 -25.382  0.00  0.00    +0.031 C 
ATOM     11  C   UNL     1      31.507 -17.961 -26.327  0.00  0.00    +0.063 C 
ATOM     12  C   UNL     1      33.254 -16.462 -25.255  0.00  0.00    +0.064 C 
ATOM     13  C   UNL     1      31.640 -16.996 -27.510  0.00  0.00    +0.096 C 
ATOM     14  C   UNL     1      34.130 -17.907 -23.768  0.00  0.00    +0.048 C 
ATOM     15  C   UNL     1      34.213 -16.607 -24.224  0.00  0.00    +0.020 C 
ATOM     16  C   UNL     1      32.887 -15.326 -26.080  0.00  0.00    +0.247 C 
ATOM     17  H   UNL     1      32.876 -19.489 -24.363  0.00  0.00    +0.152 HD
ATOM     18  H   UNL     1      31.567 -14.882 -27.584  0.00  0.00    +0.150 HD
ENDBRANCH   2  14
BRANCH   4  20
ATOM     19  N   UNL     1      32.437 -22.021 -19.036  0.00  0.00    -0.244 NA
ATOM     20  C   UNL     1      34.400 -20.882 -19.861  0.00  0.00    +0.037 C 
ATOM     21  C   UNL     1      35.144 -21.413 -18.818  0.00  0.00    +0.005 C 
ATOM     22  C   UNL     1      34.536 -22.254 -17.876  0.00  0.00    +0.018 C 
ATOM     23  C   UNL     1      33.161 -22.535 -18.024  0.00  0.00    +0.081 C 
ATOM     24  C   UNL     1      33.061 -21.213 -19.924  0.00  0.00    +0.100 C 
ATOM     25  C   UNL     1      35.262 -22.809 -16.807  0.00  0.00    +0.001 C 
ATOM     26  C   UNL     1      32.559 -23.370 -17.088  0.00  0.00    +0.019 C 
ATOM     27  C   UNL     1      34.633 -23.641 -15.885  0.00  0.00    +0.000 C 
ATOM     28  C   UNL     1      33.280 -23.922 -16.026  0.00  0.00    +0.002 C 
ENDBRANCH   4  20
TORSDOF 2
ENDMDL
MODEL 5
REMARK VINA RESULT:     -11.7      2.887      8.777
REMARK  Name = 10389239
REMARK  2 active torsions:
REMARK  status: ('A' for Active; 'I' for Inactive)
REMARK    1  A    between atoms: C_2  and  C_14
REMARK    2  A    between atoms: C_4  and  C_20
REMARK                            x       y       z     vdW  Elec       q    Type
REMARK                         _______ _______ _______ _____ _____    ______ ____
ROOT
ATOM      1  N   UNL     1      33.369 -23.548 -16.804  0.00  0.00    -0.244 NA
ATOM      2  C   UNL     1      34.187 -21.811 -18.834  0.00  0.00    +0.016 C 
ATOM      3  C   UNL     1      35.023 -22.060 -17.752  0.00  0.00    +0.020 C 
ATOM      4  C   UNL     1      34.570 -22.929 -16.772  0.00  0.00    +0.083 C 
ATOM      5  C   UNL     1      32.942 -22.427 -18.903  0.00  0.00    +0.022 C 
ATOM      6  C   UNL     1      32.584 -23.280 -17.872  0.00  0.00    +0.099 C 
ENDROOT
BRANCH   2  14
ATOM      7  O   UNL     1      37.898 -18.797 -21.768  0.00  0.00    -0.270 OA
ATOM      8  N   UNL     1      33.710 -20.318 -20.735  0.00  0.00    -0.316 N 
ATOM      9  N   UNL     1      36.197 -18.233 -23.227  0.00  0.00    -0.300 N 
ATOM     10  C   UNL     1      34.392 -19.527 -21.614  0.00  0.00    +0.031 C 
ATOM     11  C   UNL     1      33.796 -18.688 -22.680  0.00  0.00    +0.063 C 
ATOM     12  C   UNL     1      35.739 -19.616 -21.334  0.00  0.00    +0.064 C 
ATOM     13  C   UNL     1      34.856 -18.488 -23.768  0.00  0.00    +0.096 C 
ATOM     14  C   UNL     1      34.608 -20.914 -19.884  0.00  0.00    +0.048 C 
ATOM     15  C   UNL     1      35.876 -20.490 -20.230  0.00  0.00    +0.020 C 
ATOM     16  C   UNL     1      36.719 -18.870 -22.102  0.00  0.00    +0.247 C 
ATOM     17  H   UNL     1      32.733 -20.443 -20.715  0.00  0.00    +0.152 HD
ATOM     18  H   UNL     1      36.762 -17.572 -23.688  0.00  0.00    +0.150 HD
ENDBRANCH   2  14
BRANCH   4  20
ATOM     19  N   UNL     1      37.578 -23.546 -14.660  0.00  0.00    -0.244 NA
ATOM     20  C   UNL     1      35.383 -23.236 -15.619  0.00  0.00    +0.037 C 
ATOM     21  C   UNL     1      34.808 -23.515 -14.388  0.00  0.00    +0.005 C 
ATOM     22  C   UNL     1      35.619 -23.810 -13.283  0.00  0.00    +0.018 C 
ATOM     23  C   UNL     1      37.017 -23.816 -13.466  0.00  0.00    +0.081 C 
ATOM     24  C   UNL     1      36.761 -23.266 -15.701  0.00  0.00    +0.100 C 
ATOM     25  C   UNL     1      35.068 -24.096 -12.021  0.00  0.00    +0.001 C 
ATOM     26  C   UNL     1      37.821 -24.109 -12.369  0.00  0.00    +0.019 C 
ATOM     27  C   UNL     1      35.896 -24.387 -10.940  0.00  0.00    +0.000 C 
ATOM     28  C   UNL     1      37.274 -24.393 -11.115  0.00  0.00    +0.002 C 
ENDBRANCH   4  20
TORSDOF 2
ENDMDL
MODEL 6
REMARK VINA RESULT:     -11.4      5.276      8.836
REMARK  Name = 10389239
REMARK  2 active torsions:
REMARK  status: ('A' for Active; 'I' for Inactive)
REMARK    1  A    between atoms: C_2  and  C_14
REMARK    2  A    between atoms: C_4  and  C_20
REMARK                            x       y       z     vdW  Elec       q    Type
REMARK                         _______ _______ _______ _____ _____    ______ ____
ROOT
ATOM      1  N   UNL     1      33.592 -16.811 -25.974  0.00  0.00    -0.244 NA
ATOM      2  C   UNL     1      33.940 -18.333 -23.656  0.00  0.00    +0.016 C 
ATOM      3  C   UNL     1      33.842 -16.949 -23.573  0.00  0.00    +0.020 C 
ATOM      4  C   UNL     1      33.671 -16.240 -24.751  0.00  0.00    +0.083 C 
ATOM      5  C   UNL     1      33.865 -18.958 -24.896  0.00  0.00    +0.022 C 
ATOM      6  C   UNL     1      33.691 -18.159 -26.015  0.00  0.00    +0.099 C 
ENDROOT
BRANCH   2  14
ATOM      7  O   UNL     1      32.234 -21.349 -19.246  0.00  0.00    -0.270 OA
ATOM      8  N   UNL     1      35.358 -19.323 -21.902  0.00  0.00    -0.316 N 
ATOM      9  N   UNL     1      34.452 -21.779 -18.757  0.00  0.00    -0.300 N 
ATOM     10  C   UNL     1      35.218 -20.096 -20.786  0.00  0.00    +0.031 C 
ATOM     11  C   UNL     1      36.307 -20.523 -19.876  0.00  0.00    +0.063 C 
ATOM     12  C   UNL     1      33.883 -20.401 -20.624  0.00  0.00    +0.064 C 
ATOM     13  C   UNL     1      35.857 -21.811 -19.178  0.00  0.00    +0.096 C 
ATOM     14  C   UNL     1      34.119 -19.121 -22.460  0.00  0.00    +0.048 C 
ATOM     15  C   UNL     1      33.184 -19.775 -21.683  0.00  0.00    +0.020 C 
ATOM     16  C   UNL     1      33.425 -21.207 -19.508  0.00  0.00    +0.247 C 
ATOM     17  H   UNL     1      36.208 -18.968 -22.251  0.00  0.00    +0.152 HD
ATOM     18  H   UNL     1      34.220 -22.186 -17.891  0.00  0.00    +0.150 HD
ENDBRANCH   2  14
BRANCH   4  20
ATOM     19  N   UNL     1      33.821 -12.715 -23.555  0.00  0.00    -0.244 NA
ATOM     20  C   UNL     1      33.561 -14.801 -24.743  0.00  0.00    +0.037 C 
ATOM     21  C   UNL     1      33.109 -14.108 -25.856  0.00  0.00    +0.005 C 
ATOM     22  C   UNL     1      33.011 -12.710 -25.824  0.00  0.00    +0.018 C 
ATOM     23  C   UNL     1      33.382 -12.044 -24.637  0.00  0.00    +0.081 C 
ATOM     24  C   UNL     1      33.901 -14.063 -23.626  0.00  0.00    +0.100 C 
ATOM     25  C   UNL     1      32.558 -11.978 -26.936  0.00  0.00    +0.001 C 
ATOM     26  C   UNL     1      33.285 -10.657 -24.606  0.00  0.00    +0.019 C 
ATOM     27  C   UNL     1      32.470 -10.590 -26.877  0.00  0.00    +0.000 C 
ATOM     28  C   UNL     1      32.834  -9.929 -25.710  0.00  0.00    +0.002 C 
ENDBRANCH   4  20
TORSDOF 2
ENDMDL
MODEL 7
REMARK VINA RESULT:     -11.4      2.647      8.428
REMARK  Name = 10389239
REMARK  2 active torsions:
REMARK  status: ('A' for Active; 'I' for Inactive)
REMARK    1  A    between atoms: C_2  and  C_14
REMARK    2  A    between atoms: C_4  and  C_20
REMARK                            x       y       z     vdW  Elec       q    Type
REMARK                         _______ _______ _______ _____ _____    ______ ____
ROOT
ATOM      1  N   UNL     1      32.522 -23.384 -16.627  0.00  0.00    -0.244 NA
ATOM      2  C   UNL     1      33.620 -21.795 -18.646  0.00  0.00    +0.016 C 
ATOM      3  C   UNL     1      34.441 -22.344 -17.668  0.00  0.00    +0.020 C 
ATOM      4  C   UNL     1      33.847 -23.125 -16.688  0.00  0.00    +0.083 C 
ATOM      5  C   UNL     1      32.251 -22.037 -18.617  0.00  0.00    +0.022 C 
ATOM      6  C   UNL     1      31.757 -22.832 -17.595  0.00  0.00    +0.099 C 
ENDROOT
BRANCH   2  14
ATOM      7  O   UNL     1      37.734 -19.059 -21.301  0.00  0.00    -0.270 OA
ATOM      8  N   UNL     1      33.410 -20.408 -20.671  0.00  0.00    -0.316 N 
ATOM      9  N   UNL     1      36.229 -18.541 -22.976  0.00  0.00    -0.300 N 
ATOM     10  C   UNL     1      34.212 -19.689 -21.509  0.00  0.00    +0.031 C 
ATOM     11  C   UNL     1      33.768 -18.901 -22.683  0.00  0.00    +0.063 C 
ATOM     12  C   UNL     1      35.516 -19.795 -21.072  0.00  0.00    +0.064 C 
ATOM     13  C   UNL     1      34.951 -18.794 -23.651  0.00  0.00    +0.096 C 
ATOM     14  C   UNL     1      34.186 -20.974 -19.690  0.00  0.00    +0.048 C 
ATOM     15  C   UNL     1      35.498 -20.604 -19.911  0.00  0.00    +0.020 C 
ATOM     16  C   UNL     1      36.599 -19.122 -21.763  0.00  0.00    +0.247 C 
ATOM     17  H   UNL     1      32.434 -20.506 -20.756  0.00  0.00    +0.152 HD
ATOM     18  H   UNL     1      36.864 -17.924 -23.405  0.00  0.00    +0.150 HD
ENDBRANCH   2  14
BRANCH   4  20
ATOM     19  N   UNL     1      34.737 -24.723 -13.442  0.00  0.00    -0.244 NA
ATOM     20  C   UNL     1      34.635 -23.729 -15.641  0.00  0.00    +0.037 C 
ATOM     21  C   UNL     1      36.004 -23.905 -15.781  0.00  0.00    +0.005 C 
ATOM     22  C   UNL     1      36.748 -24.494 -14.749  0.00  0.00    +0.018 C 
ATOM     23  C   UNL     1      36.065 -24.893 -13.581  0.00  0.00    +0.081 C 
ATOM     24  C   UNL     1      34.055 -24.151 -14.461  0.00  0.00    +0.100 C 
ATOM     25  C   UNL     1      38.136 -24.688 -14.861  0.00  0.00    +0.001 C 
ATOM     26  C   UNL     1      36.804 -25.478 -12.557  0.00  0.00    +0.019 C 
ATOM     27  C   UNL     1      38.850 -25.276 -13.820  0.00  0.00    +0.000 C 
ATOM     28  C   UNL     1      38.183 -25.671 -12.667  0.00  0.00    +0.002 C 
ENDBRANCH   4  20
TORSDOF 2
ENDMDL
MODEL 8
REMARK VINA RESULT:     -11.3      8.724     13.500
REMARK  Name = 10389239
REMARK  2 active torsions:
REMARK  status: ('A' for Active; 'I' for Inactive)
REMARK    1  A    between atoms: C_2  and  C_14
REMARK    2  A    between atoms: C_4  and  C_20
REMARK                            x       y       z     vdW  Elec       q    Type
REMARK                         _______ _______ _______ _____ _____    ______ ____
ROOT
ATOM      1  N   UNL     1      33.323 -13.005 -26.254  0.00  0.00    -0.244 NA
ATOM      2  C   UNL     1      32.767 -11.257 -24.145  0.00  0.00    +0.016 C 
ATOM      3  C   UNL     1      32.984 -12.607 -23.893  0.00  0.00    +0.020 C 
ATOM      4  C   UNL     1      33.256 -13.432 -24.972  0.00  0.00    +0.083 C 
ATOM      5  C   UNL     1      32.826 -10.779 -25.450  0.00  0.00    +0.022 C 
ATOM      6  C   UNL     1      33.106 -11.687 -26.459  0.00  0.00    +0.099 C 
ENDROOT
BRANCH   2  14
ATOM      7  O   UNL     1      30.470  -9.743 -19.258  0.00  0.00    -0.270 OA
ATOM      8  N   UNL     1      32.896  -9.044 -23.071  0.00  0.00    -0.316 N 
ATOM      9  N   UNL     1      31.584  -7.726 -19.426  0.00  0.00    -0.300 N 
ATOM     10  C   UNL     1      32.480  -8.436 -21.922  0.00  0.00    +0.031 C 
ATOM     11  C   UNL     1      32.696  -7.017 -21.555  0.00  0.00    +0.063 C 
ATOM     12  C   UNL     1      31.797  -9.358 -21.157  0.00  0.00    +0.064 C 
ATOM     13  C   UNL     1      32.650  -6.915 -20.027  0.00  0.00    +0.096 C 
ATOM     14  C   UNL     1      32.481 -10.353 -23.057  0.00  0.00    +0.048 C 
ATOM     15  C   UNL     1      31.790 -10.573 -21.882  0.00  0.00    +0.020 C 
ATOM     16  C   UNL     1      31.223  -8.996 -19.874  0.00  0.00    +0.247 C 
ATOM     17  H   UNL     1      33.410  -8.614 -23.793  0.00  0.00    +0.152 HD
ATOM     18  H   UNL     1      31.095  -7.350 -18.659  0.00  0.00    +0.150 HD
ENDBRANCH   2  14
BRANCH   4  20
ATOM     19  N   UNL     1      33.246 -17.104 -25.600  0.00  0.00    -0.244 NA
ATOM     20  C   UNL     1      33.492 -14.844 -24.787  0.00  0.00    +0.037 C 
ATOM     21  C   UNL     1      34.163 -15.321 -23.671  0.00  0.00    +0.005 C 
ATOM     22  C   UNL     1      34.380 -16.696 -23.514  0.00  0.00    +0.018 C 
ATOM     23  C   UNL     1      33.898 -17.564 -24.516  0.00  0.00    +0.081 C 
ATOM     24  C   UNL     1      33.057 -15.770 -25.715  0.00  0.00    +0.100 C 
ATOM     25  C   UNL     1      35.057 -17.211 -22.395  0.00  0.00    +0.001 C 
ATOM     26  C   UNL     1      34.114 -18.930 -24.359  0.00  0.00    +0.019 C 
ATOM     27  C   UNL     1      35.259 -18.583 -22.263  0.00  0.00    +0.000 C 
ATOM     28  C   UNL     1      34.787 -19.443 -23.247  0.00  0.00    +0.002 C 
ENDBRANCH   4  20
TORSDOF 2
ENDMDL
MODEL 9
REMARK VINA RESULT:     -11.3      4.125      9.271
REMARK  Name = 10389239
REMARK  2 active torsions:
REMARK  status: ('A' for Active; 'I' for Inactive)
REMARK    1  A    between atoms: C_2  and  C_14
REMARK    2  A    between atoms: C_4  and  C_20
REMARK                            x       y       z     vdW  Elec       q    Type
REMARK                         _______ _______ _______ _____ _____    ______ ____
ROOT
ATOM      1  N   UNL     1      35.351 -22.322 -18.270  0.00  0.00    -0.244 NA
ATOM      2  C   UNL     1      34.935 -20.457 -20.309  0.00  0.00    +0.016 C 
ATOM      3  C   UNL     1      33.859 -20.926 -19.564  0.00  0.00    +0.020 C 
ATOM      4  C   UNL     1      34.118 -21.851 -18.565  0.00  0.00    +0.083 C 
ATOM      5  C   UNL     1      36.218 -20.918 -20.037  0.00  0.00    +0.022 C 
ATOM      6  C   UNL     1      36.371 -21.842 -19.015  0.00  0.00    +0.099 C 
ENDROOT
BRANCH   2  14
ATOM      7  O   UNL     1      34.848 -15.324 -22.568  0.00  0.00    -0.270 OA
ATOM      8  N   UNL     1      34.201 -19.851 -22.581  0.00  0.00    -0.316 N 
ATOM      9  N   UNL     1      34.284 -16.288 -24.591  0.00  0.00    -0.300 N 
ATOM     10  C   UNL     1      34.111 -18.739 -23.367  0.00  0.00    +0.031 C 
ATOM     11  C   UNL     1      33.575 -18.685 -24.748  0.00  0.00    +0.063 C 
ATOM     12  C   UNL     1      34.581 -17.655 -22.655  0.00  0.00    +0.064 C 
ATOM     13  C   UNL     1      34.206 -17.477 -25.449  0.00  0.00    +0.096 C 
ATOM     14  C   UNL     1      34.722 -19.493 -21.362  0.00  0.00    +0.048 C 
ATOM     15  C   UNL     1      34.962 -18.133 -21.379  0.00  0.00    +0.020 C 
ATOM     16  C   UNL     1      34.598 -16.324 -23.233  0.00  0.00    +0.247 C 
ATOM     17  H   UNL     1      33.937 -20.762 -22.845  0.00  0.00    +0.152 HD
ATOM     18  H   UNL     1      34.104 -15.411 -25.000  0.00  0.00    +0.150 HD
ENDBRANCH   2  14
BRANCH   4  20
ATOM     19  N   UNL     1      30.683 -22.622 -17.344  0.00  0.00    -0.244 NA
ATOM     20  C   UNL     1      33.052 -22.383 -17.751  0.00  0.00    +0.037 C 
ATOM     21  C   UNL     1      33.320 -23.145 -16.623  0.00  0.00    +0.005 C 
ATOM     22  C   UNL     1      32.267 -23.651 -15.849  0.00  0.00    +0.018 C 
ATOM     23  C   UNL     1      30.946 -23.361 -16.251  0.00  0.00    +0.081 C 
ATOM     24  C   UNL     1      31.727 -22.151 -18.065  0.00  0.00    +0.100 C 
ATOM     25  C   UNL     1      32.505 -24.427 -14.701  0.00  0.00    +0.001 C 
ATOM     26  C   UNL     1      29.901 -23.864 -15.481  0.00  0.00    +0.019 C 
ATOM     27  C   UNL     1      31.440 -24.917 -13.949  0.00  0.00    +0.000 C 
ATOM     28  C   UNL     1      30.137 -24.635 -14.340  0.00  0.00    +0.002 C 
ENDBRANCH   4  20
TORSDOF 2
ENDMDL
