MODEL 1
REMARK VINA RESULT:     -11.7      0.000      0.000
REMARK  Name = 46937091
REMARK  8 active torsions:
REMARK  status: ('A' for Active; 'I' for Inactive)
REMARK    1  A    between atoms: C_1  and  C_4
REMARK    2  A    between atoms: C_1  and  C_18
REMARK    3  A    between atoms: C_10  and  C_12
REMARK    4  A    between atoms: C_18  and  C_19
REMARK    5  A    between atoms: C_19  and  N_20
REMARK    6  A    between atoms: C_19  and  C_30
REMARK    7  A    between atoms: C_24  and  C_27
REMARK    8  A    between atoms: C_30  and  O_32
REMARK                            x       y       z     vdW  Elec       q    Type
REMARK                         _______ _______ _______ _____ _____    ______ ____
ROOT
ATOM      1  C   UNL     1      34.263 -24.592 -14.555  0.00  0.00    +0.031 C 
ENDROOT
BRANCH   1   4
ATOM      2  O   UNL     1      33.344 -22.965 -16.976  0.00  0.00    -0.425 OA
ATOM      3  N   UNL     1      31.220 -22.500 -17.612  0.00  0.00    -0.368 NA
ATOM      4  C   UNL     1      32.840 -24.298 -14.957  0.00  0.00    +0.014 C 
ATOM      5  C   UNL     1      32.499 -23.547 -16.076  0.00  0.00    +0.170 C 
ATOM      6  C   UNL     1      31.766 -24.780 -14.201  0.00  0.00    -0.005 C 
ATOM      7  C   UNL     1      31.199 -23.261 -16.469  0.00  0.00    +0.151 C 
ATOM      8  C   UNL     1      30.440 -24.513 -14.562  0.00  0.00    -0.019 C 
ATOM      9  C   UNL     1      30.135 -23.752 -15.700  0.00  0.00    +0.088 C 
ATOM     10  C   UNL     1      32.503 -22.360 -17.860  0.00  0.00    +0.282 C 
BRANCH  10  12
ATOM     11 CL   UNL     1      35.179 -19.454 -22.306  0.00  0.00    -0.082 Cl
ATOM     12  C   UNL     1      33.151 -21.658 -18.934  0.00  0.00    +0.066 C 
ATOM     13  C   UNL     1      32.405 -20.834 -19.777  0.00  0.00    +0.007 C 
ATOM     14  C   UNL     1      34.523 -21.800 -19.134  0.00  0.00    +0.007 C 
ATOM     15  C   UNL     1      33.032 -20.152 -20.820  0.00  0.00    +0.012 C 
ATOM     16  C   UNL     1      35.151 -21.119 -20.177  0.00  0.00    +0.012 C 
ATOM     17  C   UNL     1      34.405 -20.295 -21.019  0.00  0.00    +0.058 C 
ENDBRANCH  10  12
ENDBRANCH   1   4
BRANCH   1  18
ATOM     18  C   UNL     1      34.592 -24.256 -13.091  0.00  0.00    +0.023 C 
BRANCH  18  19
ATOM     19  C   UNL     1      35.936 -23.511 -12.872  0.00  0.00    +0.087 C 
BRANCH  19  20
ATOM     20  N   UNL     1      37.013 -23.936 -13.862  0.00  0.00    -0.246 NA
ATOM     21  N   UNL     1      38.303 -23.914 -15.670  0.00  0.00    -0.251 NA
ATOM     22  C   UNL     1      37.842 -25.015 -13.742  0.00  0.00    +0.125 C 
ATOM     23  C   UNL     1      37.326 -23.306 -15.034  0.00  0.00    +0.201 C 
ATOM     24  C   UNL     1      38.629 -24.981 -14.870  0.00  0.00    +0.124 C 
BRANCH  24  27
ATOM     25  O   UNL     1      40.165 -25.968 -16.358  0.00  0.00    -0.269 OA
ATOM     26  N   UNL     1      40.140 -26.775 -14.212  0.00  0.00    -0.324 N 
ATOM     27  C   UNL     1      39.662 -25.910 -15.208  0.00  0.00    +0.257 C 
ATOM     28  H   UNL     1      40.851 -27.424 -14.422  0.00  0.00    +0.145 HD
ATOM     29  H   UNL     1      39.765 -26.733 -13.303  0.00  0.00    +0.145 HD
ENDBRANCH  24  27
ENDBRANCH  19  20
BRANCH  19  30
ATOM     30  C   UNL     1      36.391 -23.634 -11.393  0.00  0.00    +0.125 C 
ATOM     31  C   UNL     1      35.316 -24.183 -10.461  0.00  0.00    +0.033 C 
BRANCH  30  32
ATOM     32  O   UNL     1      36.847 -22.377 -10.897  0.00  0.00    -0.383 OA
ATOM     33  H   UNL     1      36.087 -21.791 -10.757  0.00  0.00    +0.210 HD
ENDBRANCH  30  32
ENDBRANCH  19  30
ENDBRANCH  18  19
ENDBRANCH   1  18
TORSDOF 8
ENDMDL
MODEL 2
REMARK VINA RESULT:     -11.6      3.480      7.256
REMARK  Name = 46937091
REMARK  8 active torsions:
REMARK  status: ('A' for Active; 'I' for Inactive)
REMARK    1  A    between atoms: C_1  and  C_4
REMARK    2  A    between atoms: C_1  and  C_18
REMARK    3  A    between atoms: C_10  and  C_12
REMARK    4  A    between atoms: C_18  and  C_19
REMARK    5  A    between atoms: C_19  and  N_20
REMARK    6  A    between atoms: C_19  and  C_30
REMARK    7  A    between atoms: C_24  and  C_27
REMARK    8  A    between atoms: C_30  and  O_32
REMARK                            x       y       z     vdW  Elec       q    Type
REMARK                         _______ _______ _______ _____ _____    ______ ____
ROOT
ATOM      1  C   UNL     1      32.814 -23.552 -17.167  0.00  0.00    +0.031 C 
ENDROOT
BRANCH   1   4
ATOM      2  O   UNL     1      34.453 -21.625 -18.884  0.00  0.00    -0.425 OA
ATOM      3  N   UNL     1      36.594 -20.955 -18.564  0.00  0.00    -0.368 NA
ATOM      4  C   UNL     1      34.239 -23.122 -16.930  0.00  0.00    +0.014 C 
ATOM      5  C   UNL     1      34.921 -22.238 -17.759  0.00  0.00    +0.170 C 
ATOM      6  C   UNL     1      34.963 -23.606 -15.835  0.00  0.00    -0.005 C 
ATOM      7  C   UNL     1      36.232 -21.826 -17.565  0.00  0.00    +0.151 C 
ATOM      8  C   UNL     1      36.287 -23.215 -15.604  0.00  0.00    -0.019 C 
ATOM      9  C   UNL     1      36.943 -22.320 -16.463  0.00  0.00    +0.088 C 
ATOM     10  C   UNL     1      35.510 -20.877 -19.305  0.00  0.00    +0.282 C 
BRANCH  10  12
ATOM     11 CL   UNL     1      34.560 -17.715 -24.252  0.00  0.00    -0.082 Cl
ATOM     12  C   UNL     1      35.280 -20.113 -20.500  0.00  0.00    +0.066 C 
ATOM     13  C   UNL     1      36.326 -19.397 -21.082  0.00  0.00    +0.007 C 
ATOM     14  C   UNL     1      34.012 -20.088 -21.079  0.00  0.00    +0.007 C 
ATOM     15  C   UNL     1      36.103 -18.656 -22.242  0.00  0.00    +0.012 C 
ATOM     16  C   UNL     1      33.789 -19.346 -22.239  0.00  0.00    +0.012 C 
ATOM     17  C   UNL     1      34.835 -18.630 -22.821  0.00  0.00    +0.058 C 
ENDBRANCH  10  12
ENDBRANCH   1   4
BRANCH   1  18
ATOM     18  C   UNL     1      31.838 -23.167 -16.042  0.00  0.00    +0.023 C 
BRANCH  18  19
ATOM     19  C   UNL     1      30.801 -24.259 -15.666  0.00  0.00    +0.087 C 
BRANCH  19  20
ATOM     20  N   UNL     1      29.393 -23.922 -16.142  0.00  0.00    -0.246 NA
ATOM     21  N   UNL     1      27.424 -24.155 -17.141  0.00  0.00    -0.251 NA
ATOM     22  C   UNL     1      28.713 -22.764 -15.900  0.00  0.00    +0.125 C 
ATOM     23  C   UNL     1      28.581 -24.728 -16.890  0.00  0.00    +0.201 C 
ATOM     24  C   UNL     1      27.499 -22.930 -16.526  0.00  0.00    +0.124 C 
BRANCH  24  27
ATOM     25  O   UNL     1      26.223 -21.236 -17.550  0.00  0.00    -0.269 OA
ATOM     26  N   UNL     1      25.569 -21.900 -15.455  0.00  0.00    -0.324 N 
ATOM     27  C   UNL     1      26.429 -21.983 -16.561  0.00  0.00    +0.257 C 
ATOM     28  H   UNL     1      24.825 -21.255 -15.457  0.00  0.00    +0.145 HD
ATOM     29  H   UNL     1      25.710 -22.487 -14.678  0.00  0.00    +0.145 HD
ENDBRANCH  24  27
ENDBRANCH  19  20
BRANCH  19  30
ATOM     30  C   UNL     1      30.868 -24.572 -14.147  0.00  0.00    +0.125 C 
ATOM     31  C   UNL     1      31.075 -23.340 -13.272  0.00  0.00    +0.033 C 
BRANCH  30  32
ATOM     32  O   UNL     1      31.894 -25.523 -13.871  0.00  0.00    -0.383 OA
ATOM     33  H   UNL     1      32.657 -25.350 -14.444  0.00  0.00    +0.210 HD
ENDBRANCH  30  32
ENDBRANCH  19  30
ENDBRANCH  18  19
ENDBRANCH   1  18
TORSDOF 8
ENDMDL
MODEL 3
REMARK VINA RESULT:     -10.9      1.622      3.350
REMARK  Name = 46937091
REMARK  8 active torsions:
REMARK  status: ('A' for Active; 'I' for Inactive)
REMARK    1  A    between atoms: C_1  and  C_4
REMARK    2  A    between atoms: C_1  and  C_18
REMARK    3  A    between atoms: C_10  and  C_12
REMARK    4  A    between atoms: C_18  and  C_19
REMARK    5  A    between atoms: C_19  and  N_20
REMARK    6  A    between atoms: C_19  and  C_30
REMARK    7  A    between atoms: C_24  and  C_27
REMARK    8  A    between atoms: C_30  and  O_32
REMARK                            x       y       z     vdW  Elec       q    Type
REMARK                         _______ _______ _______ _____ _____    ______ ____
ROOT
ATOM      1  C   UNL     1      33.724 -24.642 -14.955  0.00  0.00    +0.031 C 
ENDROOT
BRANCH   1   4
ATOM      2  O   UNL     1      33.102 -22.810 -17.324  0.00  0.00    -0.425 OA
ATOM      3  N   UNL     1      31.075 -22.063 -18.008  0.00  0.00    -0.368 NA
ATOM      4  C   UNL     1      32.364 -24.160 -15.390  0.00  0.00    +0.014 C 
ATOM      5  C   UNL     1      32.158 -23.324 -16.482  0.00  0.00    +0.170 C 
ATOM      6  C   UNL     1      31.211 -24.540 -14.694  0.00  0.00    -0.005 C 
ATOM      7  C   UNL     1      30.919 -22.865 -16.904  0.00  0.00    +0.151 C 
ATOM      8  C   UNL     1      29.941 -24.099 -15.087  0.00  0.00    -0.019 C 
ATOM      9  C   UNL     1      29.774 -23.256 -16.196  0.00  0.00    +0.088 C 
ATOM     10  C   UNL     1      32.375 -22.070 -18.206  0.00  0.00    +0.282 C 
BRANCH  10  12
ATOM     11 CL   UNL     1      35.551 -19.319 -22.415  0.00  0.00    -0.082 Cl
ATOM     12  C   UNL     1      33.143 -21.405 -19.223  0.00  0.00    +0.066 C 
ATOM     13  C   UNL     1      32.516 -20.529 -20.108  0.00  0.00    +0.007 C 
ATOM     14  C   UNL     1      34.514 -21.636 -19.324  0.00  0.00    +0.007 C 
ATOM     15  C   UNL     1      33.261 -19.883 -21.095  0.00  0.00    +0.012 C 
ATOM     16  C   UNL     1      35.259 -20.991 -20.311  0.00  0.00    +0.012 C 
ATOM     17  C   UNL     1      34.632 -20.114 -21.197  0.00  0.00    +0.058 C 
ENDBRANCH  10  12
ENDBRANCH   1   4
BRANCH   1  18
ATOM     18  C   UNL     1      34.887 -24.131 -15.824  0.00  0.00    +0.023 C 
BRANCH  18  19
ATOM     19  C   UNL     1      36.302 -24.359 -15.230  0.00  0.00    +0.087 C 
BRANCH  19  20
ATOM     20  N   UNL     1      36.271 -24.680 -13.741  0.00  0.00    -0.246 NA
ATOM     21  N   UNL     1      36.513 -25.827 -11.855  0.00  0.00    -0.251 NA
ATOM     22  C   UNL     1      35.853 -23.849 -12.742  0.00  0.00    +0.125 C 
ATOM     23  C   UNL     1      36.658 -25.856 -13.161  0.00  0.00    +0.201 C 
ATOM     24  C   UNL     1      36.011 -24.578 -11.586  0.00  0.00    +0.124 C 
BRANCH  24  27
ATOM     25  O   UNL     1      34.915 -24.760  -9.510  0.00  0.00    -0.269 OA
ATOM     26  N   UNL     1      36.332 -22.978  -9.778  0.00  0.00    -0.324 N 
ATOM     27  C   UNL     1      35.707 -24.137 -10.260  0.00  0.00    +0.257 C 
ATOM     28  H   UNL     1      36.139 -22.656  -8.867  0.00  0.00    +0.145 HD
ATOM     29  H   UNL     1      36.966 -22.487 -10.349  0.00  0.00    +0.145 HD
ENDBRANCH  24  27
ENDBRANCH  19  20
BRANCH  19  30
ATOM     30  C   UNL     1      37.234 -23.165 -15.572  0.00  0.00    +0.125 C 
ATOM     31  C   UNL     1      36.655 -22.209 -16.610  0.00  0.00    +0.033 C 
BRANCH  30  32
ATOM     32  O   UNL     1      38.507 -23.627 -16.016  0.00  0.00    -0.383 OA
ATOM     33  H   UNL     1      39.110 -22.873 -16.109  0.00  0.00    +0.210 HD
ENDBRANCH  30  32
ENDBRANCH  19  30
ENDBRANCH  18  19
ENDBRANCH   1  18
TORSDOF 8
ENDMDL
MODEL 4
REMARK VINA RESULT:     -10.9      7.051     11.060
REMARK  Name = 46937091
REMARK  8 active torsions:
REMARK  status: ('A' for Active; 'I' for Inactive)
REMARK    1  A    between atoms: C_1  and  C_4
REMARK    2  A    between atoms: C_1  and  C_18
REMARK    3  A    between atoms: C_10  and  C_12
REMARK    4  A    between atoms: C_18  and  C_19
REMARK    5  A    between atoms: C_19  and  N_20
REMARK    6  A    between atoms: C_19  and  C_30
REMARK    7  A    between atoms: C_24  and  C_27
REMARK    8  A    between atoms: C_30  and  O_32
REMARK                            x       y       z     vdW  Elec       q    Type
REMARK                         _______ _______ _______ _____ _____    ______ ____
ROOT
ATOM      1  C   UNL     1      34.162 -17.718 -24.226  0.00  0.00    +0.031 C 
ENDROOT
BRANCH   1   4
ATOM      2  O   UNL     1      33.618 -14.916 -25.322  0.00  0.00    -0.425 OA
ATOM      3  N   UNL     1      32.235 -14.332 -27.020  0.00  0.00    -0.368 NA
ATOM      4  C   UNL     1      33.237 -17.357 -25.359  0.00  0.00    +0.014 C 
ATOM      5  C   UNL     1      33.039 -16.055 -25.803  0.00  0.00    +0.170 C 
ATOM      6  C   UNL     1      32.511 -18.343 -26.036  0.00  0.00    -0.005 C 
ATOM      7  C   UNL     1      32.194 -15.694 -26.843  0.00  0.00    +0.151 C 
ATOM      8  C   UNL     1      31.647 -18.022 -27.090  0.00  0.00    -0.019 C 
ATOM      9  C   UNL     1      31.475 -16.695 -27.511  0.00  0.00    +0.088 C 
ATOM     10  C   UNL     1      33.086 -13.933 -26.101  0.00  0.00    +0.282 C 
BRANCH  10  12
ATOM     11 CL   UNL     1      34.958  -8.429 -24.848  0.00  0.00    -0.082 Cl
ATOM     12  C   UNL     1      33.538 -12.603 -25.797  0.00  0.00    +0.066 C 
ATOM     13  C   UNL     1      33.963 -11.760 -26.824  0.00  0.00    +0.007 C 
ATOM     14  C   UNL     1      33.552 -12.155 -24.477  0.00  0.00    +0.007 C 
ATOM     15  C   UNL     1      34.403 -10.470 -26.531  0.00  0.00    +0.012 C 
ATOM     16  C   UNL     1      33.991 -10.864 -24.183  0.00  0.00    +0.012 C 
ATOM     17  C   UNL     1      34.416 -10.021 -25.210  0.00  0.00    +0.058 C 
ENDBRANCH  10  12
ENDBRANCH   1   4
BRANCH   1  18
ATOM     18  C   UNL     1      33.587 -18.749 -23.239  0.00  0.00    +0.023 C 
BRANCH  18  19
ATOM     19  C   UNL     1      34.629 -19.417 -22.303  0.00  0.00    +0.087 C 
BRANCH  19  20
ATOM     20  N   UNL     1      33.985 -20.180 -21.153  0.00  0.00    -0.246 NA
ATOM     21  N   UNL     1      32.422 -20.883 -19.740  0.00  0.00    -0.251 NA
ATOM     22  C   UNL     1      34.607 -21.062 -20.317  0.00  0.00    +0.125 C 
ATOM     23  C   UNL     1      32.675 -20.104 -20.769  0.00  0.00    +0.201 C 
ATOM     24  C   UNL     1      33.623 -21.484 -19.454  0.00  0.00    +0.124 C 
BRANCH  24  27
ATOM     25  O   UNL     1      34.892 -22.635 -17.838  0.00  0.00    -0.269 OA
ATOM     26  N   UNL     1      32.649 -23.106 -17.919  0.00  0.00    -0.324 N 
ATOM     27  C   UNL     1      33.781 -22.420 -18.384  0.00  0.00    +0.257 C 
ATOM     28  H   UNL     1      32.734 -23.755 -17.184  0.00  0.00    +0.145 HD
ATOM     29  H   UNL     1      31.770 -22.939 -18.329  0.00  0.00    +0.145 HD
ENDBRANCH  24  27
ENDBRANCH  19  20
BRANCH  19  30
ATOM     30  C   UNL     1      35.678 -18.377 -21.827  0.00  0.00    +0.125 C 
ATOM     31  C   UNL     1      37.090 -18.939 -21.698  0.00  0.00    +0.033 C 
BRANCH  30  32
ATOM     32  O   UNL     1      35.288 -17.797 -20.584  0.00  0.00    -0.383 OA
ATOM     33  H   UNL     1      35.785 -18.214 -19.863  0.00  0.00    +0.210 HD
ENDBRANCH  30  32
ENDBRANCH  19  30
ENDBRANCH  18  19
ENDBRANCH   1  18
TORSDOF 8
ENDMDL
MODEL 5
REMARK VINA RESULT:     -10.8     10.570     15.572
REMARK  Name = 46937091
REMARK  8 active torsions:
REMARK  status: ('A' for Active; 'I' for Inactive)
REMARK    1  A    between atoms: C_1  and  C_4
REMARK    2  A    between atoms: C_1  and  C_18
REMARK    3  A    between atoms: C_10  and  C_12
REMARK    4  A    between atoms: C_18  and  C_19
REMARK    5  A    between atoms: C_19  and  N_20
REMARK    6  A    between atoms: C_19  and  C_30
REMARK    7  A    between atoms: C_24  and  C_27
REMARK    8  A    between atoms: C_30  and  O_32
REMARK                            x       y       z     vdW  Elec       q    Type
REMARK                         _______ _______ _______ _____ _____    ______ ____
ROOT
ATOM      1  C   UNL     1      32.960 -11.990 -24.091  0.00  0.00    +0.031 C 
ENDROOT
BRANCH   1   4
ATOM      2  O   UNL     1      33.671 -14.964 -24.106  0.00  0.00    -0.425 OA
ATOM      3  N   UNL     1      33.666 -16.385 -25.871  0.00  0.00    -0.368 NA
ATOM      4  C   UNL     1      32.947 -12.914 -25.281  0.00  0.00    +0.014 C 
ATOM      5  C   UNL     1      33.285 -14.261 -25.211  0.00  0.00    +0.170 C 
ATOM      6  C   UNL     1      32.585 -12.447 -26.549  0.00  0.00    -0.005 C 
ATOM      7  C   UNL     1      33.282 -15.134 -26.289  0.00  0.00    +0.151 C 
ATOM      8  C   UNL     1      32.570 -13.295 -27.663  0.00  0.00    -0.019 C 
ATOM      9  C   UNL     1      32.917 -14.650 -27.553  0.00  0.00    +0.088 C 
ATOM     10  C   UNL     1      33.880 -16.222 -24.584  0.00  0.00    +0.282 C 
BRANCH  10  12
ATOM     11 CL   UNL     1      35.635 -20.205 -20.531  0.00  0.00    -0.082 Cl
ATOM     12  C   UNL     1      34.304 -17.184 -23.604  0.00  0.00    +0.066 C 
ATOM     13  C   UNL     1      34.245 -18.547 -23.895  0.00  0.00    +0.007 C 
ATOM     14  C   UNL     1      34.775 -16.756 -22.364  0.00  0.00    +0.007 C 
ATOM     15  C   UNL     1      34.656 -19.481 -22.945  0.00  0.00    +0.012 C 
ATOM     16  C   UNL     1      35.187 -17.690 -21.413  0.00  0.00    +0.012 C 
ATOM     17  C   UNL     1      35.127 -19.053 -21.704  0.00  0.00    +0.058 C 
ENDBRANCH  10  12
ENDBRANCH   1   4
BRANCH   1  18
ATOM     18  C   UNL     1      32.983 -10.494 -24.448  0.00  0.00    +0.023 C 
BRANCH  18  19
ATOM     19  C   UNL     1      33.801  -9.598 -23.479  0.00  0.00    +0.087 C 
BRANCH  19  20
ATOM     20  N   UNL     1      32.934  -8.589 -22.737  0.00  0.00    -0.246 NA
ATOM     21  N   UNL     1      31.146  -7.399 -22.174  0.00  0.00    -0.251 NA
ATOM     22  C   UNL     1      33.328  -7.788 -21.704  0.00  0.00    +0.125 C 
ATOM     23  C   UNL     1      31.616  -8.321 -22.985  0.00  0.00    +0.201 C 
ATOM     24  C   UNL     1      32.208  -7.062 -21.373  0.00  0.00    +0.124 C 
BRANCH  24  27
ATOM     25  O   UNL     1      32.680  -6.213 -19.227  0.00  0.00    -0.269 OA
ATOM     26  N   UNL     1      31.377  -4.910 -20.591  0.00  0.00    -0.324 N 
ATOM     27  C   UNL     1      32.114  -6.077 -20.341  0.00  0.00    +0.257 C 
ATOM     28  H   UNL     1      31.298  -4.218 -19.895  0.00  0.00    +0.145 HD
ATOM     29  H   UNL     1      30.938  -4.784 -21.463  0.00  0.00    +0.145 HD
ENDBRANCH  24  27
ENDBRANCH  19  20
BRANCH  19  30
ATOM     30  C   UNL     1      34.993  -8.939 -24.225  0.00  0.00    +0.125 C 
ATOM     31  C   UNL     1      34.590  -8.191 -25.491  0.00  0.00    +0.033 C 
BRANCH  30  32
ATOM     32  O   UNL     1      35.987  -9.909 -24.547  0.00  0.00    -0.383 OA
ATOM     33  H   UNL     1      36.818  -9.679 -24.103  0.00  0.00    +0.210 HD
ENDBRANCH  30  32
ENDBRANCH  19  30
ENDBRANCH  18  19
ENDBRANCH   1  18
TORSDOF 8
ENDMDL
MODEL 6
REMARK VINA RESULT:     -10.7      3.954      7.977
REMARK  Name = 46937091
REMARK  8 active torsions:
REMARK  status: ('A' for Active; 'I' for Inactive)
REMARK    1  A    between atoms: C_1  and  C_4
REMARK    2  A    between atoms: C_1  and  C_18
REMARK    3  A    between atoms: C_10  and  C_12
REMARK    4  A    between atoms: C_18  and  C_19
REMARK    5  A    between atoms: C_19  and  N_20
REMARK    6  A    between atoms: C_19  and  C_30
REMARK    7  A    between atoms: C_24  and  C_27
REMARK    8  A    between atoms: C_30  and  O_32
REMARK                            x       y       z     vdW  Elec       q    Type
REMARK                         _______ _______ _______ _____ _____    ______ ____
ROOT
ATOM      1  C   UNL     1      32.954 -22.786 -19.020  0.00  0.00    +0.031 C 
ENDROOT
BRANCH   1   4
ATOM      2  O   UNL     1      34.495 -23.879 -16.615  0.00  0.00    -0.425 OA
ATOM      3  N   UNL     1      33.748 -24.156 -14.494  0.00  0.00    -0.368 NA
ATOM      4  C   UNL     1      32.432 -22.959 -17.616  0.00  0.00    +0.014 C 
ATOM      5  C   UNL     1      33.195 -23.465 -16.571  0.00  0.00    +0.170 C 
ATOM      6  C   UNL     1      31.117 -22.609 -17.291  0.00  0.00    -0.005 C 
ATOM      7  C   UNL     1      32.741 -23.635 -15.271  0.00  0.00    +0.151 C 
ATOM      8  C   UNL     1      30.619 -22.765 -15.992  0.00  0.00    -0.019 C 
ATOM      9  C   UNL     1      31.421 -23.279 -14.962  0.00  0.00    +0.088 C 
ATOM     10  C   UNL     1      34.749 -24.276 -15.337  0.00  0.00    +0.282 C 
BRANCH  10  12
ATOM     11 CL   UNL     1      40.252 -26.316 -14.373  0.00  0.00    -0.082 Cl
ATOM     12  C   UNL     1      36.079 -24.768 -15.104  0.00  0.00    +0.066 C 
ATOM     13  C   UNL     1      36.281 -26.117 -14.810  0.00  0.00    +0.007 C 
ATOM     14  C   UNL     1      37.167 -23.899 -15.173  0.00  0.00    +0.007 C 
ATOM     15  C   UNL     1      37.572 -26.595 -14.584  0.00  0.00    +0.012 C 
ATOM     16  C   UNL     1      38.457 -24.377 -14.947  0.00  0.00    +0.012 C 
ATOM     17  C   UNL     1      38.660 -25.726 -14.652  0.00  0.00    +0.058 C 
ENDBRANCH  10  12
ENDBRANCH   1   4
BRANCH   1  18
ATOM     18  C   UNL     1      33.017 -21.326 -19.499  0.00  0.00    +0.023 C 
BRANCH  18  19
ATOM     19  C   UNL     1      34.429 -20.681 -19.464  0.00  0.00    +0.087 C 
BRANCH  19  20
ATOM     20  N   UNL     1      34.699 -19.789 -20.669  0.00  0.00    -0.246 NA
ATOM     21  N   UNL     1      35.759 -18.377 -22.017  0.00  0.00    -0.251 NA
ATOM     22  C   UNL     1      33.865 -19.590 -21.732  0.00  0.00    +0.125 C 
ATOM     23  C   UNL     1      35.823 -19.042 -20.884  0.00  0.00    +0.201 C 
ATOM     24  C   UNL     1      34.540 -18.715 -22.551  0.00  0.00    +0.124 C 
BRANCH  24  27
ATOM     25  O   UNL     1      32.972 -18.532 -24.299  0.00  0.00    -0.269 OA
ATOM     26  N   UNL     1      34.877 -17.269 -24.482  0.00  0.00    -0.324 N 
ATOM     27  C   UNL     1      34.076 -18.197 -23.800  0.00  0.00    +0.257 C 
ATOM     28  H   UNL     1      34.578 -16.899 -25.344  0.00  0.00    +0.145 HD
ATOM     29  H   UNL     1      35.738 -16.987 -24.098  0.00  0.00    +0.145 HD
ENDBRANCH  24  27
ENDBRANCH  19  20
BRANCH  19  30
ATOM     30  C   UNL     1      35.517 -21.769 -19.260  0.00  0.00    +0.125 C 
ATOM     31  C   UNL     1      36.360 -21.570 -18.004  0.00  0.00    +0.033 C 
BRANCH  30  32
ATOM     32  O   UNL     1      36.377 -21.845 -20.395  0.00  0.00    -0.383 OA
ATOM     33  H   UNL     1      36.707 -20.958 -20.610  0.00  0.00    +0.210 HD
ENDBRANCH  30  32
ENDBRANCH  19  30
ENDBRANCH  18  19
ENDBRANCH   1  18
TORSDOF 8
ENDMDL
MODEL 7
REMARK VINA RESULT:     -10.4      1.524      2.085
REMARK  Name = 46937091
REMARK  8 active torsions:
REMARK  status: ('A' for Active; 'I' for Inactive)
REMARK    1  A    between atoms: C_1  and  C_4
REMARK    2  A    between atoms: C_1  and  C_18
REMARK    3  A    between atoms: C_10  and  C_12
REMARK    4  A    between atoms: C_18  and  C_19
REMARK    5  A    between atoms: C_19  and  N_20
REMARK    6  A    between atoms: C_19  and  C_30
REMARK    7  A    between atoms: C_24  and  C_27
REMARK    8  A    between atoms: C_30  and  O_32
REMARK                            x       y       z     vdW  Elec       q    Type
REMARK                         _______ _______ _______ _____ _____    ______ ____
ROOT
ATOM      1  C   UNL     1      33.031 -24.071 -13.685  0.00  0.00    +0.031 C 
ENDROOT
BRANCH   1   4
ATOM      2  O   UNL     1      32.632 -22.903 -16.483  0.00  0.00    -0.425 OA
ATOM      3  N   UNL     1      30.724 -22.838 -17.703  0.00  0.00    -0.368 NA
ATOM      4  C   UNL     1      31.748 -24.042 -14.476  0.00  0.00    +0.014 C 
ATOM      5  C   UNL     1      31.643 -23.490 -15.748  0.00  0.00    +0.170 C 
ATOM      6  C   UNL     1      30.569 -24.582 -13.952  0.00  0.00    -0.005 C 
ATOM      7  C   UNL     1      30.477 -23.450 -16.498  0.00  0.00    +0.151 C 
ATOM      8  C   UNL     1      29.371 -24.561 -14.676  0.00  0.00    -0.019 C 
ATOM      9  C   UNL     1      29.304 -23.997 -15.958  0.00  0.00    +0.088 C 
ATOM     10  C   UNL     1      32.003 -22.541 -17.635  0.00  0.00    +0.282 C 
BRANCH  10  12
ATOM     11 CL   UNL     1      35.454 -19.831 -21.650  0.00  0.00    -0.082 Cl
ATOM     12  C   UNL     1      32.836 -21.886 -18.606  0.00  0.00    +0.066 C 
ATOM     13  C   UNL     1      34.204 -22.154 -18.644  0.00  0.00    +0.007 C 
ATOM     14  C   UNL     1      32.278 -20.983 -19.509  0.00  0.00    +0.007 C 
ATOM     15  C   UNL     1      35.014 -21.518 -19.585  0.00  0.00    +0.012 C 
ATOM     16  C   UNL     1      33.087 -20.347 -20.451  0.00  0.00    +0.012 C 
ATOM     17  C   UNL     1      34.455 -20.615 -20.488  0.00  0.00    +0.058 C 
ENDBRANCH  10  12
ENDBRANCH   1   4
BRANCH   1  18
ATOM     18  C   UNL     1      34.064 -25.095 -14.186  0.00  0.00    +0.023 C 
BRANCH  18  19
ATOM     19  C   UNL     1      35.218 -24.503 -15.039  0.00  0.00    +0.087 C 
BRANCH  19  20
ATOM     20  N   UNL     1      36.504 -25.312 -14.931  0.00  0.00    -0.246 NA
ATOM     21  N   UNL     1      37.850 -27.075 -14.819  0.00  0.00    -0.251 NA
ATOM     22  C   UNL     1      37.770 -24.810 -14.824  0.00  0.00    +0.125 C 
ATOM     23  C   UNL     1      36.602 -26.676 -14.924  0.00  0.00    +0.201 C 
ATOM     24  C   UNL     1      38.584 -25.916 -14.757  0.00  0.00    +0.124 C 
BRANCH  24  27
ATOM     25  O   UNL     1      40.677 -24.848 -14.604  0.00  0.00    -0.269 OA
ATOM     26  N   UNL     1      40.678 -27.140 -14.531  0.00  0.00    -0.324 N 
ATOM     27  C   UNL     1      40.008 -25.912 -14.636  0.00  0.00    +0.257 C 
ATOM     28  H   UNL     1      41.659 -27.161 -14.447  0.00  0.00    +0.145 HD
ATOM     29  H   UNL     1      40.167 -27.981 -14.542  0.00  0.00    +0.145 HD
ENDBRANCH  24  27
ENDBRANCH  19  20
BRANCH  19  30
ATOM     30  C   UNL     1      35.420 -22.999 -14.711  0.00  0.00    +0.125 C 
ATOM     31  C   UNL     1      36.249 -22.248 -15.747  0.00  0.00    +0.033 C 
BRANCH  30  32
ATOM     32  O   UNL     1      36.015 -22.836 -13.425  0.00  0.00    -0.383 OA
ATOM     33  H   UNL     1      35.333 -22.919 -12.741  0.00  0.00    +0.210 HD
ENDBRANCH  30  32
ENDBRANCH  19  30
ENDBRANCH  18  19
ENDBRANCH   1  18
TORSDOF 8
ENDMDL
MODEL 8
REMARK VINA RESULT:     -10.3      9.570     14.679
REMARK  Name = 46937091
REMARK  8 active torsions:
REMARK  status: ('A' for Active; 'I' for Inactive)
REMARK    1  A    between atoms: C_1  and  C_4
REMARK    2  A    between atoms: C_1  and  C_18
REMARK    3  A    between atoms: C_10  and  C_12
REMARK    4  A    between atoms: C_18  and  C_19
REMARK    5  A    between atoms: C_19  and  N_20
REMARK    6  A    between atoms: C_19  and  C_30
REMARK    7  A    between atoms: C_24  and  C_27
REMARK    8  A    between atoms: C_30  and  O_32
REMARK                            x       y       z     vdW  Elec       q    Type
REMARK                         _______ _______ _______ _____ _____    ______ ____
ROOT
ATOM      1  C   UNL     1      33.758 -13.401 -23.605  0.00  0.00    +0.031 C 
ENDROOT
BRANCH   1   4
ATOM      2  O   UNL     1      34.177 -16.404 -23.213  0.00  0.00    -0.425 OA
ATOM      3  N   UNL     1      33.801 -18.066 -24.707  0.00  0.00    -0.368 NA
ATOM      4  C   UNL     1      33.498 -14.487 -24.617  0.00  0.00    +0.014 C 
ATOM      5  C   UNL     1      33.714 -15.837 -24.366  0.00  0.00    +0.170 C 
ATOM      6  C   UNL     1      33.016 -14.179 -25.893  0.00  0.00    -0.005 C 
ATOM      7  C   UNL     1      33.485 -16.857 -25.278  0.00  0.00    +0.151 C 
ATOM      8  C   UNL     1      32.772 -15.178 -26.843  0.00  0.00    -0.019 C 
ATOM      9  C   UNL     1      33.001 -16.531 -26.552  0.00  0.00    +0.088 C 
ATOM     10  C   UNL     1      34.200 -17.736 -23.499  0.00  0.00    +0.282 C 
BRANCH  10  12
ATOM     11 CL   UNL     1      36.101 -21.231 -19.079  0.00  0.00    -0.082 Cl
ATOM     12  C   UNL     1      34.659 -18.581 -22.431  0.00  0.00    +0.066 C 
ATOM     13  C   UNL     1      35.992 -18.530 -22.026  0.00  0.00    +0.007 C 
ATOM     14  C   UNL     1      33.771 -19.451 -21.798  0.00  0.00    +0.007 C 
ATOM     15  C   UNL     1      36.438 -19.349 -20.990  0.00  0.00    +0.012 C 
ATOM     16  C   UNL     1      34.217 -20.270 -20.762  0.00  0.00    +0.012 C 
ATOM     17  C   UNL     1      35.551 -20.219 -20.357  0.00  0.00    +0.058 C 
ENDBRANCH  10  12
ENDBRANCH   1   4
BRANCH   1  18
ATOM     18  C   UNL     1      32.692 -12.291 -23.576  0.00  0.00    +0.023 C 
BRANCH  18  19
ATOM     19  C   UNL     1      33.220 -10.864 -23.884  0.00  0.00    +0.087 C 
BRANCH  19  20
ATOM     20  N   UNL     1      32.624  -9.805 -22.965  0.00  0.00    -0.246 NA
ATOM     21  N   UNL     1      31.166  -8.785 -21.637  0.00  0.00    -0.251 NA
ATOM     22  C   UNL     1      33.222  -8.640 -22.579  0.00  0.00    +0.125 C 
ATOM     23  C   UNL     1      31.392  -9.849 -22.375  0.00  0.00    +0.201 C 
ATOM     24  C   UNL     1      32.304  -8.027 -21.759  0.00  0.00    +0.124 C 
BRANCH  24  27
ATOM     25  O   UNL     1      32.417  -5.674 -21.719  0.00  0.00    -0.269 OA
ATOM     26  N   UNL     1      32.666  -6.756 -19.713  0.00  0.00    -0.324 N 
ATOM     27  C   UNL     1      32.465  -6.768 -21.101  0.00  0.00    +0.257 C 
ATOM     28  H   UNL     1      32.780  -5.901 -19.238  0.00  0.00    +0.145 HD
ATOM     29  H   UNL     1      32.694  -7.603 -19.213  0.00  0.00    +0.145 HD
ENDBRANCH  24  27
ENDBRANCH  19  20
BRANCH  19  30
ATOM     30  C   UNL     1      33.037 -10.531 -25.389  0.00  0.00    +0.125 C 
ATOM     31  C   UNL     1      34.337 -10.549 -26.187  0.00  0.00    +0.033 C 
BRANCH  30  32
ATOM     32  O   UNL     1      32.403  -9.264 -25.554  0.00  0.00    -0.383 OA
ATOM     33  H   UNL     1      31.461  -9.343 -25.333  0.00  0.00    +0.210 HD
ENDBRANCH  30  32
ENDBRANCH  19  30
ENDBRANCH  18  19
ENDBRANCH   1  18
TORSDOF 8
ENDMDL
MODEL 9
REMARK VINA RESULT:     -10.3      8.792     13.130
REMARK  Name = 46937091
REMARK  8 active torsions:
REMARK  status: ('A' for Active; 'I' for Inactive)
REMARK    1  A    between atoms: C_1  and  C_4
REMARK    2  A    between atoms: C_1  and  C_18
REMARK    3  A    between atoms: C_10  and  C_12
REMARK    4  A    between atoms: C_18  and  C_19
REMARK    5  A    between atoms: C_19  and  N_20
REMARK    6  A    between atoms: C_19  and  C_30
REMARK    7  A    between atoms: C_24  and  C_27
REMARK    8  A    between atoms: C_30  and  O_32
REMARK                            x       y       z     vdW  Elec       q    Type
REMARK                         _______ _______ _______ _____ _____    ______ ____
ROOT
ATOM      1  C   UNL     1      33.493 -15.036 -24.174  0.00  0.00    +0.031 C 
ENDROOT
BRANCH   1   4
ATOM      2  O   UNL     1      33.065 -12.014 -23.985  0.00  0.00    -0.425 OA
ATOM      3  N   UNL     1      32.722 -10.550 -25.681  0.00  0.00    -0.368 NA
ATOM      4  C   UNL     1      33.268 -14.083 -25.321  0.00  0.00    +0.014 C 
ATOM      5  C   UNL     1      33.079 -12.716 -25.156  0.00  0.00    +0.170 C 
ATOM      6  C   UNL     1      33.236 -14.544 -26.641  0.00  0.00    -0.005 C 
ATOM      7  C   UNL     1      32.870 -11.817 -26.192  0.00  0.00    +0.151 C 
ATOM      8  C   UNL     1      33.027 -13.670 -27.715  0.00  0.00    -0.019 C 
ATOM      9  C   UNL     1      32.841 -12.295 -27.509  0.00  0.00    +0.088 C 
ATOM     10  C   UNL     1      32.847 -10.730 -24.385  0.00  0.00    +0.282 C 
BRANCH  10  12
ATOM     11 CL   UNL     1      32.592  -6.729 -19.992  0.00  0.00    -0.082 Cl
ATOM     12  C   UNL     1      32.785  -9.764 -23.323  0.00  0.00    +0.066 C 
ATOM     13  C   UNL     1      33.562  -8.607 -23.387  0.00  0.00    +0.007 C 
ATOM     14  C   UNL     1      31.948  -9.981 -22.229  0.00  0.00    +0.007 C 
ATOM     15  C   UNL     1      33.502  -7.669 -22.357  0.00  0.00    +0.012 C 
ATOM     16  C   UNL     1      31.888  -9.043 -21.199  0.00  0.00    +0.012 C 
ATOM     17  C   UNL     1      32.665  -7.886 -21.263  0.00  0.00    +0.058 C 
ENDBRANCH  10  12
ENDBRANCH   1   4
BRANCH   1  18
ATOM     18  C   UNL     1      34.355 -16.261 -24.525  0.00  0.00    +0.023 C 
BRANCH  18  19
ATOM     19  C   UNL     1      33.700 -17.635 -24.223  0.00  0.00    +0.087 C 
BRANCH  19  20
ATOM     20  N   UNL     1      34.361 -18.359 -23.057  0.00  0.00    -0.246 NA
ATOM     21  N   UNL     1      35.937 -18.994 -21.627  0.00  0.00    -0.251 NA
ATOM     22  C   UNL     1      33.760 -19.244 -22.208  0.00  0.00    +0.125 C 
ATOM     23  C   UNL     1      35.667 -18.240 -22.670  0.00  0.00    +0.201 C 
ATOM     24  C   UNL     1      34.752 -19.622 -21.334  0.00  0.00    +0.124 C 
BRANCH  24  27
ATOM     25  O   UNL     1      33.522 -21.093 -19.966  0.00  0.00    -0.269 OA
ATOM     26  N   UNL     1      35.752 -20.859 -19.489  0.00  0.00    -0.324 N 
ATOM     27  C   UNL     1      34.616 -20.544 -20.250  0.00  0.00    +0.257 C 
ATOM     28  H   UNL     1      35.683 -21.491 -18.737  0.00  0.00    +0.145 HD
ATOM     29  H   UNL     1      36.619 -20.447 -19.706  0.00  0.00    +0.145 HD
ENDBRANCH  24  27
ENDBRANCH  19  20
BRANCH  19  30
ATOM     30  C   UNL     1      33.631 -18.499 -25.512  0.00  0.00    +0.125 C 
ATOM     31  C   UNL     1      32.220 -18.672 -26.063  0.00  0.00    +0.033 C 
BRANCH  30  32
ATOM     32  O   UNL     1      34.211 -19.783 -25.291  0.00  0.00    -0.383 OA
ATOM     33  H   UNL     1      35.089 -19.816 -25.702  0.00  0.00    +0.210 HD
ENDBRANCH  30  32
ENDBRANCH  19  30
ENDBRANCH  18  19
ENDBRANCH   1  18
TORSDOF 8
ENDMDL
