MODEL 1
REMARK VINA RESULT:     -13.3      0.000      0.000
REMARK  Name = 11282283
REMARK  4 active torsions:
REMARK  status: ('A' for Active; 'I' for Inactive)
REMARK    1  A    between atoms: N_3  and  C_21
REMARK    2  A    between atoms: C_21  and  N_22
REMARK    3  A    between atoms: N_22  and  C_24
REMARK    4  A    between atoms: C_24  and  C_27
REMARK                            x       y       z     vdW  Elec       q    Type
REMARK                         _______ _______ _______ _____ _____    ______ ____
ROOT
ATOM      1  O   UNL     1      32.350 -12.743 -22.265  0.00  0.00    -0.466 OA
ATOM      2  N   UNL     1      33.376 -14.347 -24.508  0.00  0.00    -0.290 N 
ATOM      3  N   UNL     1      33.873 -17.178 -24.355  0.00  0.00    -0.288 N 
ATOM      4  N   UNL     1      33.372 -12.289 -25.725  0.00  0.00    -0.230 NA
ATOM      5  N   UNL     1      32.641 -10.193 -24.707  0.00  0.00    -0.245 NA
ATOM      6  C   UNL     1      33.248 -15.197 -25.697  0.00  0.00    +0.113 C 
ATOM      7  C   UNL     1      33.762 -14.973 -23.239  0.00  0.00    +0.113 C 
ATOM      8  C   UNL     1      32.911 -16.633 -25.300  0.00  0.00    +0.114 C 
ATOM      9  C   UNL     1      34.574 -16.242 -23.488  0.00  0.00    +0.114 C 
ATOM     10  C   UNL     1      33.138 -12.975 -24.584  0.00  0.00    +0.152 C 
ATOM     11  C   UNL     1      32.654 -12.271 -23.501  0.00  0.00    +0.258 C 
ATOM     12  C   UNL     1      32.416 -10.906 -23.576  0.00  0.00    +0.106 C 
ATOM     13  C   UNL     1      31.932 -10.512 -22.302  0.00  0.00    +0.051 C 
ATOM     14  C   UNL     1      31.910 -11.677 -21.534  0.00  0.00    +0.141 C 
ATOM     15  C   UNL     1      33.113 -10.960 -25.716  0.00  0.00    +0.251 C 
ATOM     16  C   UNL     1      31.511  -9.310 -21.710  0.00  0.00    +0.004 C 
ATOM     17  C   UNL     1      31.493 -11.724 -20.205  0.00  0.00    +0.037 C 
ATOM     18  C   UNL     1      31.086  -9.329 -20.374  0.00  0.00    +0.000 C 
ATOM     19  C   UNL     1      31.078 -10.516 -19.637  0.00  0.00    +0.003 C 
ENDROOT
BRANCH   3  21
ATOM     20  S   UNL     1      33.947 -19.492 -25.631  0.00  0.00    -0.019 S 
ATOM     21  C   UNL     1      34.108 -18.512 -24.284  0.00  0.00    +0.135 C 
BRANCH  21  22
ATOM     22  N   UNL     1      34.485 -19.030 -23.070  0.00  0.00    -0.312 N 
ATOM     23  H   UNL     1      35.267 -19.627 -23.063  0.00  0.00    +0.149 HD
BRANCH  22  24
ATOM     24  C   UNL     1      33.837 -18.778 -21.798  0.00  0.00    +0.116 C 
BRANCH  24  27
ATOM     25  O   UNL     1      32.244 -22.243 -18.662  0.00  0.00    -0.435 OA
ATOM     26  O   UNL     1      34.481 -22.988 -18.167  0.00  0.00    -0.435 OA
ATOM     27  C   UNL     1      34.046 -19.905 -20.829  0.00  0.00    +0.001 C 
ATOM     28  C   UNL     1      32.943 -20.505 -20.228  0.00  0.00    +0.038 C 
ATOM     29  C   UNL     1      35.350 -20.333 -20.546  0.00  0.00    +0.001 C 
ATOM     30  C   UNL     1      33.186 -21.537 -19.345  0.00  0.00    +0.176 C 
ATOM     31  C   UNL     1      34.464 -21.963 -19.062  0.00  0.00    +0.176 C 
ATOM     32  C   UNL     1      35.569 -21.380 -19.648  0.00  0.00    +0.040 C 
ATOM     33  C   UNL     1      33.071 -23.161 -17.919  0.00  0.00    +0.429 C 
ENDBRANCH  24  27
ENDBRANCH  22  24
ENDBRANCH  21  22
ENDBRANCH   3  21
TORSDOF 4
ENDMDL
MODEL 2
REMARK VINA RESULT:     -13.3      2.039      3.581
REMARK  Name = 11282283
REMARK  4 active torsions:
REMARK  status: ('A' for Active; 'I' for Inactive)
REMARK    1  A    between atoms: N_3  and  C_21
REMARK    2  A    between atoms: C_21  and  N_22
REMARK    3  A    between atoms: N_22  and  C_24
REMARK    4  A    between atoms: C_24  and  C_27
REMARK                            x       y       z     vdW  Elec       q    Type
REMARK                         _______ _______ _______ _____ _____    ______ ____
ROOT
ATOM      1  O   UNL     1      33.981 -10.650 -24.759  0.00  0.00    -0.466 OA
ATOM      2  N   UNL     1      33.084 -12.834 -23.004  0.00  0.00    -0.290 N 
ATOM      3  N   UNL     1      34.132 -15.513 -23.123  0.00  0.00    -0.288 N 
ATOM      4  N   UNL     1      31.614 -11.207 -22.057  0.00  0.00    -0.230 NA
ATOM      5  N   UNL     1      31.562  -8.898 -22.852  0.00  0.00    -0.245 NA
ATOM      6  C   UNL     1      33.135 -13.675 -21.803  0.00  0.00    +0.113 C 
ATOM      7  C   UNL     1      33.581 -13.391 -24.268  0.00  0.00    +0.113 C 
ATOM      8  C   UNL     1      34.251 -14.711 -21.915  0.00  0.00    +0.114 C 
ATOM      9  C   UNL     1      33.466 -14.914 -24.270  0.00  0.00    +0.114 C 
ATOM     10  C   UNL     1      32.574 -11.539 -22.947  0.00  0.00    +0.152 C 
ATOM     11  C   UNL     1      33.032 -10.550 -23.793  0.00  0.00    +0.258 C 
ATOM     12  C   UNL     1      32.525  -9.259 -23.736  0.00  0.00    +0.106 C 
ATOM     13  C   UNL     1      33.209  -8.515 -24.732  0.00  0.00    +0.051 C 
ATOM     14  C   UNL     1      34.091  -9.414 -25.331  0.00  0.00    +0.141 C 
ATOM     15  C   UNL     1      31.173  -9.925 -22.064  0.00  0.00    +0.251 C 
ATOM     16  C   UNL     1      33.185  -7.189 -25.195  0.00  0.00    +0.004 C 
ATOM     17  C   UNL     1      34.958  -9.078 -26.369  0.00  0.00    +0.037 C 
ATOM     18  C   UNL     1      34.046  -6.824 -26.239  0.00  0.00    +0.000 C 
ATOM     19  C   UNL     1      34.916  -7.754 -26.814  0.00  0.00    +0.003 C 
ENDROOT
BRANCH   3  21
ATOM     20  S   UNL     1      34.579 -17.662 -24.597  0.00  0.00    -0.019 S 
ATOM     21  C   UNL     1      34.624 -16.776 -23.178  0.00  0.00    +0.135 C 
BRANCH  21  22
ATOM     22  N   UNL     1      35.162 -17.301 -22.030  0.00  0.00    -0.312 N 
ATOM     23  H   UNL     1      35.158 -16.726 -21.231  0.00  0.00    +0.149 HD
BRANCH  22  24
ATOM     24  C   UNL     1      35.733 -18.626 -21.884  0.00  0.00    +0.116 C 
BRANCH  24  27
ATOM     25  O   UNL     1      34.830 -22.326 -18.741  0.00  0.00    -0.435 OA
ATOM     26  O   UNL     1      32.444 -22.132 -19.017  0.00  0.00    -0.435 OA
ATOM     27  C   UNL     1      34.822 -19.550 -21.129  0.00  0.00    +0.001 C 
ATOM     28  C   UNL     1      35.367 -20.508 -20.280  0.00  0.00    +0.038 C 
ATOM     29  C   UNL     1      33.435 -19.432 -21.295  0.00  0.00    +0.001 C 
ATOM     30  C   UNL     1      34.489 -21.334 -19.609  0.00  0.00    +0.176 C 
ATOM     31  C   UNL     1      33.127 -21.223 -19.766  0.00  0.00    +0.176 C 
ATOM     32  C   UNL     1      32.567 -20.280 -20.604  0.00  0.00    +0.040 C 
ATOM     33  C   UNL     1      33.529 -22.826 -18.370  0.00  0.00    +0.429 C 
ENDBRANCH  24  27
ENDBRANCH  22  24
ENDBRANCH  21  22
ENDBRANCH   3  21
TORSDOF 4
ENDMDL
MODEL 3
REMARK VINA RESULT:     -13.0      0.918      1.454
REMARK  Name = 11282283
REMARK  4 active torsions:
REMARK  status: ('A' for Active; 'I' for Inactive)
REMARK    1  A    between atoms: N_3  and  C_21
REMARK    2  A    between atoms: C_21  and  N_22
REMARK    3  A    between atoms: N_22  and  C_24
REMARK    4  A    between atoms: C_24  and  C_27
REMARK                            x       y       z     vdW  Elec       q    Type
REMARK                         _______ _______ _______ _____ _____    ______ ____
ROOT
ATOM      1  O   UNL     1      32.458 -11.620 -22.509  0.00  0.00    -0.466 OA
ATOM      2  N   UNL     1      33.524 -13.536 -24.470  0.00  0.00    -0.290 N 
ATOM      3  N   UNL     1      34.015 -16.313 -23.889  0.00  0.00    -0.288 N 
ATOM      4  N   UNL     1      33.547 -11.682 -25.977  0.00  0.00    -0.230 NA
ATOM      5  N   UNL     1      32.800  -9.459 -25.296  0.00  0.00    -0.245 NA
ATOM      6  C   UNL     1      33.418 -14.553 -25.522  0.00  0.00    +0.113 C 
ATOM      7  C   UNL     1      33.886 -13.967 -23.115  0.00  0.00    +0.113 C 
ATOM      8  C   UNL     1      33.071 -15.915 -24.923  0.00  0.00    +0.114 C 
ATOM      9  C   UNL     1      34.700 -15.259 -23.158  0.00  0.00    +0.114 C 
ATOM     10  C   UNL     1      33.290 -12.192 -24.752  0.00  0.00    +0.152 C 
ATOM     11  C   UNL     1      32.787 -11.335 -23.795  0.00  0.00    +0.258 C 
ATOM     12  C   UNL     1      32.552  -9.997 -24.076  0.00  0.00    +0.106 C 
ATOM     13  C   UNL     1      32.044  -9.420 -22.884  0.00  0.00    +0.051 C 
ATOM     14  C   UNL     1      32.006 -10.458 -21.953  0.00  0.00    +0.141 C 
ATOM     15  C   UNL     1      33.290 -10.366 -26.171  0.00  0.00    +0.251 C 
ATOM     16  C   UNL     1      31.614  -8.143 -22.484  0.00  0.00    +0.004 C 
ATOM     17  C   UNL     1      31.563 -10.308 -20.639  0.00  0.00    +0.037 C 
ATOM     18  C   UNL     1      31.164  -7.965 -21.169  0.00  0.00    +0.000 C 
ATOM     19  C   UNL     1      31.140  -9.030 -20.265  0.00  0.00    +0.003 C 
ENDROOT
BRANCH   3  21
ATOM     20  S   UNL     1      34.090 -18.793 -24.802  0.00  0.00    -0.019 S 
ATOM     21  C   UNL     1      34.246 -17.622 -23.617  0.00  0.00    +0.135 C 
BRANCH  21  22
ATOM     22  N   UNL     1      34.616 -17.952 -22.338  0.00  0.00    -0.312 N 
ATOM     23  H   UNL     1      34.384 -17.311 -21.627  0.00  0.00    +0.149 HD
BRANCH  22  24
ATOM     24  C   UNL     1      35.314 -19.157 -21.935  0.00  0.00    +0.116 C 
BRANCH  24  27
ATOM     25  O   UNL     1      34.752 -22.580 -18.423  0.00  0.00    -0.435 OA
ATOM     26  O   UNL     1      32.353 -22.359 -18.427  0.00  0.00    -0.435 OA
ATOM     27  C   UNL     1      34.489 -20.000 -21.007  0.00  0.00    +0.001 C 
ATOM     28  C   UNL     1      35.122 -20.900 -20.155  0.00  0.00    +0.038 C 
ATOM     29  C   UNL     1      33.094 -19.865 -21.015  0.00  0.00    +0.001 C 
ATOM     30  C   UNL     1      34.322 -21.652 -19.320  0.00  0.00    +0.176 C 
ATOM     31  C   UNL     1      32.951 -21.526 -19.322  0.00  0.00    +0.176 C 
ATOM     32  C   UNL     1      32.306 -20.639 -20.161  0.00  0.00    +0.040 C 
ATOM     33  C   UNL     1      33.500 -23.023 -17.860  0.00  0.00    +0.429 C 
ENDBRANCH  24  27
ENDBRANCH  22  24
ENDBRANCH  21  22
ENDBRANCH   3  21
TORSDOF 4
ENDMDL
MODEL 4
REMARK VINA RESULT:     -12.7      3.940      9.288
REMARK  Name = 11282283
REMARK  4 active torsions:
REMARK  status: ('A' for Active; 'I' for Inactive)
REMARK    1  A    between atoms: N_3  and  C_21
REMARK    2  A    between atoms: C_21  and  N_22
REMARK    3  A    between atoms: N_22  and  C_24
REMARK    4  A    between atoms: C_24  and  C_27
REMARK                            x       y       z     vdW  Elec       q    Type
REMARK                         _______ _______ _______ _____ _____    ______ ____
ROOT
ATOM      1  O   UNL     1      34.129 -15.460 -24.196  0.00  0.00    -0.466 OA
ATOM      2  N   UNL     1      33.129 -13.273 -25.892  0.00  0.00    -0.290 N 
ATOM      3  N   UNL     1      33.506 -10.483 -25.292  0.00  0.00    -0.288 N 
ATOM      4  N   UNL     1      32.276 -15.012 -27.292  0.00  0.00    -0.230 NA
ATOM      5  N   UNL     1      32.587 -17.373 -26.748  0.00  0.00    -0.245 NA
ATOM      6  C   UNL     1      33.226 -12.280 -26.967  0.00  0.00    +0.113 C 
ATOM      7  C   UNL     1      33.230 -12.811 -24.503  0.00  0.00    +0.113 C 
ATOM      8  C   UNL     1      34.038 -11.069 -26.513  0.00  0.00    +0.114 C 
ATOM      9  C   UNL     1      32.779 -11.357 -24.383  0.00  0.00    +0.114 C 
ATOM     10  C   UNL     1      32.944 -14.624 -26.183  0.00  0.00    +0.152 C 
ATOM     11  C   UNL     1      33.435 -15.610 -25.353  0.00  0.00    +0.258 C 
ATOM     12  C   UNL     1      33.252 -16.955 -25.643  0.00  0.00    +0.106 C 
ATOM     13  C   UNL     1      33.875 -17.680 -24.595  0.00  0.00    +0.051 C 
ATOM     14  C   UNL     1      34.398 -16.716 -23.733  0.00  0.00    +0.141 C 
ATOM     15  C   UNL     1      32.141 -16.343 -27.503  0.00  0.00    +0.251 C 
ATOM     16  C   UNL     1      34.057 -19.036 -24.276  0.00  0.00    +0.004 C 
ATOM     17  C   UNL     1      35.097 -17.015 -22.565  0.00  0.00    +0.037 C 
ATOM     18  C   UNL     1      34.756 -19.365 -23.106  0.00  0.00    +0.000 C 
ATOM     19  C   UNL     1      35.265 -18.370 -22.268  0.00  0.00    +0.003 C 
ENDROOT
BRANCH   3  21
ATOM     20  S   UNL     1      35.188  -8.566 -24.595  0.00  0.00    -0.019 S 
ATOM     21  C   UNL     1      33.683  -9.168 -25.010  0.00  0.00    +0.135 C 
BRANCH  21  22
ATOM     22  N   UNL     1      32.585  -8.348 -25.080  0.00  0.00    -0.312 N 
ATOM     23  H   UNL     1      31.974  -8.483 -25.839  0.00  0.00    +0.149 HD
BRANCH  22  24
ATOM     24  C   UNL     1      32.241  -7.301 -24.138  0.00  0.00    +0.116 C 
BRANCH  24  27
ATOM     25  O   UNL     1      30.448 -10.260 -20.615  0.00  0.00    -0.435 OA
ATOM     26  O   UNL     1      31.875  -9.304 -18.924  0.00  0.00    -0.435 OA
ATOM     27  C   UNL     1      32.169  -7.815 -22.729  0.00  0.00    +0.001 C 
ATOM     28  C   UNL     1      31.278  -8.837 -22.418  0.00  0.00    +0.038 C 
ATOM     29  C   UNL     1      33.002  -7.254 -21.751  0.00  0.00    +0.001 C 
ATOM     30  C   UNL     1      31.248  -9.277 -21.110  0.00  0.00    +0.176 C 
ATOM     31  C   UNL     1      32.063  -8.731 -20.144  0.00  0.00    +0.176 C 
ATOM     32  C   UNL     1      32.952  -7.716 -20.434  0.00  0.00    +0.040 C 
ATOM     33  C   UNL     1      30.851 -10.272 -19.230  0.00  0.00    +0.429 C 
ENDBRANCH  24  27
ENDBRANCH  22  24
ENDBRANCH  21  22
ENDBRANCH   3  21
TORSDOF 4
ENDMDL
MODEL 5
REMARK VINA RESULT:     -12.4      3.976      6.517
REMARK  Name = 11282283
REMARK  4 active torsions:
REMARK  status: ('A' for Active; 'I' for Inactive)
REMARK    1  A    between atoms: N_3  and  C_21
REMARK    2  A    between atoms: C_21  and  N_22
REMARK    3  A    between atoms: N_22  and  C_24
REMARK    4  A    between atoms: C_24  and  C_27
REMARK                            x       y       z     vdW  Elec       q    Type
REMARK                         _______ _______ _______ _____ _____    ______ ____
ROOT
ATOM      1  O   UNL     1      33.141 -18.231 -24.325  0.00  0.00    -0.466 OA
ATOM      2  N   UNL     1      34.527 -18.283 -21.730  0.00  0.00    -0.290 N 
ATOM      3  N   UNL     1      34.835 -20.656 -20.129  0.00  0.00    -0.288 N 
ATOM      4  N   UNL     1      34.874 -15.946 -22.089  0.00  0.00    -0.230 NA
ATOM      5  N   UNL     1      34.059 -14.817 -24.095  0.00  0.00    -0.245 NA
ATOM      6  C   UNL     1      35.690 -18.451 -20.852  0.00  0.00    +0.113 C 
ATOM      7  C   UNL     1      33.525 -19.354 -21.774  0.00  0.00    +0.113 C 
ATOM      8  C   UNL     1      35.993 -19.932 -20.633  0.00  0.00    +0.114 C 
ATOM      9  C   UNL     1      33.517 -20.141 -20.464  0.00  0.00    +0.114 C 
ATOM     10  C   UNL     1      34.376 -17.133 -22.502  0.00  0.00    +0.152 C 
ATOM     11  C   UNL     1      33.718 -17.164 -23.714  0.00  0.00    +0.258 C 
ATOM     12  C   UNL     1      33.570 -16.019 -24.484  0.00  0.00    +0.106 C 
ATOM     13  C   UNL     1      32.854 -16.408 -25.646  0.00  0.00    +0.051 C 
ATOM     14  C   UNL     1      32.616 -17.774 -25.500  0.00  0.00    +0.141 C 
ATOM     15  C   UNL     1      34.687 -14.877 -22.899  0.00  0.00    +0.251 C 
ATOM     16  C   UNL     1      32.382 -15.764 -26.802  0.00  0.00    +0.004 C 
ATOM     17  C   UNL     1      31.933 -18.550 -26.435  0.00  0.00    +0.037 C 
ATOM     18  C   UNL     1      31.691 -16.520 -27.760  0.00  0.00    +0.000 C 
ATOM     19  C   UNL     1      31.472 -17.888 -27.577  0.00  0.00    +0.003 C 
ENDROOT
BRANCH   3  21
ATOM     20  S   UNL     1      33.745 -22.892 -19.234  0.00  0.00    -0.019 S 
ATOM     21  C   UNL     1      34.982 -21.774 -19.373  0.00  0.00    +0.135 C 
BRANCH  21  22
ATOM     22  N   UNL     1      36.180 -21.956 -18.730  0.00  0.00    -0.312 N 
ATOM     23  H   UNL     1      36.874 -22.459 -19.213  0.00  0.00    +0.149 HD
BRANCH  22  24
ATOM     24  C   UNL     1      36.518 -21.474 -17.405  0.00  0.00    +0.116 C 
BRANCH  24  27
ATOM     25  O   UNL     1      38.408 -24.732 -14.213  0.00  0.00    -0.435 OA
ATOM     26  O   UNL     1      36.230 -25.507 -13.534  0.00  0.00    -0.435 OA
ATOM     27  C   UNL     1      36.404 -22.554 -16.369  0.00  0.00    +0.001 C 
ATOM     28  C   UNL     1      37.560 -23.095 -15.813  0.00  0.00    +0.038 C 
ATOM     29  C   UNL     1      35.134 -23.000 -15.979  0.00  0.00    +0.001 C 
ATOM     30  C   UNL     1      37.404 -24.084 -14.864  0.00  0.00    +0.176 C 
ATOM     31  C   UNL     1      36.160 -24.527 -14.477  0.00  0.00    +0.176 C 
ATOM     32  C   UNL     1      35.003 -24.003 -15.017  0.00  0.00    +0.040 C 
ATOM     33  C   UNL     1      37.657 -25.630 -13.371  0.00  0.00    +0.429 C 
ENDBRANCH  24  27
ENDBRANCH  22  24
ENDBRANCH  21  22
ENDBRANCH   3  21
TORSDOF 4
ENDMDL
MODEL 6
REMARK VINA RESULT:     -12.0      1.918      2.830
REMARK  Name = 11282283
REMARK  4 active torsions:
REMARK  status: ('A' for Active; 'I' for Inactive)
REMARK    1  A    between atoms: N_3  and  C_21
REMARK    2  A    between atoms: C_21  and  N_22
REMARK    3  A    between atoms: N_22  and  C_24
REMARK    4  A    between atoms: C_24  and  C_27
REMARK                            x       y       z     vdW  Elec       q    Type
REMARK                         _______ _______ _______ _____ _____    ______ ____
ROOT
ATOM      1  O   UNL     1      32.547  -9.898 -22.671  0.00  0.00    -0.466 OA
ATOM      2  N   UNL     1      33.454 -11.551 -24.930  0.00  0.00    -0.290 N 
ATOM      3  N   UNL     1      33.374 -14.428 -24.940  0.00  0.00    -0.288 N 
ATOM      4  N   UNL     1      33.968  -9.472 -25.991  0.00  0.00    -0.230 NA
ATOM      5  N   UNL     1      33.564  -7.330 -24.890  0.00  0.00    -0.245 NA
ATOM      6  C   UNL     1      33.279 -12.293 -26.183  0.00  0.00    +0.113 C 
ATOM      7  C   UNL     1      33.587 -12.309 -23.682  0.00  0.00    +0.113 C 
ATOM      8  C   UNL     1      32.632 -13.651 -25.921  0.00  0.00    +0.114 C 
ATOM      9  C   UNL     1      34.157 -13.700 -23.953  0.00  0.00    +0.114 C 
ATOM     10  C   UNL     1      33.496 -10.158 -24.926  0.00  0.00    +0.152 C 
ATOM     11  C   UNL     1      33.056  -9.430 -23.840  0.00  0.00    +0.258 C 
ATOM     12  C   UNL     1      33.096  -8.043 -23.836  0.00  0.00    +0.106 C 
ATOM     13  C   UNL     1      32.577  -7.630 -22.582  0.00  0.00    +0.051 C 
ATOM     14  C   UNL     1      32.255  -8.806 -21.905  0.00  0.00    +0.141 C 
ATOM     15  C   UNL     1      33.972  -8.119 -25.909  0.00  0.00    +0.251 C 
ATOM     16  C   UNL     1      32.342  -6.401 -21.943  0.00  0.00    +0.004 C 
ATOM     17  C   UNL     1      31.710  -8.841 -20.623  0.00  0.00    +0.037 C 
ATOM     18  C   UNL     1      31.795  -6.407 -20.652  0.00  0.00    +0.000 C 
ATOM     19  C   UNL     1      31.485  -7.606 -20.006  0.00  0.00    +0.003 C 
ENDROOT
BRANCH   3  21
ATOM     20  S   UNL     1      32.577 -16.624 -26.178  0.00  0.00    -0.019 S 
ATOM     21  C   UNL     1      33.337 -15.785 -24.946  0.00  0.00    +0.135 C 
BRANCH  21  22
ATOM     22  N   UNL     1      33.947 -16.444 -23.909  0.00  0.00    -0.312 N 
ATOM     23  H   UNL     1      33.713 -16.156 -22.997  0.00  0.00    +0.149 HD
BRANCH  22  24
ATOM     24  C   UNL     1      34.904 -17.526 -24.031  0.00  0.00    +0.116 C 
BRANCH  24  27
ATOM     25  O   UNL     1      32.726 -20.532 -20.775  0.00  0.00    -0.435 OA
ATOM     26  O   UNL     1      34.769 -20.865 -19.542  0.00  0.00    -0.435 OA
ATOM     27  C   UNL     1      34.903 -18.416 -22.822  0.00  0.00    +0.001 C 
ATOM     28  C   UNL     1      33.722 -19.037 -22.429  0.00  0.00    +0.038 C 
ATOM     29  C   UNL     1      36.095 -18.605 -22.109  0.00  0.00    +0.001 C 
ATOM     30  C   UNL     1      33.771 -19.845 -21.312  0.00  0.00    +0.176 C 
ATOM     31  C   UNL     1      34.938 -20.036 -20.607  0.00  0.00    +0.176 C 
ATOM     32  C   UNL     1      36.119 -19.428 -20.982  0.00  0.00    +0.040 C 
ATOM     33  C   UNL     1      33.365 -21.177 -19.655  0.00  0.00    +0.429 C 
ENDBRANCH  24  27
ENDBRANCH  22  24
ENDBRANCH  21  22
ENDBRANCH   3  21
TORSDOF 4
ENDMDL
MODEL 7
REMARK VINA RESULT:     -11.9      4.193     11.195
REMARK  Name = 11282283
REMARK  4 active torsions:
REMARK  status: ('A' for Active; 'I' for Inactive)
REMARK    1  A    between atoms: N_3  and  C_21
REMARK    2  A    between atoms: C_21  and  N_22
REMARK    3  A    between atoms: N_22  and  C_24
REMARK    4  A    between atoms: C_24  and  C_27
REMARK                            x       y       z     vdW  Elec       q    Type
REMARK                         _______ _______ _______ _____ _____    ______ ____
ROOT
ATOM      1  O   UNL     1      34.090 -15.640 -24.352  0.00  0.00    -0.466 OA
ATOM      2  N   UNL     1      33.091 -13.181 -25.621  0.00  0.00    -0.290 N 
ATOM      3  N   UNL     1      33.517 -10.542 -24.551  0.00  0.00    -0.288 N 
ATOM      4  N   UNL     1      32.189 -14.640 -27.285  0.00  0.00    -0.230 NA
ATOM      5  N   UNL     1      32.477 -17.062 -27.167  0.00  0.00    -0.245 NA
ATOM      6  C   UNL     1      33.182 -12.017 -26.508  0.00  0.00    +0.113 C 
ATOM      7  C   UNL     1      33.223 -12.969 -24.175  0.00  0.00    +0.113 C 
ATOM      8  C   UNL     1      34.019 -10.912 -25.866  0.00  0.00    +0.114 C 
ATOM      9  C   UNL     1      32.794 -11.554 -23.795  0.00  0.00    +0.114 C 
ATOM     10  C   UNL     1      32.882 -14.458 -26.139  0.00  0.00    +0.152 C 
ATOM     11  C   UNL     1      33.374 -15.579 -25.504  0.00  0.00    +0.258 C 
ATOM     12  C   UNL     1      33.168 -16.850 -26.020  0.00  0.00    +0.106 C 
ATOM     13  C   UNL     1      33.799 -17.753 -25.126  0.00  0.00    +0.051 C 
ATOM     14  C   UNL     1      34.351 -16.960 -24.120  0.00  0.00    +0.141 C 
ATOM     15  C   UNL     1      32.032 -15.913 -27.722  0.00  0.00    +0.251 C 
ATOM     16  C   UNL     1      33.969 -19.146 -25.052  0.00  0.00    +0.004 C 
ATOM     17  C   UNL     1      35.066 -17.466 -23.036  0.00  0.00    +0.037 C 
ATOM     18  C   UNL     1      34.683 -19.682 -23.971  0.00  0.00    +0.000 C 
ATOM     19  C   UNL     1      35.221 -18.854 -22.983  0.00  0.00    +0.003 C 
ENDROOT
BRANCH   3  21
ATOM     20  S   UNL     1      35.186  -8.518 -24.229  0.00  0.00    -0.019 S 
ATOM     21  C   UNL     1      33.717  -9.298 -24.049  0.00  0.00    +0.135 C 
BRANCH  21  22
ATOM     22  N   UNL     1      32.671  -8.701 -23.390  0.00  0.00    -0.312 N 
ATOM     23  H   UNL     1      31.784  -8.763 -23.811  0.00  0.00    +0.149 HD
BRANCH  22  24
ATOM     24  C   UNL     1      32.753  -7.989 -22.130  0.00  0.00    +0.116 C 
BRANCH  24  27
ATOM     25  O   UNL     1      30.895  -3.942 -24.262  0.00  0.00    -0.435 OA
ATOM     26  O   UNL     1      29.682  -3.312 -22.278  0.00  0.00    -0.435 OA
ATOM     27  C   UNL     1      31.919  -6.741 -22.135  0.00  0.00    +0.001 C 
ATOM     28  C   UNL     1      31.858  -5.963 -23.287  0.00  0.00    +0.038 C 
ATOM     29  C   UNL     1      31.216  -6.381 -20.977  0.00  0.00    +0.001 C 
ATOM     30  C   UNL     1      31.078  -4.825 -23.243  0.00  0.00    +0.176 C 
ATOM     31  C   UNL     1      30.385  -4.466 -22.110  0.00  0.00    +0.176 C 
ATOM     32  C   UNL     1      30.434  -5.224 -20.958  0.00  0.00    +0.040 C 
ATOM     33  C   UNL     1      30.009  -2.987 -23.644  0.00  0.00    +0.429 C 
ENDBRANCH  24  27
ENDBRANCH  22  24
ENDBRANCH  21  22
ENDBRANCH   3  21
TORSDOF 4
ENDMDL
MODEL 8
REMARK VINA RESULT:     -11.4      2.816      4.552
REMARK  Name = 11282283
REMARK  4 active torsions:
REMARK  status: ('A' for Active; 'I' for Inactive)
REMARK    1  A    between atoms: N_3  and  C_21
REMARK    2  A    between atoms: C_21  and  N_22
REMARK    3  A    between atoms: N_22  and  C_24
REMARK    4  A    between atoms: C_24  and  C_27
REMARK                            x       y       z     vdW  Elec       q    Type
REMARK                         _______ _______ _______ _____ _____    ______ ____
ROOT
ATOM      1  O   UNL     1      33.847  -9.167 -25.949  0.00  0.00    -0.466 OA
ATOM      2  N   UNL     1      32.804 -11.382 -24.316  0.00  0.00    -0.290 N 
ATOM      3  N   UNL     1      33.320 -14.159 -24.871  0.00  0.00    -0.288 N 
ATOM      4  N   UNL     1      31.791  -9.669 -22.992  0.00  0.00    -0.230 NA
ATOM      5  N   UNL     1      32.058  -7.301 -23.526  0.00  0.00    -0.245 NA
ATOM      6  C   UNL     1      32.856 -12.367 -23.231  0.00  0.00    +0.113 C 
ATOM      7  C   UNL     1      33.021 -11.845 -25.691  0.00  0.00    +0.113 C 
ATOM      8  C   UNL     1      33.741 -13.551 -23.618  0.00  0.00    +0.114 C 
ATOM      9  C   UNL     1      32.631 -13.314 -25.835  0.00  0.00    +0.114 C 
ATOM     10  C   UNL     1      32.551 -10.038 -24.048  0.00  0.00    +0.152 C 
ATOM     11  C   UNL     1      33.066  -9.038 -24.845  0.00  0.00    +0.258 C 
ATOM     12  C   UNL     1      32.816  -7.699 -24.578  0.00  0.00    +0.106 C 
ATOM     13  C   UNL     1      33.488  -6.957 -25.582  0.00  0.00    +0.051 C 
ATOM     14  C   UNL     1      34.105  -7.904 -26.398  0.00  0.00    +0.141 C 
ATOM     15  C   UNL     1      31.595  -8.343 -22.799  0.00  0.00    +0.251 C 
ATOM     16  C   UNL     1      33.645  -5.596 -25.896  0.00  0.00    +0.004 C 
ATOM     17  C   UNL     1      34.876  -7.585 -27.515  0.00  0.00    +0.037 C 
ATOM     18  C   UNL     1      34.415  -5.247 -27.014  0.00  0.00    +0.000 C 
ATOM     19  C   UNL     1      35.018  -6.226 -27.807  0.00  0.00    +0.003 C 
ENDROOT
BRANCH   3  21
ATOM     20  S   UNL     1      32.994 -16.193 -26.528  0.00  0.00    -0.019 S 
ATOM     21  C   UNL     1      33.562 -15.469 -25.131  0.00  0.00    +0.135 C 
BRANCH  21  22
ATOM     22  N   UNL     1      34.292 -16.177 -24.210  0.00  0.00    -0.312 N 
ATOM     23  H   UNL     1      34.470 -15.737 -23.348  0.00  0.00    +0.149 HD
BRANCH  22  24
ATOM     24  C   UNL     1      34.822 -17.515 -24.389  0.00  0.00    +0.116 C 
BRANCH  24  27
ATOM     25  O   UNL     1      32.700 -20.404 -20.994  0.00  0.00    -0.435 OA
ATOM     26  O   UNL     1      34.686 -20.460 -19.631  0.00  0.00    -0.435 OA
ATOM     27  C   UNL     1      34.820 -18.295 -23.106  0.00  0.00    +0.001 C 
ATOM     28  C   UNL     1      33.670 -18.977 -22.721  0.00  0.00    +0.038 C 
ATOM     29  C   UNL     1      35.980 -18.323 -22.319  0.00  0.00    +0.001 C 
ATOM     30  C   UNL     1      33.717 -19.681 -21.535  0.00  0.00    +0.176 C 
ATOM     31  C   UNL     1      34.852 -19.713 -20.757  0.00  0.00    +0.176 C 
ATOM     32  C   UNL     1      36.002 -19.042 -21.123  0.00  0.00    +0.040 C 
ATOM     33  C   UNL     1      33.321 -20.896 -19.789  0.00  0.00    +0.429 C 
ENDBRANCH  24  27
ENDBRANCH  22  24
ENDBRANCH  21  22
ENDBRANCH   3  21
TORSDOF 4
ENDMDL
MODEL 9
REMARK VINA RESULT:     -11.4      2.595      4.283
REMARK  Name = 11282283
REMARK  4 active torsions:
REMARK  status: ('A' for Active; 'I' for Inactive)
REMARK    1  A    between atoms: N_3  and  C_21
REMARK    2  A    between atoms: C_21  and  N_22
REMARK    3  A    between atoms: N_22  and  C_24
REMARK    4  A    between atoms: C_24  and  C_27
REMARK                            x       y       z     vdW  Elec       q    Type
REMARK                         _______ _______ _______ _____ _____    ______ ____
ROOT
ATOM      1  O   UNL     1      32.264  -9.067 -23.013  0.00  0.00    -0.466 OA
ATOM      2  N   UNL     1      32.909 -10.339 -25.586  0.00  0.00    -0.290 N 
ATOM      3  N   UNL     1      32.770 -13.177 -26.047  0.00  0.00    -0.288 N 
ATOM      4  N   UNL     1      33.359  -8.119 -26.347  0.00  0.00    -0.230 NA
ATOM      5  N   UNL     1      33.109  -6.180 -24.884  0.00  0.00    -0.245 NA
ATOM      6  C   UNL     1      32.596 -10.869 -26.918  0.00  0.00    +0.113 C 
ATOM      7  C   UNL     1      33.149 -11.289 -24.494  0.00  0.00    +0.113 C 
ATOM      8  C   UNL     1      31.950 -12.249 -26.812  0.00  0.00    +0.114 C 
ATOM      9  C   UNL     1      33.660 -12.621 -25.040  0.00  0.00    +0.114 C 
ATOM     10  C   UNL     1      32.980  -8.965 -25.364  0.00  0.00    +0.152 C 
ATOM     11  C   UNL     1      32.664  -8.419 -24.137  0.00  0.00    +0.258 C 
ATOM     12  C   UNL     1      32.733  -7.051 -23.916  0.00  0.00    +0.106 C 
ATOM     13  C   UNL     1      32.348  -6.843 -22.566  0.00  0.00    +0.051 C 
ATOM     14  C   UNL     1      32.070  -8.111 -22.057  0.00  0.00    +0.141 C 
ATOM     15  C   UNL     1      33.399  -6.797 -26.051  0.00  0.00    +0.251 C 
ATOM     16  C   UNL     1      32.203  -5.732 -21.718  0.00  0.00    +0.004 C 
ATOM     17  C   UNL     1      31.654  -8.350 -20.748  0.00  0.00    +0.037 C 
ATOM     18  C   UNL     1      31.786  -5.943 -20.397  0.00  0.00    +0.000 C 
ATOM     19  C   UNL     1      31.517  -7.230 -19.923  0.00  0.00    +0.003 C 
ENDROOT
BRANCH   3  21
ATOM     20  S   UNL     1      32.234 -15.126 -27.751  0.00  0.00    -0.019 S 
ATOM     21  C   UNL     1      32.704 -14.515 -26.266  0.00  0.00    +0.135 C 
BRANCH  21  22
ATOM     22  N   UNL     1      33.039 -15.347 -25.228  0.00  0.00    -0.312 N 
ATOM     23  H   UNL     1      32.749 -15.078 -24.327  0.00  0.00    +0.149 HD
BRANCH  22  24
ATOM     24  C   UNL     1      33.780 -16.589 -25.337  0.00  0.00    +0.116 C 
BRANCH  24  27
ATOM     25  O   UNL     1      34.811 -20.155 -22.081  0.00  0.00    -0.435 OA
ATOM     26  O   UNL     1      35.470 -18.576 -20.385  0.00  0.00    -0.435 OA
ATOM     27  C   UNL     1      34.239 -17.088 -23.997  0.00  0.00    +0.001 C 
ATOM     28  C   UNL     1      34.277 -18.457 -23.752  0.00  0.00    +0.038 C 
ATOM     29  C   UNL     1      34.621 -16.163 -23.015  0.00  0.00    +0.001 C 
ATOM     30  C   UNL     1      34.707 -18.867 -22.507  0.00  0.00    +0.176 C 
ATOM     31  C   UNL     1      35.084 -17.965 -21.538  0.00  0.00    +0.176 C 
ATOM     32  C   UNL     1      35.052 -16.603 -21.762  0.00  0.00    +0.040 C 
ATOM     33  C   UNL     1      35.296 -19.963 -20.736  0.00  0.00    +0.429 C 
ENDBRANCH  24  27
ENDBRANCH  22  24
ENDBRANCH  21  22
ENDBRANCH   3  21
TORSDOF 4
ENDMDL
