MODEL 1
REMARK VINA RESULT:     -12.6      0.000      0.000
REMARK  Name = 25058128
REMARK  13 active torsions:
REMARK  status: ('A' for Active; 'I' for Inactive)
REMARK    1  A    between atoms: C_1  and  S_11
REMARK    2  A    between atoms: C_9  and  O_27
REMARK    3  A    between atoms: S_11  and  N_14
REMARK    4  A    between atoms: N_14  and  C_16
REMARK    5  A    between atoms: C_16  and  C_18
REMARK    6  A    between atoms: C_16  and  C_21
REMARK    7  A    between atoms: C_18  and  O_19
REMARK    8  A    between atoms: C_21  and  C_22
REMARK    9  A    between atoms: C_22  and  C_24
REMARK   10  A    between atoms: C_24  and  O_25
REMARK   11  A    between atoms: O_27  and  C_28
REMARK   12  A    between atoms: C_28  and  C_30
REMARK   13  A    between atoms: C_35  and  C_37
REMARK                            x       y       z     vdW  Elec       q    Type
REMARK                         _______ _______ _______ _____ _____    ______ ____
ROOT
ATOM      1  C   UNL     1      35.699 -22.781 -16.709  0.00  0.00    +0.122 C 
ATOM      2  C   UNL     1      34.221 -21.951 -18.453  0.00  0.00    +0.002 C 
ATOM      3  C   UNL     1      34.434 -22.710 -17.290  0.00  0.00    +0.020 C 
ATOM      4  C   UNL     1      35.309 -21.255 -19.033  0.00  0.00    +0.003 C 
ATOM      5  C   UNL     1      36.768 -22.097 -17.279  0.00  0.00    +0.020 C 
ATOM      6  C   UNL     1      36.575 -21.338 -18.434  0.00  0.00    +0.001 C 
ATOM      7  C   UNL     1      35.096 -20.496 -20.195  0.00  0.00    +0.037 C 
ATOM      8  C   UNL     1      32.954 -21.868 -19.053  0.00  0.00    +0.003 C 
ATOM      9  C   UNL     1      33.830 -20.424 -20.778  0.00  0.00    +0.139 C 
ATOM     10  C   UNL     1      32.761 -21.109 -20.208  0.00  0.00    +0.037 C 
ENDROOT
BRANCH   1  11
ATOM     11  S   UNL     1      35.946 -23.742 -15.245  0.00  0.00    +0.061 S 
ATOM     12  O   UNL     1      35.585 -22.922 -14.106  0.00  0.00    -0.153 OA
ATOM     13  O   UNL     1      35.291 -25.018 -15.463  0.00  0.00    -0.153 OA
BRANCH  11  14
ATOM     14  N   UNL     1      37.628 -23.978 -15.261  0.00  0.00    -0.170 NA
ATOM     15  H   UNL     1      38.049 -23.132 -14.874  0.00  0.00    +0.149 HD
BRANCH  14  16
ATOM     16  C   UNL     1      38.222 -25.121 -14.534  0.00  0.00    +0.174 C 
BRANCH  16  18
ATOM     17  O   UNL     1      40.626 -24.799 -14.362  0.00  0.00    -0.249 OA
ATOM     18  C   UNL     1      39.662 -25.254 -14.965  0.00  0.00    +0.330 C 
BRANCH  18  19
ATOM     19  O   UNL     1      39.790 -25.967 -16.115  0.00  0.00    -0.479 OA
ATOM     20  H   UNL     1      40.612 -25.991 -16.563  0.00  0.00    +0.295 HD
ENDBRANCH  18  19
ENDBRANCH  16  18
BRANCH  16  21
ATOM     21  C   UNL     1      38.021 -24.959 -13.023  0.00  0.00    +0.040 C 
BRANCH  21  22
ATOM     22  C   UNL     1      36.946 -25.839 -12.380  0.00  0.00    +0.111 C 
BRANCH  22  24
ATOM     23  O   UNL     1      36.132 -24.532 -10.518  0.00  0.00    -0.250 OA
ATOM     24  C   UNL     1      35.913 -25.068 -11.597  0.00  0.00    +0.314 C 
BRANCH  24  25
ATOM     25  O   UNL     1      34.701 -25.043 -12.207  0.00  0.00    -0.480 OA
ATOM     26  H   UNL     1      34.565 -25.531 -12.996  0.00  0.00    +0.295 HD
ENDBRANCH  24  25
ENDBRANCH  22  24
ENDBRANCH  21  22
ENDBRANCH  16  21
ENDBRANCH  14  16
ENDBRANCH  11  14
ENDBRANCH   1  11
BRANCH   9  27
ATOM     27  O   UNL     1      33.640 -19.683 -21.903  0.00  0.00    -0.471 OA
BRANCH  27  28
ATOM     28  C   UNL     1      34.803 -19.155 -22.538  0.00  0.00    +0.234 C 
BRANCH  28  30
ATOM     29  F   UNL     1      35.160 -17.152 -20.570  0.00  0.00    -0.204 F 
ATOM     30  C   UNL     1      34.593 -17.695 -22.810  0.00  0.00    +0.049 C 
ATOM     31  C   UNL     1      34.785 -16.758 -21.795  0.00  0.00    +0.140 C 
ATOM     32  C   UNL     1      34.204 -17.275 -24.082  0.00  0.00    +0.002 C 
ATOM     33  C   UNL     1      34.588 -15.401 -22.053  0.00  0.00    +0.040 C 
ATOM     34  C   UNL     1      34.006 -15.918 -24.339  0.00  0.00    +0.010 C 
ATOM     35  C   UNL     1      34.198 -14.981 -23.324  0.00  0.00    +0.071 C 
BRANCH  35  37
ATOM     36  N   UNL     1      33.836 -12.462 -23.803  0.00  0.00    -0.191 NA
ATOM     37  C   UNL     1      33.998 -13.591 -23.588  0.00  0.00    +0.100 C 
ENDBRANCH  35  37
ENDBRANCH  28  30
ENDBRANCH  27  28
ENDBRANCH   9  27
TORSDOF 13
ENDMDL
MODEL 2
REMARK VINA RESULT:     -12.4      1.498      3.011
REMARK  Name = 25058128
REMARK  13 active torsions:
REMARK  status: ('A' for Active; 'I' for Inactive)
REMARK    1  A    between atoms: C_1  and  S_11
REMARK    2  A    between atoms: C_9  and  O_27
REMARK    3  A    between atoms: S_11  and  N_14
REMARK    4  A    between atoms: N_14  and  C_16
REMARK    5  A    between atoms: C_16  and  C_18
REMARK    6  A    between atoms: C_16  and  C_21
REMARK    7  A    between atoms: C_18  and  O_19
REMARK    8  A    between atoms: C_21  and  C_22
REMARK    9  A    between atoms: C_22  and  C_24
REMARK   10  A    between atoms: C_24  and  O_25
REMARK   11  A    between atoms: O_27  and  C_28
REMARK   12  A    between atoms: C_28  and  C_30
REMARK   13  A    between atoms: C_35  and  C_37
REMARK                            x       y       z     vdW  Elec       q    Type
REMARK                         _______ _______ _______ _____ _____    ______ ____
ROOT
ATOM      1  C   UNL     1      35.548 -23.200 -15.659  0.00  0.00    +0.122 C 
ATOM      2  C   UNL     1      34.538 -22.372 -17.711  0.00  0.00    +0.002 C 
ATOM      3  C   UNL     1      34.444 -23.082 -16.503  0.00  0.00    +0.020 C 
ATOM      4  C   UNL     1      35.770 -21.773 -18.067  0.00  0.00    +0.003 C 
ATOM      5  C   UNL     1      36.759 -22.612 -16.009  0.00  0.00    +0.020 C 
ATOM      6  C   UNL     1      36.871 -21.902 -17.205  0.00  0.00    +0.001 C 
ATOM      7  C   UNL     1      35.865 -21.062 -19.275  0.00  0.00    +0.037 C 
ATOM      8  C   UNL     1      33.437 -22.243 -18.573  0.00  0.00    +0.003 C 
ATOM      9  C   UNL     1      34.760 -20.944 -20.119  0.00  0.00    +0.139 C 
ATOM     10  C   UNL     1      33.549 -21.533 -19.770  0.00  0.00    +0.037 C 
ENDROOT
BRANCH   1  11
ATOM     11  S   UNL     1      35.408 -24.099 -14.143  0.00  0.00    +0.061 S 
ATOM     12  O   UNL     1      34.102 -23.823 -13.578  0.00  0.00    -0.153 OA
ATOM     13  O   UNL     1      35.810 -25.464 -14.423  0.00  0.00    -0.153 OA
BRANCH  11  14
ATOM     14  N   UNL     1      36.603 -23.359 -13.188  0.00  0.00    -0.170 NA
ATOM     15  H   UNL     1      36.163 -22.561 -12.729  0.00  0.00    +0.149 HD
BRANCH  14  16
ATOM     16  C   UNL     1      37.289 -24.135 -12.130  0.00  0.00    +0.174 C 
BRANCH  16  18
ATOM     17  O   UNL     1      36.045 -23.856 -10.060  0.00  0.00    -0.249 OA
ATOM     18  C   UNL     1      36.269 -24.497 -11.079  0.00  0.00    +0.330 C 
BRANCH  18  19
ATOM     19  O   UNL     1      35.588 -25.629 -11.395  0.00  0.00    -0.479 OA
ATOM     20  H   UNL     1      36.040 -26.358 -11.772  0.00  0.00    +0.295 HD
ENDBRANCH  18  19
ENDBRANCH  16  18
BRANCH  16  21
ATOM     21  C   UNL     1      38.032 -25.331 -12.738  0.00  0.00    +0.040 C 
BRANCH  21  22
ATOM     22  C   UNL     1      39.205 -25.004 -13.666  0.00  0.00    +0.111 C 
BRANCH  22  24
ATOM     23  O   UNL     1      40.574 -26.528 -14.947  0.00  0.00    -0.250 OA
ATOM     24  C   UNL     1      39.467 -26.057 -14.713  0.00  0.00    +0.314 C 
BRANCH  24  25
ATOM     25  O   UNL     1      38.348 -26.421 -15.386  0.00  0.00    -0.480 OA
ATOM     26  H   UNL     1      38.036 -27.304 -15.334  0.00  0.00    +0.295 HD
ENDBRANCH  24  25
ENDBRANCH  22  24
ENDBRANCH  21  22
ENDBRANCH  16  21
ENDBRANCH  14  16
ENDBRANCH  11  14
ENDBRANCH   1  11
BRANCH   9  27
ATOM     27  O   UNL     1      34.867 -20.251 -21.286  0.00  0.00    -0.471 OA
BRANCH  27  28
ATOM     28  C   UNL     1      35.019 -18.836 -21.190  0.00  0.00    +0.234 C 
BRANCH  28  30
ATOM     29  F   UNL     1      35.075 -16.042 -21.640  0.00  0.00    -0.204 F 
ATOM     30  C   UNL     1      34.636 -18.211 -22.498  0.00  0.00    +0.049 C 
ATOM     31  C   UNL     1      34.684 -16.826 -22.655  0.00  0.00    +0.140 C 
ATOM     32  C   UNL     1      34.229 -19.019 -23.560  0.00  0.00    +0.002 C 
ATOM     33  C   UNL     1      34.326 -16.249 -23.873  0.00  0.00    +0.040 C 
ATOM     34  C   UNL     1      33.870 -18.441 -24.778  0.00  0.00    +0.010 C 
ATOM     35  C   UNL     1      33.918 -17.056 -24.935  0.00  0.00    +0.071 C 
BRANCH  35  37
ATOM     36  N   UNL     1      33.257 -15.985 -27.198  0.00  0.00    -0.191 NA
ATOM     37  C   UNL     1      33.553 -16.465 -26.183  0.00  0.00    +0.100 C 
ENDBRANCH  35  37
ENDBRANCH  28  30
ENDBRANCH  27  28
ENDBRANCH   9  27
TORSDOF 13
ENDMDL
MODEL 3
REMARK VINA RESULT:     -12.3      1.605      2.282
REMARK  Name = 25058128
REMARK  13 active torsions:
REMARK  status: ('A' for Active; 'I' for Inactive)
REMARK    1  A    between atoms: C_1  and  S_11
REMARK    2  A    between atoms: C_9  and  O_27
REMARK    3  A    between atoms: S_11  and  N_14
REMARK    4  A    between atoms: N_14  and  C_16
REMARK    5  A    between atoms: C_16  and  C_18
REMARK    6  A    between atoms: C_16  and  C_21
REMARK    7  A    between atoms: C_18  and  O_19
REMARK    8  A    between atoms: C_21  and  C_22
REMARK    9  A    between atoms: C_22  and  C_24
REMARK   10  A    between atoms: C_24  and  O_25
REMARK   11  A    between atoms: O_27  and  C_28
REMARK   12  A    between atoms: C_28  and  C_30
REMARK   13  A    between atoms: C_35  and  C_37
REMARK                            x       y       z     vdW  Elec       q    Type
REMARK                         _______ _______ _______ _____ _____    ______ ____
ROOT
ATOM      1  C   UNL     1      34.312 -23.469 -16.469  0.00  0.00    +0.122 C 
ATOM      2  C   UNL     1      35.016 -22.013 -18.286  0.00  0.00    +0.002 C 
ATOM      3  C   UNL     1      35.318 -22.788 -17.155  0.00  0.00    +0.020 C 
ATOM      4  C   UNL     1      33.673 -21.928 -18.728  0.00  0.00    +0.003 C 
ATOM      5  C   UNL     1      32.993 -23.386 -16.904  0.00  0.00    +0.020 C 
ATOM      6  C   UNL     1      32.674 -22.620 -18.026  0.00  0.00    +0.001 C 
ATOM      7  C   UNL     1      33.370 -21.153 -19.860  0.00  0.00    +0.037 C 
ATOM      8  C   UNL     1      36.015 -21.320 -18.989  0.00  0.00    +0.003 C 
ATOM      9  C   UNL     1      34.377 -20.472 -20.546  0.00  0.00    +0.139 C 
ATOM     10  C   UNL     1      35.696 -20.555 -20.111  0.00  0.00    +0.037 C 
ENDROOT
BRANCH   1  11
ATOM     11  S   UNL     1      34.714 -24.440 -15.047  0.00  0.00    +0.061 S 
ATOM     12  O   UNL     1      33.719 -24.173 -14.028  0.00  0.00    -0.153 OA
ATOM     13  O   UNL     1      34.939 -25.795 -15.511  0.00  0.00    -0.153 OA
BRANCH  11  14
ATOM     14  N   UNL     1      36.201 -23.767 -14.574  0.00  0.00    -0.170 NA
ATOM     15  H   UNL     1      35.993 -23.048 -13.880  0.00  0.00    +0.149 HD
BRANCH  14  16
ATOM     16  C   UNL     1      37.252 -24.631 -13.992  0.00  0.00    +0.174 C 
BRANCH  16  18
ATOM     17  O   UNL     1      39.388 -25.388 -14.873  0.00  0.00    -0.249 OA
ATOM     18  C   UNL     1      38.439 -24.616 -14.925  0.00  0.00    +0.330 C 
BRANCH  18  19
ATOM     19  O   UNL     1      38.338 -23.644 -15.868  0.00  0.00    -0.479 OA
ATOM     20  H   UNL     1      38.024 -22.793 -15.633  0.00  0.00    +0.295 HD
ENDBRANCH  18  19
ENDBRANCH  16  18
BRANCH  16  21
ATOM     21  C   UNL     1      37.564 -24.201 -12.554  0.00  0.00    +0.040 C 
BRANCH  21  22
ATOM     22  C   UNL     1      36.469 -23.421 -11.822  0.00  0.00    +0.111 C 
BRANCH  22  24
ATOM     23  O   UNL     1      35.730 -24.264  -9.682  0.00  0.00    -0.250 OA
ATOM     24  C   UNL     1      35.626 -24.269 -10.903  0.00  0.00    +0.314 C 
BRANCH  24  25
ATOM     25  O   UNL     1      34.747 -25.056 -11.571  0.00  0.00    -0.480 OA
ATOM     26  H   UNL     1      34.163 -24.677 -12.199  0.00  0.00    +0.295 HD
ENDBRANCH  24  25
ENDBRANCH  22  24
ENDBRANCH  21  22
ENDBRANCH  16  21
ENDBRANCH  14  16
ENDBRANCH  11  14
ENDBRANCH   1  11
BRANCH   9  27
ATOM     27  O   UNL     1      34.067 -19.726 -21.641  0.00  0.00    -0.471 OA
BRANCH  27  28
ATOM     28  C   UNL     1      35.128 -18.988 -22.245  0.00  0.00    +0.234 C 
BRANCH  28  30
ATOM     29  F   UNL     1      34.932 -16.166 -22.372  0.00  0.00    -0.204 F 
ATOM     30  C   UNL     1      34.598 -18.258 -23.444  0.00  0.00    +0.049 C 
ATOM     31  C   UNL     1      34.526 -16.865 -23.441  0.00  0.00    +0.140 C 
ATOM     32  C   UNL     1      34.174 -18.976 -24.562  0.00  0.00    +0.002 C 
ATOM     33  C   UNL     1      34.032 -16.190 -24.558  0.00  0.00    +0.040 C 
ATOM     34  C   UNL     1      33.679 -18.300 -25.678  0.00  0.00    +0.010 C 
ATOM     35  C   UNL     1      33.607 -16.907 -25.676  0.00  0.00    +0.071 C 
BRANCH  35  37
ATOM     36  N   UNL     1      32.693 -15.654 -27.749  0.00  0.00    -0.191 NA
ATOM     37  C   UNL     1      33.102 -16.216 -26.819  0.00  0.00    +0.100 C 
ENDBRANCH  35  37
ENDBRANCH  28  30
ENDBRANCH  27  28
ENDBRANCH   9  27
TORSDOF 13
ENDMDL
MODEL 4
REMARK VINA RESULT:     -12.1      1.028      1.647
REMARK  Name = 25058128
REMARK  13 active torsions:
REMARK  status: ('A' for Active; 'I' for Inactive)
REMARK    1  A    between atoms: C_1  and  S_11
REMARK    2  A    between atoms: C_9  and  O_27
REMARK    3  A    between atoms: S_11  and  N_14
REMARK    4  A    between atoms: N_14  and  C_16
REMARK    5  A    between atoms: C_16  and  C_18
REMARK    6  A    between atoms: C_16  and  C_21
REMARK    7  A    between atoms: C_18  and  O_19
REMARK    8  A    between atoms: C_21  and  C_22
REMARK    9  A    between atoms: C_22  and  C_24
REMARK   10  A    between atoms: C_24  and  O_25
REMARK   11  A    between atoms: O_27  and  C_28
REMARK   12  A    between atoms: C_28  and  C_30
REMARK   13  A    between atoms: C_35  and  C_37
REMARK                            x       y       z     vdW  Elec       q    Type
REMARK                         _______ _______ _______ _____ _____    ______ ____
ROOT
ATOM      1  C   UNL     1      34.281 -23.485 -16.559  0.00  0.00    +0.122 C 
ATOM      2  C   UNL     1      34.943 -22.008 -18.375  0.00  0.00    +0.002 C 
ATOM      3  C   UNL     1      35.271 -22.797 -17.260  0.00  0.00    +0.020 C 
ATOM      4  C   UNL     1      33.590 -21.916 -18.784  0.00  0.00    +0.003 C 
ATOM      5  C   UNL     1      32.952 -23.396 -16.962  0.00  0.00    +0.020 C 
ATOM      6  C   UNL     1      32.607 -22.617 -18.067  0.00  0.00    +0.001 C 
ATOM      7  C   UNL     1      33.262 -21.128 -19.899  0.00  0.00    +0.037 C 
ATOM      8  C   UNL     1      35.926 -21.307 -19.093  0.00  0.00    +0.003 C 
ATOM      9  C   UNL     1      34.252 -20.439 -20.600  0.00  0.00    +0.139 C 
ATOM     10  C   UNL     1      35.581 -20.528 -20.198  0.00  0.00    +0.037 C 
ENDROOT
BRANCH   1  11
ATOM     11  S   UNL     1      34.716 -24.473 -15.159  0.00  0.00    +0.061 S 
ATOM     12  O   UNL     1      33.736 -24.230 -14.119  0.00  0.00    -0.153 OA
ATOM     13  O   UNL     1      34.944 -25.819 -15.647  0.00  0.00    -0.153 OA
BRANCH  11  14
ATOM     14  N   UNL     1      36.205 -23.794 -14.702  0.00  0.00    -0.170 NA
ATOM     15  H   UNL     1      36.008 -23.122 -13.959  0.00  0.00    +0.149 HD
BRANCH  14  16
ATOM     16  C   UNL     1      37.295 -24.666 -14.211  0.00  0.00    +0.174 C 
BRANCH  16  18
ATOM     17  O   UNL     1      39.624 -24.903 -14.869  0.00  0.00    -0.249 OA
ATOM     18  C   UNL     1      38.530 -24.377 -15.030  0.00  0.00    +0.330 C 
BRANCH  18  19
ATOM     19  O   UNL     1      38.295 -23.463 -16.007  0.00  0.00    -0.479 OA
ATOM     20  H   UNL     1      37.963 -23.741 -16.838  0.00  0.00    +0.295 HD
ENDBRANCH  18  19
ENDBRANCH  16  18
BRANCH  16  21
ATOM     21  C   UNL     1      37.479 -24.495 -12.698  0.00  0.00    +0.040 C 
BRANCH  21  22
ATOM     22  C   UNL     1      36.482 -25.236 -11.803  0.00  0.00    +0.111 C 
BRANCH  22  24
ATOM     23  O   UNL     1      35.602 -24.315  -9.750  0.00  0.00    -0.250 OA
ATOM     24  C   UNL     1      35.610 -24.326 -10.975  0.00  0.00    +0.314 C 
BRANCH  24  25
ATOM     25  O   UNL     1      34.817 -23.526 -11.731  0.00  0.00    -0.480 OA
ATOM     26  H   UNL     1      35.113 -22.671 -11.975  0.00  0.00    +0.295 HD
ENDBRANCH  24  25
ENDBRANCH  22  24
ENDBRANCH  21  22
ENDBRANCH  16  21
ENDBRANCH  14  16
ENDBRANCH  11  14
ENDBRANCH   1  11
BRANCH   9  27
ATOM     27  O   UNL     1      33.918 -19.680 -21.679  0.00  0.00    -0.471 OA
BRANCH  27  28
ATOM     28  C   UNL     1      34.989 -19.141 -22.451  0.00  0.00    +0.234 C 
BRANCH  28  30
ATOM     29  F   UNL     1      35.186 -17.116 -20.483  0.00  0.00    -0.204 F 
ATOM     30  C   UNL     1      34.709 -17.694 -22.735  0.00  0.00    +0.049 C 
ATOM     31  C   UNL     1      34.824 -16.746 -21.719  0.00  0.00    +0.140 C 
ATOM     32  C   UNL     1      34.333 -17.299 -24.019  0.00  0.00    +0.002 C 
ATOM     33  C   UNL     1      34.562 -15.402 -21.987  0.00  0.00    +0.040 C 
ATOM     34  C   UNL     1      34.071 -15.955 -24.286  0.00  0.00    +0.010 C 
ATOM     35  C   UNL     1      34.186 -15.006 -23.270  0.00  0.00    +0.071 C 
BRANCH  35  37
ATOM     36  N   UNL     1      33.704 -12.511 -23.766  0.00  0.00    -0.191 NA
ATOM     37  C   UNL     1      33.920 -13.629 -23.544  0.00  0.00    +0.100 C 
ENDBRANCH  35  37
ENDBRANCH  28  30
ENDBRANCH  27  28
ENDBRANCH   9  27
TORSDOF 13
ENDMDL
MODEL 5
REMARK VINA RESULT:     -12.0      1.845      3.532
REMARK  Name = 25058128
REMARK  13 active torsions:
REMARK  status: ('A' for Active; 'I' for Inactive)
REMARK    1  A    between atoms: C_1  and  S_11
REMARK    2  A    between atoms: C_9  and  O_27
REMARK    3  A    between atoms: S_11  and  N_14
REMARK    4  A    between atoms: N_14  and  C_16
REMARK    5  A    between atoms: C_16  and  C_18
REMARK    6  A    between atoms: C_16  and  C_21
REMARK    7  A    between atoms: C_18  and  O_19
REMARK    8  A    between atoms: C_21  and  C_22
REMARK    9  A    between atoms: C_22  and  C_24
REMARK   10  A    between atoms: C_24  and  O_25
REMARK   11  A    between atoms: O_27  and  C_28
REMARK   12  A    between atoms: C_28  and  C_30
REMARK   13  A    between atoms: C_35  and  C_37
REMARK                            x       y       z     vdW  Elec       q    Type
REMARK                         _______ _______ _______ _____ _____    ______ ____
ROOT
ATOM      1  C   UNL     1      33.325 -23.604 -15.385  0.00  0.00    +0.122 C 
ATOM      2  C   UNL     1      34.690 -22.533 -17.090  0.00  0.00    +0.002 C 
ATOM      3  C   UNL     1      34.558 -23.121 -15.822  0.00  0.00    +0.020 C 
ATOM      4  C   UNL     1      33.552 -22.435 -17.928  0.00  0.00    +0.003 C 
ATOM      5  C   UNL     1      32.207 -23.507 -16.209  0.00  0.00    +0.020 C 
ATOM      6  C   UNL     1      32.319 -22.927 -17.473  0.00  0.00    +0.001 C 
ATOM      7  C   UNL     1      33.683 -21.847 -19.197  0.00  0.00    +0.037 C 
ATOM      8  C   UNL     1      35.923 -22.041 -17.547  0.00  0.00    +0.003 C 
ATOM      9  C   UNL     1      34.917 -21.364 -19.634  0.00  0.00    +0.139 C 
ATOM     10  C   UNL     1      36.035 -21.460 -18.811  0.00  0.00    +0.037 C 
ENDROOT
BRANCH   1  11
ATOM     11  S   UNL     1      33.181 -24.341 -13.784  0.00  0.00    +0.061 S 
ATOM     12  O   UNL     1      32.846 -23.294 -12.839  0.00  0.00    -0.153 OA
ATOM     13  O   UNL     1      32.320 -25.498 -13.928  0.00  0.00    -0.153 OA
BRANCH  11  14
ATOM     14  N   UNL     1      34.771 -24.870 -13.500  0.00  0.00    -0.170 NA
ATOM     15  H   UNL     1      35.189 -25.052 -14.413  0.00  0.00    +0.149 HD
BRANCH  14  16
ATOM     16  C   UNL     1      35.717 -24.005 -12.762  0.00  0.00    +0.174 C 
BRANCH  16  18
ATOM     17  O   UNL     1      35.050 -25.356 -10.852  0.00  0.00    -0.249 OA
ATOM     18  C   UNL     1      35.715 -24.437 -11.315  0.00  0.00    +0.330 C 
BRANCH  18  19
ATOM     19  O   UNL     1      36.564 -23.696 -10.558  0.00  0.00    -0.479 OA
ATOM     20  H   UNL     1      37.151 -24.118  -9.962  0.00  0.00    +0.295 HD
ENDBRANCH  18  19
ENDBRANCH  16  18
BRANCH  16  21
ATOM     21  C   UNL     1      37.096 -24.025 -13.432  0.00  0.00    +0.040 C 
BRANCH  21  22
ATOM     22  C   UNL     1      37.983 -25.237 -13.131  0.00  0.00    +0.111 C 
BRANCH  22  24
ATOM     23  O   UNL     1      40.207 -25.118 -14.066  0.00  0.00    -0.250 OA
ATOM     24  C   UNL     1      39.044 -25.490 -14.171  0.00  0.00    +0.314 C 
BRANCH  24  25
ATOM     25  O   UNL     1      38.574 -26.161 -15.251  0.00  0.00    -0.480 OA
ATOM     26  H   UNL     1      38.072 -26.945 -15.133  0.00  0.00    +0.295 HD
ENDBRANCH  24  25
ENDBRANCH  22  24
ENDBRANCH  21  22
ENDBRANCH  16  21
ENDBRANCH  14  16
ENDBRANCH  11  14
ENDBRANCH   1  11
BRANCH   9  27
ATOM     27  O   UNL     1      35.028 -20.798 -20.867  0.00  0.00    -0.471 OA
BRANCH  27  28
ATOM     28  C   UNL     1      35.586 -19.487 -20.933  0.00  0.00    +0.234 C 
BRANCH  28  30
ATOM     29  F   UNL     1      35.225 -16.688 -21.155  0.00  0.00    -0.204 F 
ATOM     30  C   UNL     1      35.124 -18.820 -22.194  0.00  0.00    +0.049 C 
ATOM     31  C   UNL     1      34.965 -17.435 -22.237  0.00  0.00    +0.140 C 
ATOM     32  C   UNL     1      34.852 -19.589 -23.326  0.00  0.00    +0.002 C 
ATOM     33  C   UNL     1      34.534 -16.819 -23.413  0.00  0.00    +0.040 C 
ATOM     34  C   UNL     1      34.421 -18.972 -24.501  0.00  0.00    +0.010 C 
ATOM     35  C   UNL     1      34.262 -17.587 -24.544  0.00  0.00    +0.071 C 
BRANCH  35  37
ATOM     36  N   UNL     1      33.465 -16.443 -26.726  0.00  0.00    -0.191 NA
ATOM     37  C   UNL     1      33.822 -16.955 -25.748  0.00  0.00    +0.100 C 
ENDBRANCH  35  37
ENDBRANCH  28  30
ENDBRANCH  27  28
ENDBRANCH   9  27
TORSDOF 13
ENDMDL
MODEL 6
REMARK VINA RESULT:     -11.2      2.230      3.270
REMARK  Name = 25058128
REMARK  13 active torsions:
REMARK  status: ('A' for Active; 'I' for Inactive)
REMARK    1  A    between atoms: C_1  and  S_11
REMARK    2  A    between atoms: C_9  and  O_27
REMARK    3  A    between atoms: S_11  and  N_14
REMARK    4  A    between atoms: N_14  and  C_16
REMARK    5  A    between atoms: C_16  and  C_18
REMARK    6  A    between atoms: C_16  and  C_21
REMARK    7  A    between atoms: C_18  and  O_19
REMARK    8  A    between atoms: C_21  and  C_22
REMARK    9  A    between atoms: C_22  and  C_24
REMARK   10  A    between atoms: C_24  and  O_25
REMARK   11  A    between atoms: O_27  and  C_28
REMARK   12  A    between atoms: C_28  and  C_30
REMARK   13  A    between atoms: C_35  and  C_37
REMARK                            x       y       z     vdW  Elec       q    Type
REMARK                         _______ _______ _______ _____ _____    ______ ____
ROOT
ATOM      1  C   UNL     1      33.519 -21.939 -18.808  0.00  0.00    +0.122 C 
ATOM      2  C   UNL     1      35.038 -20.556 -20.110  0.00  0.00    +0.002 C 
ATOM      3  C   UNL     1      34.814 -21.533 -19.126  0.00  0.00    +0.020 C 
ATOM      4  C   UNL     1      33.930 -19.984 -20.781  0.00  0.00    +0.003 C 
ATOM      5  C   UNL     1      32.430 -21.378 -19.469  0.00  0.00    +0.020 C 
ATOM      6  C   UNL     1      32.633 -20.407 -20.449  0.00  0.00    +0.001 C 
ATOM      7  C   UNL     1      34.152 -19.008 -21.766  0.00  0.00    +0.037 C 
ATOM      8  C   UNL     1      36.335 -20.133 -20.443  0.00  0.00    +0.003 C 
ATOM      9  C   UNL     1      35.449 -18.600 -22.084  0.00  0.00    +0.139 C 
ATOM     10  C   UNL     1      36.537 -19.161 -21.424  0.00  0.00    +0.037 C 
ENDROOT
BRANCH   1  11
ATOM     11  S   UNL     1      33.260 -23.171 -17.566  0.00  0.00    +0.061 S 
ATOM     12  O   UNL     1      32.072 -22.809 -16.818  0.00  0.00    -0.153 OA
ATOM     13  O   UNL     1      33.343 -24.460 -18.226  0.00  0.00    -0.153 OA
BRANCH  11  14
ATOM     14  N   UNL     1      34.630 -22.968 -16.582  0.00  0.00    -0.170 NA
ATOM     15  H   UNL     1      34.528 -22.066 -16.115  0.00  0.00    +0.149 HD
BRANCH  14  16
ATOM     16  C   UNL     1      34.939 -23.961 -15.530  0.00  0.00    +0.174 C 
BRANCH  16  18
ATOM     17  O   UNL     1      37.211 -23.139 -15.257  0.00  0.00    -0.249 OA
ATOM     18  C   UNL     1      36.440 -24.076 -15.420  0.00  0.00    +0.330 C 
BRANCH  18  19
ATOM     19  O   UNL     1      36.862 -25.364 -15.502  0.00  0.00    -0.479 OA
ATOM     20  H   UNL     1      36.717 -25.952 -14.787  0.00  0.00    +0.295 HD
ENDBRANCH  18  19
ENDBRANCH  16  18
BRANCH  16  21
ATOM     21  C   UNL     1      34.229 -23.594 -14.221  0.00  0.00    +0.040 C 
BRANCH  21  22
ATOM     22  C   UNL     1      34.321 -24.616 -13.085  0.00  0.00    +0.111 C 
BRANCH  22  24
ATOM     23  O   UNL     1      35.942 -23.206 -11.981  0.00  0.00    -0.250 OA
ATOM     24  C   UNL     1      35.198 -24.178 -11.940  0.00  0.00    +0.314 C 
BRANCH  24  25
ATOM     25  O   UNL     1      35.092 -24.987 -10.856  0.00  0.00    -0.480 OA
ATOM     26  H   UNL     1      35.838 -25.474 -10.562  0.00  0.00    +0.295 HD
ENDBRANCH  24  25
ENDBRANCH  22  24
ENDBRANCH  21  22
ENDBRANCH  16  21
ENDBRANCH  14  16
ENDBRANCH  11  14
ENDBRANCH   1  11
BRANCH   9  27
ATOM     27  O   UNL     1      35.648 -17.654 -23.041  0.00  0.00    -0.471 OA
BRANCH  27  28
ATOM     28  C   UNL     1      34.583 -17.426 -23.963  0.00  0.00    +0.234 C 
BRANCH  28  30
ATOM     29  F   UNL     1      33.216 -16.108 -26.062  0.00  0.00    -0.204 F 
ATOM     30  C   UNL     1      34.175 -15.985 -23.894  0.00  0.00    +0.049 C 
ATOM     31  C   UNL     1      33.504 -15.394 -24.965  0.00  0.00    +0.140 C 
ATOM     32  C   UNL     1      34.468 -15.234 -22.756  0.00  0.00    +0.002 C 
ATOM     33  C   UNL     1      33.126 -14.053 -24.897  0.00  0.00    +0.040 C 
ATOM     34  C   UNL     1      34.091 -13.892 -22.689  0.00  0.00    +0.010 C 
ATOM     35  C   UNL     1      33.420 -13.302 -23.759  0.00  0.00    +0.071 C 
BRANCH  35  37
ATOM     36  N   UNL     1      32.715 -10.813 -23.635  0.00  0.00    -0.191 NA
ATOM     37  C   UNL     1      33.031 -11.928 -23.690  0.00  0.00    +0.100 C 
ENDBRANCH  35  37
ENDBRANCH  28  30
ENDBRANCH  27  28
ENDBRANCH   9  27
TORSDOF 13
ENDMDL
MODEL 7
REMARK VINA RESULT:     -11.2      3.662     11.797
REMARK  Name = 25058128
REMARK  13 active torsions:
REMARK  status: ('A' for Active; 'I' for Inactive)
REMARK    1  A    between atoms: C_1  and  S_11
REMARK    2  A    between atoms: C_9  and  O_27
REMARK    3  A    between atoms: S_11  and  N_14
REMARK    4  A    between atoms: N_14  and  C_16
REMARK    5  A    between atoms: C_16  and  C_18
REMARK    6  A    between atoms: C_16  and  C_21
REMARK    7  A    between atoms: C_18  and  O_19
REMARK    8  A    between atoms: C_21  and  C_22
REMARK    9  A    between atoms: C_22  and  C_24
REMARK   10  A    between atoms: C_24  and  O_25
REMARK   11  A    between atoms: O_27  and  C_28
REMARK   12  A    between atoms: C_28  and  C_30
REMARK   13  A    between atoms: C_35  and  C_37
REMARK                            x       y       z     vdW  Elec       q    Type
REMARK                         _______ _______ _______ _____ _____    ______ ____
ROOT
ATOM      1  C   UNL     1      34.272 -19.359 -21.633  0.00  0.00    +0.122 C 
ATOM      2  C   UNL     1      34.960 -20.839 -19.829  0.00  0.00    +0.002 C 
ATOM      3  C   UNL     1      35.274 -19.910 -20.834  0.00  0.00    +0.020 C 
ATOM      4  C   UNL     1      33.608 -21.213 -19.631  0.00  0.00    +0.003 C 
ATOM      5  C   UNL     1      32.945 -19.727 -21.438  0.00  0.00    +0.020 C 
ATOM      6  C   UNL     1      32.613 -20.648 -20.444  0.00  0.00    +0.001 C 
ATOM      7  C   UNL     1      33.293 -22.142 -18.625  0.00  0.00    +0.037 C 
ATOM      8  C   UNL     1      35.955 -21.405 -19.015  0.00  0.00    +0.003 C 
ATOM      9  C   UNL     1      34.295 -22.693 -17.826  0.00  0.00    +0.139 C 
ATOM     10  C   UNL     1      35.623 -22.326 -18.021  0.00  0.00    +0.037 C 
ENDROOT
BRANCH   1  11
ATOM     11  S   UNL     1      34.690 -18.191 -22.893  0.00  0.00    +0.061 S 
ATOM     12  O   UNL     1      34.764 -16.880 -22.281  0.00  0.00    -0.153 OA
ATOM     13  O   UNL     1      35.833 -18.730 -23.606  0.00  0.00    -0.153 OA
BRANCH  11  14
ATOM     14  N   UNL     1      33.326 -18.267 -23.904  0.00  0.00    -0.170 NA
ATOM     15  H   UNL     1      32.687 -17.536 -23.593  0.00  0.00    +0.149 HD
BRANCH  14  16
ATOM     16  C   UNL     1      33.481 -18.104 -25.367  0.00  0.00    +0.174 C 
BRANCH  16  18
ATOM     17  O   UNL     1      31.100 -18.597 -25.411  0.00  0.00    -0.249 OA
ATOM     18  C   UNL     1      32.122 -18.274 -26.003  0.00  0.00    +0.330 C 
BRANCH  18  19
ATOM     19  O   UNL     1      32.143 -18.007 -27.335  0.00  0.00    -0.479 OA
ATOM     20  H   UNL     1      32.927 -18.146 -27.829  0.00  0.00    +0.295 HD
ENDBRANCH  18  19
ENDBRANCH  16  18
BRANCH  16  21
ATOM     21  C   UNL     1      34.174 -16.774 -25.688  0.00  0.00    +0.040 C 
BRANCH  21  22
ATOM     22  C   UNL     1      33.391 -15.501 -25.357  0.00  0.00    +0.111 C 
BRANCH  22  24
ATOM     23  O   UNL     1      33.172 -15.070 -27.724  0.00  0.00    -0.250 OA
ATOM     24  C   UNL     1      32.937 -14.730 -26.571  0.00  0.00    +0.314 C 
BRANCH  24  25
ATOM     25  O   UNL     1      32.250 -13.605 -26.254  0.00  0.00    -0.480 OA
ATOM     26  H   UNL     1      31.632 -13.247 -26.861  0.00  0.00    +0.295 HD
ENDBRANCH  24  25
ENDBRANCH  22  24
ENDBRANCH  21  22
ENDBRANCH  16  21
ENDBRANCH  14  16
ENDBRANCH  11  14
ENDBRANCH   1  11
BRANCH   9  27
ATOM     27  O   UNL     1      33.974 -23.591 -16.855  0.00  0.00    -0.471 OA
BRANCH  27  28
ATOM     28  C   UNL     1      34.447 -23.319 -15.537  0.00  0.00    +0.234 C 
BRANCH  28  30
ATOM     29  F   UNL     1      36.943 -21.994 -15.364  0.00  0.00    -0.204 F 
ATOM     30  C   UNL     1      35.744 -24.042 -15.323  0.00  0.00    +0.049 C 
ATOM     31  C   UNL     1      36.940 -23.329 -15.248  0.00  0.00    +0.140 C 
ATOM     32  C   UNL     1      35.751 -25.432 -15.200  0.00  0.00    +0.002 C 
ATOM     33  C   UNL     1      38.144 -24.006 -15.050  0.00  0.00    +0.040 C 
ATOM     34  C   UNL     1      36.956 -26.108 -15.002  0.00  0.00    +0.010 C 
ATOM     35  C   UNL     1      38.152 -25.395 -14.927  0.00  0.00    +0.071 C 
BRANCH  35  37
ATOM     36  N   UNL     1      40.386 -26.650 -14.556  0.00  0.00    -0.191 NA
ATOM     37  C   UNL     1      39.385 -26.087 -14.722  0.00  0.00    +0.100 C 
ENDBRANCH  35  37
ENDBRANCH  28  30
ENDBRANCH  27  28
ENDBRANCH   9  27
TORSDOF 13
ENDMDL
MODEL 8
REMARK VINA RESULT:     -11.1      3.441     11.171
REMARK  Name = 25058128
REMARK  13 active torsions:
REMARK  status: ('A' for Active; 'I' for Inactive)
REMARK    1  A    between atoms: C_1  and  S_11
REMARK    2  A    between atoms: C_9  and  O_27
REMARK    3  A    between atoms: S_11  and  N_14
REMARK    4  A    between atoms: N_14  and  C_16
REMARK    5  A    between atoms: C_16  and  C_18
REMARK    6  A    between atoms: C_16  and  C_21
REMARK    7  A    between atoms: C_18  and  O_19
REMARK    8  A    between atoms: C_21  and  C_22
REMARK    9  A    between atoms: C_22  and  C_24
REMARK   10  A    between atoms: C_24  and  O_25
REMARK   11  A    between atoms: O_27  and  C_28
REMARK   12  A    between atoms: C_28  and  C_30
REMARK   13  A    between atoms: C_35  and  C_37
REMARK                            x       y       z     vdW  Elec       q    Type
REMARK                         _______ _______ _______ _____ _____    ______ ____
ROOT
ATOM      1  C   UNL     1      34.706 -19.652 -21.508  0.00  0.00    +0.122 C 
ATOM      2  C   UNL     1      33.632 -21.051 -19.833  0.00  0.00    +0.002 C 
ATOM      3  C   UNL     1      33.551 -20.178 -20.930  0.00  0.00    +0.020 C 
ATOM      4  C   UNL     1      34.904 -21.396 -19.316  0.00  0.00    +0.003 C 
ATOM      5  C   UNL     1      35.956 -19.991 -21.000  0.00  0.00    +0.020 C 
ATOM      6  C   UNL     1      36.056 -20.857 -19.911  0.00  0.00    +0.001 C 
ATOM      7  C   UNL     1      34.985 -22.270 -18.219  0.00  0.00    +0.037 C 
ATOM      8  C   UNL     1      32.479 -21.590 -19.238  0.00  0.00    +0.003 C 
ATOM      9  C   UNL     1      33.829 -22.796 -17.641  0.00  0.00    +0.139 C 
ATOM     10  C   UNL     1      32.579 -22.457 -18.149  0.00  0.00    +0.037 C 
ENDROOT
BRANCH   1  11
ATOM     11  S   UNL     1      34.582 -18.554 -22.888  0.00  0.00    +0.061 S 
ATOM     12  O   UNL     1      35.679 -18.843 -23.790  0.00  0.00    -0.153 OA
ATOM     13  O   UNL     1      33.212 -18.622 -23.360  0.00  0.00    -0.153 OA
BRANCH  11  14
ATOM     14  N   UNL     1      34.836 -17.042 -22.156  0.00  0.00    -0.170 NA
ATOM     15  H   UNL     1      35.838 -16.853 -22.207  0.00  0.00    +0.149 HD
BRANCH  14  16
ATOM     16  C   UNL     1      34.149 -15.841 -22.680  0.00  0.00    +0.174 C 
BRANCH  16  18
ATOM     17  O   UNL     1      34.511 -14.811 -20.507  0.00  0.00    -0.249 OA
ATOM     18  C   UNL     1      34.400 -14.702 -21.722  0.00  0.00    +0.330 C 
BRANCH  18  19
ATOM     19  O   UNL     1      34.514 -13.510 -22.362  0.00  0.00    -0.479 OA
ATOM     20  H   UNL     1      33.789 -13.166 -22.846  0.00  0.00    +0.295 HD
ENDBRANCH  18  19
ENDBRANCH  16  18
BRANCH  16  21
ATOM     21  C   UNL     1      34.578 -15.565 -24.126  0.00  0.00    +0.040 C 
BRANCH  21  22
ATOM     22  C   UNL     1      33.454 -15.393 -25.150  0.00  0.00    +0.111 C 
BRANCH  22  24
ATOM     23  O   UNL     1      33.836 -17.279 -26.611  0.00  0.00    -0.250 OA
ATOM     24  C   UNL     1      33.080 -16.666 -25.866  0.00  0.00    +0.314 C 
BRANCH  24  25
ATOM     25  O   UNL     1      31.807 -17.059 -25.614  0.00  0.00    -0.480 OA
ATOM     26  H   UNL     1      31.557 -17.952 -25.750  0.00  0.00    +0.295 HD
ENDBRANCH  24  25
ENDBRANCH  22  24
ENDBRANCH  21  22
ENDBRANCH  16  21
ENDBRANCH  14  16
ENDBRANCH  11  14
ENDBRANCH   1  11
BRANCH   9  27
ATOM     27  O   UNL     1      33.925 -23.642 -16.580  0.00  0.00    -0.471 OA
BRANCH  27  28
ATOM     28  C   UNL     1      34.603 -23.159 -15.422  0.00  0.00    +0.234 C 
BRANCH  28  30
ATOM     29  F   UNL     1      37.145 -21.972 -15.805  0.00  0.00    -0.204 F 
ATOM     30  C   UNL     1      35.890 -23.911 -15.257  0.00  0.00    +0.049 C 
ATOM     31  C   UNL     1      37.110 -23.267 -15.462  0.00  0.00    +0.140 C 
ATOM     32  C   UNL     1      35.865 -25.260 -14.899  0.00  0.00    +0.002 C 
ATOM     33  C   UNL     1      38.305 -23.972 -15.308  0.00  0.00    +0.040 C 
ATOM     34  C   UNL     1      37.060 -25.963 -14.746  0.00  0.00    +0.010 C 
ATOM     35  C   UNL     1      38.280 -25.319 -14.951  0.00  0.00    +0.071 C 
BRANCH  35  37
ATOM     36  N   UNL     1      40.498 -26.624 -14.662  0.00  0.00    -0.191 NA
ATOM     37  C   UNL     1      39.504 -26.039 -14.792  0.00  0.00    +0.100 C 
ENDBRANCH  35  37
ENDBRANCH  28  30
ENDBRANCH  27  28
ENDBRANCH   9  27
TORSDOF 13
ENDMDL
MODEL 9
REMARK VINA RESULT:     -11.1      4.276     12.245
REMARK  Name = 25058128
REMARK  13 active torsions:
REMARK  status: ('A' for Active; 'I' for Inactive)
REMARK    1  A    between atoms: C_1  and  S_11
REMARK    2  A    between atoms: C_9  and  O_27
REMARK    3  A    between atoms: S_11  and  N_14
REMARK    4  A    between atoms: N_14  and  C_16
REMARK    5  A    between atoms: C_16  and  C_18
REMARK    6  A    between atoms: C_16  and  C_21
REMARK    7  A    between atoms: C_18  and  O_19
REMARK    8  A    between atoms: C_21  and  C_22
REMARK    9  A    between atoms: C_22  and  C_24
REMARK   10  A    between atoms: C_24  and  O_25
REMARK   11  A    between atoms: O_27  and  C_28
REMARK   12  A    between atoms: C_28  and  C_30
REMARK   13  A    between atoms: C_35  and  C_37
REMARK                            x       y       z     vdW  Elec       q    Type
REMARK                         _______ _______ _______ _____ _____    ______ ____
ROOT
ATOM      1  C   UNL     1      34.781 -18.147 -22.295  0.00  0.00    +0.122 C 
ATOM      2  C   UNL     1      33.849 -19.866 -20.849  0.00  0.00    +0.002 C 
ATOM      3  C   UNL     1      33.680 -18.841 -21.795  0.00  0.00    +0.020 C 
ATOM      4  C   UNL     1      35.154 -20.190 -20.406  0.00  0.00    +0.003 C 
ATOM      5  C   UNL     1      36.063 -18.466 -21.860  0.00  0.00    +0.020 C 
ATOM      6  C   UNL     1      36.250 -19.481 -20.922  0.00  0.00    +0.001 C 
ATOM      7  C   UNL     1      35.323 -21.216 -19.462  0.00  0.00    +0.037 C 
ATOM      8  C   UNL     1      32.752 -20.576 -20.333  0.00  0.00    +0.003 C 
ATOM      9  C   UNL     1      34.222 -21.911 -18.960  0.00  0.00    +0.139 C 
ATOM     10  C   UNL     1      32.939 -21.592 -19.395  0.00  0.00    +0.037 C 
ENDROOT
BRANCH   1  11
ATOM     11  S   UNL     1      34.546 -16.859 -23.485  0.00  0.00    +0.061 S 
ATOM     12  O   UNL     1      34.158 -15.658 -22.774  0.00  0.00    -0.153 OA
ATOM     13  O   UNL     1      35.718 -16.856 -24.339  0.00  0.00    -0.153 OA
BRANCH  11  14
ATOM     14  N   UNL     1      33.220 -17.443 -24.374  0.00  0.00    -0.170 NA
ATOM     15  H   UNL     1      32.379 -17.157 -23.872  0.00  0.00    +0.149 HD
BRANCH  14  16
ATOM     16  C   UNL     1      33.037 -17.033 -25.784  0.00  0.00    +0.174 C 
BRANCH  16  18
ATOM     17  O   UNL     1      31.646 -17.939 -27.560  0.00  0.00    -0.249 OA
ATOM     18  C   UNL     1      31.916 -17.857 -26.369  0.00  0.00    +0.330 C 
BRANCH  18  19
ATOM     19  O   UNL     1      31.226 -18.535 -25.414  0.00  0.00    -0.479 OA
ATOM     20  H   UNL     1      30.289 -18.520 -25.414  0.00  0.00    +0.295 HD
ENDBRANCH  18  19
ENDBRANCH  16  18
BRANCH  16  21
ATOM     21  C   UNL     1      32.832 -15.517 -25.879  0.00  0.00    +0.040 C 
BRANCH  21  22
ATOM     22  C   UNL     1      33.023 -14.889 -27.262  0.00  0.00    +0.111 C 
BRANCH  22  24
ATOM     23  O   UNL     1      30.695 -14.546 -27.808  0.00  0.00    -0.250 OA
ATOM     24  C   UNL     1      31.833 -14.097 -27.743  0.00  0.00    +0.314 C 
BRANCH  24  25
ATOM     25  O   UNL     1      32.157 -12.834 -28.115  0.00  0.00    -0.480 OA
ATOM     26  H   UNL     1      32.318 -12.639 -29.017  0.00  0.00    +0.295 HD
ENDBRANCH  24  25
ENDBRANCH  22  24
ENDBRANCH  21  22
ENDBRANCH  16  21
ENDBRANCH  14  16
ENDBRANCH  11  14
ENDBRANCH   1  11
BRANCH   9  27
ATOM     27  O   UNL     1      34.403 -22.902 -18.046  0.00  0.00    -0.471 OA
BRANCH  27  28
ATOM     28  C   UNL     1      33.269 -23.284 -17.269  0.00  0.00    +0.234 C 
BRANCH  28  30
ATOM     29  F   UNL     1      31.473 -23.937 -15.180  0.00  0.00    -0.204 F 
ATOM     30  C   UNL     1      33.720 -23.631 -15.881  0.00  0.00    +0.049 C 
ATOM     31  C   UNL     1      32.782 -23.942 -14.896  0.00  0.00    +0.140 C 
ATOM     32  C   UNL     1      35.081 -23.640 -15.575  0.00  0.00    +0.002 C 
ATOM     33  C   UNL     1      33.206 -24.263 -13.606  0.00  0.00    +0.040 C 
ATOM     34  C   UNL     1      35.504 -23.961 -14.285  0.00  0.00    +0.010 C 
ATOM     35  C   UNL     1      34.567 -24.272 -13.300  0.00  0.00    +0.071 C 
BRANCH  35  37
ATOM     36  N   UNL     1      35.351 -24.872 -10.907  0.00  0.00    -0.191 NA
ATOM     37  C   UNL     1      35.000 -24.603 -11.980  0.00  0.00    +0.100 C 
ENDBRANCH  35  37
ENDBRANCH  28  30
ENDBRANCH  27  28
ENDBRANCH   9  27
TORSDOF 13
ENDMDL
