MODEL 1
REMARK VINA RESULT:     -11.9      0.000      0.000
REMARK  Name = 25243828
REMARK  6 active torsions:
REMARK  status: ('A' for Active; 'I' for Inactive)
REMARK    1  A    between atoms: C_1  and  C_18
REMARK    2  A    between atoms: C_4  and  O_7
REMARK    3  A    between atoms: O_7  and  C_9
REMARK    4  A    between atoms: C_11  and  C_17
REMARK    5  A    between atoms: C_18  and  C_21
REMARK    6  A    between atoms: C_26  and  O_27
REMARK                            x       y       z     vdW  Elec       q    Type
REMARK                         _______ _______ _______ _____ _____    ______ ____
ROOT
ATOM      1  C   UNL     1      33.255 -23.523 -14.856  0.00  0.00    -0.019 C 
ATOM      2  C   UNL     1      33.347 -23.583 -16.246  0.00  0.00    +0.033 C 
ATOM      3  C   UNL     1      32.059 -23.134 -14.251  0.00  0.00    -0.004 C 
ATOM      4  C   UNL     1      32.243 -23.254 -17.033  0.00  0.00    +0.147 C 
ATOM      5  C   UNL     1      30.955 -22.805 -15.038  0.00  0.00    +0.003 C 
ATOM      6  C   UNL     1      31.046 -22.866 -16.429  0.00  0.00    +0.038 C 
ENDROOT
BRANCH   4   7
ATOM      7  O   UNL     1      32.332 -23.310 -18.390  0.00  0.00    -0.436 OA
BRANCH   7   9
ATOM      8  N   UNL     1      32.367 -21.412 -19.745  0.00  0.00    -0.210 NA
ATOM      9  C   UNL     1      33.063 -22.323 -19.029  0.00  0.00    +0.230 C 
ATOM     10  C   UNL     1      34.443 -22.320 -18.902  0.00  0.00    +0.058 C 
ATOM     11  C   UNL     1      34.473 -20.362 -20.297  0.00  0.00    +0.091 C 
ATOM     12  C   UNL     1      35.154 -21.316 -19.551  0.00  0.00    +0.010 C 
ATOM     13  C   UNL     1      33.092 -20.452 -20.362  0.00  0.00    +0.106 C 
BRANCH  11  17
ATOM     14  F   UNL     1      35.181 -19.393 -22.367  0.00  0.00    -0.166 F 
ATOM     15  F   UNL     1      34.717 -18.025 -20.748  0.00  0.00    -0.166 F 
ATOM     16  F   UNL     1      36.529 -19.226 -20.669  0.00  0.00    -0.166 F 
ATOM     17  C   UNL     1      35.206 -19.277 -21.005  0.00  0.00    +0.420 C 
ENDBRANCH  11  17
ENDBRANCH   7   9
ENDBRANCH   4   7
BRANCH   1  18
ATOM     18  C   UNL     1      34.445 -23.875 -14.006  0.00  0.00    +0.027 C 
BRANCH  18  21
ATOM     19  O   UNL     1      40.534 -24.727 -14.411  0.00  0.00    -0.226 OA
ATOM     20  N   UNL     1      38.369 -25.252 -15.081  0.00  0.00    -0.246 N 
ATOM     21  C   UNL     1      35.632 -24.320 -14.857  0.00  0.00    +0.008 C 
ATOM     22  C   UNL     1      36.830 -23.379 -14.660  0.00  0.00    +0.022 C 
ATOM     23  C   UNL     1      36.028 -25.769 -14.527  0.00  0.00    +0.022 C 
ATOM     24  C   UNL     1      38.052 -23.867 -15.437  0.00  0.00    +0.097 C 
ATOM     25  C   UNL     1      37.266 -26.194 -15.314  0.00  0.00    +0.097 C 
ATOM     26  C   UNL     1      39.639 -25.555 -14.580  0.00  0.00    +0.402 C 
BRANCH  26  27
ATOM     27  O   UNL     1      39.868 -26.860 -14.258  0.00  0.00    -0.466 OA
ATOM     28  H   UNL     1      40.688 -27.258 -14.476  0.00  0.00    +0.297 HD
ENDBRANCH  26  27
ENDBRANCH  18  21
ENDBRANCH   1  18
TORSDOF 6
ENDMDL
MODEL 2
REMARK VINA RESULT:     -11.6      3.316      5.832
REMARK  Name = 25243828
REMARK  6 active torsions:
REMARK  status: ('A' for Active; 'I' for Inactive)
REMARK    1  A    between atoms: C_1  and  C_18
REMARK    2  A    between atoms: C_4  and  O_7
REMARK    3  A    between atoms: O_7  and  C_9
REMARK    4  A    between atoms: C_11  and  C_17
REMARK    5  A    between atoms: C_18  and  C_21
REMARK    6  A    between atoms: C_26  and  O_27
REMARK                            x       y       z     vdW  Elec       q    Type
REMARK                         _______ _______ _______ _____ _____    ______ ____
ROOT
ATOM      1  C   UNL     1      33.148 -23.967 -14.770  0.00  0.00    -0.019 C 
ATOM      2  C   UNL     1      32.774 -23.988 -16.114  0.00  0.00    +0.033 C 
ATOM      3  C   UNL     1      34.341 -23.355 -14.387  0.00  0.00    -0.004 C 
ATOM      4  C   UNL     1      33.595 -23.397 -17.075  0.00  0.00    +0.147 C 
ATOM      5  C   UNL     1      35.162 -22.764 -15.348  0.00  0.00    +0.003 C 
ATOM      6  C   UNL     1      34.789 -22.784 -16.692  0.00  0.00    +0.038 C 
ENDROOT
BRANCH   4   7
ATOM      7  O   UNL     1      33.233 -23.418 -18.387  0.00  0.00    -0.436 OA
BRANCH   7   9
ATOM      8  N   UNL     1      32.527 -21.536 -19.570  0.00  0.00    -0.210 NA
ATOM      9  C   UNL     1      33.553 -22.316 -19.161  0.00  0.00    +0.230 C 
ATOM     10  C   UNL     1      34.881 -22.075 -19.470  0.00  0.00    +0.058 C 
ATOM     11  C   UNL     1      34.148 -20.133 -20.686  0.00  0.00    +0.091 C 
ATOM     12  C   UNL     1      35.177 -20.959 -20.248  0.00  0.00    +0.010 C 
ATOM     13  C   UNL     1      32.852 -20.462 -20.323  0.00  0.00    +0.106 C 
BRANCH  11  17
ATOM     14  F   UNL     1      34.434 -17.762 -20.817  0.00  0.00    -0.166 F 
ATOM     15  F   UNL     1      35.648 -18.974 -22.145  0.00  0.00    -0.166 F 
ATOM     16  F   UNL     1      33.517 -18.756 -22.519  0.00  0.00    -0.166 F 
ATOM     17  C   UNL     1      34.432 -18.934 -21.521  0.00  0.00    +0.420 C 
ENDBRANCH  11  17
ENDBRANCH   7   9
ENDBRANCH   4   7
BRANCH   1  18
ATOM     18  C   UNL     1      32.265 -24.605 -13.733  0.00  0.00    +0.027 C 
BRANCH  18  21
ATOM     19  O   UNL     1      27.946 -22.261 -17.451  0.00  0.00    -0.226 OA
ATOM     20  N   UNL     1      28.558 -23.628 -15.671  0.00  0.00    -0.246 N 
ATOM     21  C   UNL     1      30.799 -24.225 -13.930  0.00  0.00    +0.008 C 
ATOM     22  C   UNL     1      30.676 -22.881 -14.665  0.00  0.00    +0.022 C 
ATOM     23  C   UNL     1      30.047 -25.327 -14.696  0.00  0.00    +0.022 C 
ATOM     24  C   UNL     1      29.214 -22.536 -14.948  0.00  0.00    +0.097 C 
ATOM     25  C   UNL     1      28.600 -24.918 -14.969  0.00  0.00    +0.097 C 
ATOM     26  C   UNL     1      27.962 -23.366 -16.908  0.00  0.00    +0.402 C 
BRANCH  26  27
ATOM     27  O   UNL     1      27.375 -24.426 -17.535  0.00  0.00    -0.466 OA
ATOM     28  H   UNL     1      27.005 -24.318 -18.389  0.00  0.00    +0.297 HD
ENDBRANCH  26  27
ENDBRANCH  18  21
ENDBRANCH   1  18
TORSDOF 6
ENDMDL
MODEL 3
REMARK VINA RESULT:     -11.0      5.068      9.704
REMARK  Name = 25243828
REMARK  6 active torsions:
REMARK  status: ('A' for Active; 'I' for Inactive)
REMARK    1  A    between atoms: C_1  and  C_18
REMARK    2  A    between atoms: C_4  and  O_7
REMARK    3  A    between atoms: O_7  and  C_9
REMARK    4  A    between atoms: C_11  and  C_17
REMARK    5  A    between atoms: C_18  and  C_21
REMARK    6  A    between atoms: C_26  and  O_27
REMARK                            x       y       z     vdW  Elec       q    Type
REMARK                         _______ _______ _______ _____ _____    ______ ____
ROOT
ATOM      1  C   UNL     1      34.572 -19.526 -20.691  0.00  0.00    -0.019 C 
ATOM      2  C   UNL     1      33.496 -20.326 -20.310  0.00  0.00    +0.033 C 
ATOM      3  C   UNL     1      35.879 -19.979 -20.509  0.00  0.00    -0.004 C 
ATOM      4  C   UNL     1      33.726 -21.581 -19.746  0.00  0.00    +0.147 C 
ATOM      5  C   UNL     1      36.109 -21.234 -19.945  0.00  0.00    +0.003 C 
ATOM      6  C   UNL     1      35.033 -22.036 -19.564  0.00  0.00    +0.038 C 
ENDROOT
BRANCH   4   7
ATOM      7  O   UNL     1      32.677 -22.363 -19.372  0.00  0.00    -0.436 OA
BRANCH   7   9
ATOM      8  N   UNL     1      31.352 -22.776 -17.497  0.00  0.00    -0.210 NA
ATOM      9  C   UNL     1      32.589 -22.730 -18.040  0.00  0.00    +0.230 C 
ATOM     10  C   UNL     1      33.752 -23.028 -17.348  0.00  0.00    +0.058 C 
ATOM     11  C   UNL     1      32.381 -23.455 -15.418  0.00  0.00    +0.091 C 
ATOM     12  C   UNL     1      33.637 -23.397 -16.011  0.00  0.00    +0.010 C 
ATOM     13  C   UNL     1      31.280 -23.138 -16.196  0.00  0.00    +0.106 C 
BRANCH  11  17
ATOM     14  F   UNL     1      31.547 -25.018 -13.810  0.00  0.00    -0.166 F 
ATOM     15  F   UNL     1      33.414 -24.021 -13.336  0.00  0.00    -0.166 F 
ATOM     16  F   UNL     1      31.544 -22.915 -13.259  0.00  0.00    -0.166 F 
ATOM     17  C   UNL     1      32.226 -23.845 -13.990  0.00  0.00    +0.420 C 
ENDBRANCH  11  17
ENDBRANCH   7   9
ENDBRANCH   4   7
BRANCH   1  18
ATOM     18  C   UNL     1      34.326 -18.171 -21.298  0.00  0.00    +0.027 C 
BRANCH  18  21
ATOM     19  O   UNL     1      32.241 -17.949 -27.092  0.00  0.00    -0.226 OA
ATOM     20  N   UNL     1      33.921 -17.560 -25.530  0.00  0.00    -0.246 N 
ATOM     21  C   UNL     1      34.656 -18.154 -22.788  0.00  0.00    +0.008 C 
ATOM     22  C   UNL     1      33.676 -19.037 -23.577  0.00  0.00    +0.022 C 
ATOM     23  C   UNL     1      34.642 -16.716 -23.334  0.00  0.00    +0.022 C 
ATOM     24  C   UNL     1      33.941 -18.954 -25.079  0.00  0.00    +0.097 C 
ATOM     25  C   UNL     1      34.891 -16.697 -24.841  0.00  0.00    +0.097 C 
ATOM     26  C   UNL     1      33.030 -17.182 -26.539  0.00  0.00    +0.402 C 
BRANCH  26  27
ATOM     27  O   UNL     1      33.053 -15.869 -26.907  0.00  0.00    -0.466 OA
ATOM     28  H   UNL     1      32.567 -15.237 -26.416  0.00  0.00    +0.297 HD
ENDBRANCH  26  27
ENDBRANCH  18  21
ENDBRANCH   1  18
TORSDOF 6
ENDMDL
MODEL 4
REMARK VINA RESULT:     -10.7      1.686      2.634
REMARK  Name = 25243828
REMARK  6 active torsions:
REMARK  status: ('A' for Active; 'I' for Inactive)
REMARK    1  A    between atoms: C_1  and  C_18
REMARK    2  A    between atoms: C_4  and  O_7
REMARK    3  A    between atoms: O_7  and  C_9
REMARK    4  A    between atoms: C_11  and  C_17
REMARK    5  A    between atoms: C_18  and  C_21
REMARK    6  A    between atoms: C_26  and  O_27
REMARK                            x       y       z     vdW  Elec       q    Type
REMARK                         _______ _______ _______ _____ _____    ______ ____
ROOT
ATOM      1  C   UNL     1      34.882 -23.294 -15.660  0.00  0.00    -0.019 C 
ATOM      2  C   UNL     1      34.000 -23.179 -16.735  0.00  0.00    +0.033 C 
ATOM      3  C   UNL     1      36.137 -22.688 -15.719  0.00  0.00    -0.004 C 
ATOM      4  C   UNL     1      34.375 -22.458 -17.869  0.00  0.00    +0.147 C 
ATOM      5  C   UNL     1      36.511 -21.967 -16.853  0.00  0.00    +0.003 C 
ATOM      6  C   UNL     1      35.630 -21.852 -17.929  0.00  0.00    +0.038 C 
ENDROOT
BRANCH   4   7
ATOM      7  O   UNL     1      33.516 -22.347 -18.920  0.00  0.00    -0.436 OA
BRANCH   7   9
ATOM      8  N   UNL     1      35.009 -21.120 -20.227  0.00  0.00    -0.210 NA
ATOM      9  C   UNL     1      33.734 -21.321 -19.824  0.00  0.00    +0.230 C 
ATOM     10  C   UNL     1      32.655 -20.571 -20.262  0.00  0.00    +0.058 C 
ATOM     11  C   UNL     1      34.198 -19.311 -21.609  0.00  0.00    +0.091 C 
ATOM     12  C   UNL     1      32.900 -19.548 -21.172  0.00  0.00    +0.010 C 
ATOM     13  C   UNL     1      35.208 -20.117 -21.111  0.00  0.00    +0.106 C 
BRANCH  11  17
ATOM     14  F   UNL     1      33.650 -18.204 -23.658  0.00  0.00    -0.166 F 
ATOM     15  F   UNL     1      34.408 -16.968 -22.044  0.00  0.00    -0.166 F 
ATOM     16  F   UNL     1      35.750 -18.309 -23.107  0.00  0.00    -0.166 F 
ATOM     17  C   UNL     1      34.492 -18.223 -22.581  0.00  0.00    +0.420 C 
ENDBRANCH  11  17
ENDBRANCH   7   9
ENDBRANCH   4   7
BRANCH   1  18
ATOM     18  C   UNL     1      34.481 -24.073 -14.437  0.00  0.00    +0.027 C 
BRANCH  18  21
ATOM     19  O   UNL     1      40.076 -26.458 -15.427  0.00  0.00    -0.226 OA
ATOM     20  N   UNL     1      38.422 -25.714 -13.968  0.00  0.00    -0.246 N 
ATOM     21  C   UNL     1      35.633 -24.924 -13.909  0.00  0.00    +0.008 C 
ATOM     22  C   UNL     1      36.199 -25.828 -15.015  0.00  0.00    +0.022 C 
ATOM     23  C   UNL     1      36.743 -24.037 -13.321  0.00  0.00    +0.022 C 
ATOM     24  C   UNL     1      37.410 -26.617 -14.521  0.00  0.00    +0.097 C 
ATOM     25  C   UNL     1      37.935 -24.876 -12.864  0.00  0.00    +0.097 C 
ATOM     26  C   UNL     1      39.714 -25.727 -14.504  0.00  0.00    +0.402 C 
BRANCH  26  27
ATOM     27  O   UNL     1      40.608 -24.857 -13.953  0.00  0.00    -0.466 OA
ATOM     28  H   UNL     1      40.339 -24.287 -13.260  0.00  0.00    +0.297 HD
ENDBRANCH  26  27
ENDBRANCH  18  21
ENDBRANCH   1  18
TORSDOF 6
ENDMDL
MODEL 5
REMARK VINA RESULT:     -10.7      4.112      5.723
REMARK  Name = 25243828
REMARK  6 active torsions:
REMARK  status: ('A' for Active; 'I' for Inactive)
REMARK    1  A    between atoms: C_1  and  C_18
REMARK    2  A    between atoms: C_4  and  O_7
REMARK    3  A    between atoms: O_7  and  C_9
REMARK    4  A    between atoms: C_11  and  C_17
REMARK    5  A    between atoms: C_18  and  C_21
REMARK    6  A    between atoms: C_26  and  O_27
REMARK                            x       y       z     vdW  Elec       q    Type
REMARK                         _______ _______ _______ _____ _____    ______ ____
ROOT
ATOM      1  C   UNL     1      35.940 -21.987 -17.666  0.00  0.00    -0.019 C 
ATOM      2  C   UNL     1      34.575 -22.273 -17.660  0.00  0.00    +0.033 C 
ATOM      3  C   UNL     1      36.515 -21.351 -18.767  0.00  0.00    -0.004 C 
ATOM      4  C   UNL     1      33.785 -21.924 -18.756  0.00  0.00    +0.147 C 
ATOM      5  C   UNL     1      35.725 -21.003 -19.863  0.00  0.00    +0.003 C 
ATOM      6  C   UNL     1      34.359 -21.289 -19.857  0.00  0.00    +0.038 C 
ENDROOT
BRANCH   4   7
ATOM      7  O   UNL     1      32.453 -22.205 -18.752  0.00  0.00    -0.436 OA
BRANCH   7   9
ATOM      8  N   UNL     1      30.639 -22.416 -17.301  0.00  0.00    -0.210 NA
ATOM      9  C   UNL     1      31.913 -22.753 -17.601  0.00  0.00    +0.230 C 
ATOM     10  C   UNL     1      32.692 -23.603 -16.833  0.00  0.00    +0.058 C 
ATOM     11  C   UNL     1      30.817 -23.819 -15.342  0.00  0.00    +0.091 C 
ATOM     12  C   UNL     1      32.125 -24.143 -15.683  0.00  0.00    +0.010 C 
ATOM     13  C   UNL     1      30.122 -22.959 -16.176  0.00  0.00    +0.106 C 
BRANCH  11  17
ATOM     14  F   UNL     1      30.856 -25.446 -13.587  0.00  0.00    -0.166 F 
ATOM     15  F   UNL     1      30.083 -23.481 -13.090  0.00  0.00    -0.166 F 
ATOM     16  F   UNL     1      28.911 -24.825 -14.335  0.00  0.00    -0.166 F 
ATOM     17  C   UNL     1      30.184 -24.379 -14.117  0.00  0.00    +0.420 C 
ENDBRANCH  11  17
ENDBRANCH   7   9
ENDBRANCH   4   7
BRANCH   1  18
ATOM     18  C   UNL     1      36.793 -22.364 -16.487  0.00  0.00    +0.027 C 
BRANCH  18  21
ATOM     19  O   UNL     1      37.220 -26.178 -11.666  0.00  0.00    -0.226 OA
ATOM     20  N   UNL     1      35.934 -24.976 -13.188  0.00  0.00    -0.246 N 
ATOM     21  C   UNL     1      36.150 -23.473 -15.658  0.00  0.00    +0.008 C 
ATOM     22  C   UNL     1      37.191 -24.530 -15.255  0.00  0.00    +0.022 C 
ATOM     23  C   UNL     1      35.462 -22.894 -14.411  0.00  0.00    +0.022 C 
ATOM     24  C   UNL     1      36.577 -25.596 -14.349  0.00  0.00    +0.097 C 
ATOM     25  C   UNL     1      34.887 -24.005 -13.533  0.00  0.00    +0.097 C 
ATOM     26  C   UNL     1      36.341 -25.349 -11.903  0.00  0.00    +0.402 C 
BRANCH  26  27
ATOM     27  O   UNL     1      35.711 -24.730 -10.864  0.00  0.00    -0.466 OA
ATOM     28  H   UNL     1      34.788 -24.837 -10.747  0.00  0.00    +0.297 HD
ENDBRANCH  26  27
ENDBRANCH  18  21
ENDBRANCH   1  18
TORSDOF 6
ENDMDL
MODEL 6
REMARK VINA RESULT:     -10.6      5.531     10.275
REMARK  Name = 25243828
REMARK  6 active torsions:
REMARK  status: ('A' for Active; 'I' for Inactive)
REMARK    1  A    between atoms: C_1  and  C_18
REMARK    2  A    between atoms: C_4  and  O_7
REMARK    3  A    between atoms: O_7  and  C_9
REMARK    4  A    between atoms: C_11  and  C_17
REMARK    5  A    between atoms: C_18  and  C_21
REMARK    6  A    between atoms: C_26  and  O_27
REMARK                            x       y       z     vdW  Elec       q    Type
REMARK                         _______ _______ _______ _____ _____    ______ ____
ROOT
ATOM      1  C   UNL     1      34.785 -19.264 -21.950  0.00  0.00    -0.019 C 
ATOM      2  C   UNL     1      35.705 -19.958 -21.165  0.00  0.00    +0.033 C 
ATOM      3  C   UNL     1      33.417 -19.399 -21.707  0.00  0.00    -0.004 C 
ATOM      4  C   UNL     1      35.258 -20.789 -20.137  0.00  0.00    +0.147 C 
ATOM      5  C   UNL     1      32.970 -20.230 -20.680  0.00  0.00    +0.003 C 
ATOM      6  C   UNL     1      33.891 -20.925 -19.894  0.00  0.00    +0.038 C 
ENDROOT
BRANCH   4   7
ATOM      7  O   UNL     1      36.155 -21.469 -19.372  0.00  0.00    -0.436 OA
BRANCH   7   9
ATOM      8  N   UNL     1      34.527 -22.669 -18.209  0.00  0.00    -0.210 NA
ATOM      9  C   UNL     1      35.706 -22.007 -18.178  0.00  0.00    +0.230 C 
ATOM     10  C   UNL     1      36.474 -21.843 -17.036  0.00  0.00    +0.058 C 
ATOM     11  C   UNL     1      34.794 -23.083 -15.842  0.00  0.00    +0.091 C 
ATOM     12  C   UNL     1      36.002 -22.396 -15.850  0.00  0.00    +0.010 C 
ATOM     13  C   UNL     1      34.101 -23.191 -17.037  0.00  0.00    +0.106 C 
BRANCH  11  17
ATOM     14  F   UNL     1      32.988 -23.290 -14.287  0.00  0.00    -0.166 F 
ATOM     15  F   UNL     1      34.213 -25.050 -14.611  0.00  0.00    -0.166 F 
ATOM     16  F   UNL     1      35.009 -23.365 -13.491  0.00  0.00    -0.166 F 
ATOM     17  C   UNL     1      34.262 -23.684 -14.589  0.00  0.00    +0.420 C 
ENDBRANCH  11  17
ENDBRANCH   7   9
ENDBRANCH   4   7
BRANCH   1  18
ATOM     18  C   UNL     1      35.265 -18.369 -23.060  0.00  0.00    +0.027 C 
BRANCH  18  21
ATOM     19  O   UNL     1      33.534 -13.890 -26.922  0.00  0.00    -0.226 OA
ATOM     20  N   UNL     1      33.061 -15.839 -25.742  0.00  0.00    -0.246 N 
ATOM     21  C   UNL     1      34.124 -17.543 -23.650  0.00  0.00    +0.008 C 
ATOM     22  C   UNL     1      34.528 -16.066 -23.779  0.00  0.00    +0.022 C 
ATOM     23  C   UNL     1      33.694 -18.103 -25.016  0.00  0.00    +0.022 C 
ATOM     24  C   UNL     1      33.427 -15.247 -24.452  0.00  0.00    +0.097 C 
ATOM     25  C   UNL     1      32.610 -17.234 -25.651  0.00  0.00    +0.097 C 
ATOM     26  C   UNL     1      33.157 -15.062 -26.900  0.00  0.00    +0.402 C 
BRANCH  26  27
ATOM     27  O   UNL     1      32.812 -15.673 -28.070  0.00  0.00    -0.466 OA
ATOM     28  H   UNL     1      31.920 -15.916 -28.225  0.00  0.00    +0.297 HD
ENDBRANCH  26  27
ENDBRANCH  18  21
ENDBRANCH   1  18
TORSDOF 6
ENDMDL
MODEL 7
REMARK VINA RESULT:     -10.6      6.387     11.380
REMARK  Name = 25243828
REMARK  6 active torsions:
REMARK  status: ('A' for Active; 'I' for Inactive)
REMARK    1  A    between atoms: C_1  and  C_18
REMARK    2  A    between atoms: C_4  and  O_7
REMARK    3  A    between atoms: O_7  and  C_9
REMARK    4  A    between atoms: C_11  and  C_17
REMARK    5  A    between atoms: C_18  and  C_21
REMARK    6  A    between atoms: C_26  and  O_27
REMARK                            x       y       z     vdW  Elec       q    Type
REMARK                         _______ _______ _______ _____ _____    ______ ____
ROOT
ATOM      1  C   UNL     1      34.225 -15.271 -23.497  0.00  0.00    -0.019 C 
ATOM      2  C   UNL     1      35.034 -16.036 -22.657  0.00  0.00    +0.033 C 
ATOM      3  C   UNL     1      33.514 -15.885 -24.529  0.00  0.00    -0.004 C 
ATOM      4  C   UNL     1      35.134 -17.414 -22.850  0.00  0.00    +0.147 C 
ATOM      5  C   UNL     1      33.614 -17.263 -24.722  0.00  0.00    +0.003 C 
ATOM      6  C   UNL     1      34.424 -18.028 -23.882  0.00  0.00    +0.038 C 
ENDROOT
BRANCH   4   7
ATOM      7  O   UNL     1      35.926 -18.160 -22.032  0.00  0.00    -0.436 OA
BRANCH   7   9
ATOM      8  N   UNL     1      36.129 -19.921 -20.515  0.00  0.00    -0.210 NA
ATOM      9  C   UNL     1      35.320 -19.152 -21.280  0.00  0.00    +0.230 C 
ATOM     10  C   UNL     1      33.945 -19.302 -21.347  0.00  0.00    +0.058 C 
ATOM     11  C   UNL     1      34.160 -21.114 -19.780  0.00  0.00    +0.091 C 
ATOM     12  C   UNL     1      33.361 -20.304 -20.579  0.00  0.00    +0.010 C 
ATOM     13  C   UNL     1      35.526 -20.884 -19.783  0.00  0.00    +0.106 C 
BRANCH  11  17
ATOM     14  F   UNL     1      32.285 -21.938 -18.542  0.00  0.00    -0.166 F 
ATOM     15  F   UNL     1      33.495 -23.404 -19.587  0.00  0.00    -0.166 F 
ATOM     16  F   UNL     1      34.270 -22.431 -17.803  0.00  0.00    -0.166 F 
ATOM     17  C   UNL     1      33.565 -22.196 -18.949  0.00  0.00    +0.420 C 
ENDBRANCH  11  17
ENDBRANCH   7   9
ENDBRANCH   4   7
BRANCH   1  18
ATOM     18  C   UNL     1      34.117 -13.785 -23.292  0.00  0.00    +0.027 C 
BRANCH  18  21
ATOM     19  O   UNL     1      31.440 -10.862 -18.575  0.00  0.00    -0.226 OA
ATOM     20  N   UNL     1      31.357 -11.705 -20.742  0.00  0.00    -0.246 N 
ATOM     21  C   UNL     1      32.823 -13.408 -22.574  0.00  0.00    +0.008 C 
ATOM     22  C   UNL     1      32.990 -13.520 -21.051  0.00  0.00    +0.022 C 
ATOM     23  C   UNL     1      32.377 -11.989 -22.963  0.00  0.00    +0.022 C 
ATOM     24  C   UNL     1      31.730 -13.057 -20.320  0.00  0.00    +0.097 C 
ATOM     25  C   UNL     1      31.128 -11.573 -22.187  0.00  0.00    +0.097 C 
ATOM     26  C   UNL     1      31.245 -10.696 -19.779  0.00  0.00    +0.402 C 
BRANCH  26  27
ATOM     27  O   UNL     1      30.904  -9.457 -20.236  0.00  0.00    -0.466 OA
ATOM     28  H   UNL     1      31.463  -8.726 -20.064  0.00  0.00    +0.297 HD
ENDBRANCH  26  27
ENDBRANCH  18  21
ENDBRANCH   1  18
TORSDOF 6
ENDMDL
MODEL 8
REMARK VINA RESULT:     -10.6      7.579     12.537
REMARK  Name = 25243828
REMARK  6 active torsions:
REMARK  status: ('A' for Active; 'I' for Inactive)
REMARK    1  A    between atoms: C_1  and  C_18
REMARK    2  A    between atoms: C_4  and  O_7
REMARK    3  A    between atoms: O_7  and  C_9
REMARK    4  A    between atoms: C_11  and  C_17
REMARK    5  A    between atoms: C_18  and  C_21
REMARK    6  A    between atoms: C_26  and  O_27
REMARK                            x       y       z     vdW  Elec       q    Type
REMARK                         _______ _______ _______ _____ _____    ______ ____
ROOT
ATOM      1  C   UNL     1      34.015 -14.675 -22.873  0.00  0.00    -0.019 C 
ATOM      2  C   UNL     1      34.457 -15.968 -23.152  0.00  0.00    +0.033 C 
ATOM      3  C   UNL     1      33.994 -14.214 -21.557  0.00  0.00    -0.004 C 
ATOM      4  C   UNL     1      34.876 -16.801 -22.114  0.00  0.00    +0.147 C 
ATOM      5  C   UNL     1      34.413 -15.046 -20.519  0.00  0.00    +0.003 C 
ATOM      6  C   UNL     1      34.855 -16.340 -20.797  0.00  0.00    +0.038 C 
ENDROOT
BRANCH   4   7
ATOM      7  O   UNL     1      35.305 -18.064 -22.385  0.00  0.00    -0.436 OA
BRANCH   7   9
ATOM      8  N   UNL     1      35.827 -19.693 -20.799  0.00  0.00    -0.210 NA
ATOM      9  C   UNL     1      34.881 -19.082 -21.547  0.00  0.00    +0.230 C 
ATOM     10  C   UNL     1      33.536 -19.412 -21.519  0.00  0.00    +0.058 C 
ATOM     11  C   UNL     1      34.079 -21.089 -19.882  0.00  0.00    +0.091 C 
ATOM     12  C   UNL     1      33.135 -20.436 -20.667  0.00  0.00    +0.010 C 
ATOM     13  C   UNL     1      35.400 -20.684 -19.984  0.00  0.00    +0.106 C 
BRANCH  11  17
ATOM     14  F   UNL     1      33.636 -23.418 -19.561  0.00  0.00    -0.166 F 
ATOM     15  F   UNL     1      34.525 -22.347 -17.897  0.00  0.00    -0.166 F 
ATOM     16  F   UNL     1      32.442 -22.004 -18.420  0.00  0.00    -0.166 F 
ATOM     17  C   UNL     1      33.682 -22.189 -18.963  0.00  0.00    +0.420 C 
ENDBRANCH  11  17
ENDBRANCH   7   9
ENDBRANCH   4   7
BRANCH   1  18
ATOM     18  C   UNL     1      33.561 -13.777 -23.991  0.00  0.00    +0.027 C 
BRANCH  18  21
ATOM     19  O   UNL     1      32.997  -7.893 -25.733  0.00  0.00    -0.226 OA
ATOM     20  N   UNL     1      33.062  -9.511 -24.063  0.00  0.00    -0.246 N 
ATOM     21  C   UNL     1      33.717 -12.302 -23.627  0.00  0.00    +0.008 C 
ATOM     22  C   UNL     1      34.297 -11.505 -24.806  0.00  0.00    +0.022 C 
ATOM     23  C   UNL     1      32.372 -11.704 -23.184  0.00  0.00    +0.022 C 
ATOM     24  C   UNL     1      34.373 -10.014 -24.484  0.00  0.00    +0.097 C 
ATOM     25  C   UNL     1      32.503 -10.209 -22.897  0.00  0.00    +0.097 C 
ATOM     26  C   UNL     1      32.480  -8.451 -24.765  0.00  0.00    +0.402 C 
BRANCH  26  27
ATOM     27  O   UNL     1      31.256  -8.035 -24.330  0.00  0.00    -0.466 OA
ATOM     28  H   UNL     1      30.762  -7.424 -24.839  0.00  0.00    +0.297 HD
ENDBRANCH  26  27
ENDBRANCH  18  21
ENDBRANCH   1  18
TORSDOF 6
ENDMDL
MODEL 9
REMARK VINA RESULT:     -10.5      7.734     11.585
REMARK  Name = 25243828
REMARK  6 active torsions:
REMARK  status: ('A' for Active; 'I' for Inactive)
REMARK    1  A    between atoms: C_1  and  C_18
REMARK    2  A    between atoms: C_4  and  O_7
REMARK    3  A    between atoms: O_7  and  C_9
REMARK    4  A    between atoms: C_11  and  C_17
REMARK    5  A    between atoms: C_18  and  C_21
REMARK    6  A    between atoms: C_26  and  O_27
REMARK                            x       y       z     vdW  Elec       q    Type
REMARK                         _______ _______ _______ _____ _____    ______ ____
ROOT
ATOM      1  C   UNL     1      33.359 -16.764 -26.115  0.00  0.00    -0.019 C 
ATOM      2  C   UNL     1      33.279 -15.459 -26.599  0.00  0.00    +0.033 C 
ATOM      3  C   UNL     1      32.315 -17.660 -26.345  0.00  0.00    -0.004 C 
ATOM      4  C   UNL     1      32.153 -15.048 -27.312  0.00  0.00    +0.147 C 
ATOM      5  C   UNL     1      31.188 -17.249 -27.059  0.00  0.00    +0.003 C 
ATOM      6  C   UNL     1      31.108 -15.943 -27.543  0.00  0.00    +0.038 C 
ENDROOT
BRANCH   4   7
ATOM      7  O   UNL     1      32.072 -13.773 -27.783  0.00  0.00    -0.436 OA
BRANCH   7   9
ATOM      8  N   UNL     1      33.884 -12.306 -27.865  0.00  0.00    -0.210 NA
ATOM      9  C   UNL     1      32.844 -12.806 -27.160  0.00  0.00    +0.230 C 
ATOM     10  C   UNL     1      32.516 -12.410 -25.874  0.00  0.00    +0.058 C 
ATOM     11  C   UNL     1      34.384 -10.897 -25.966  0.00  0.00    +0.091 C 
ATOM     12  C   UNL     1      33.306 -11.435 -25.273  0.00  0.00    +0.010 C 
ATOM     13  C   UNL     1      34.629 -11.361 -27.248  0.00  0.00    +0.106 C 
BRANCH  11  17
ATOM     14  F   UNL     1      35.096  -9.743 -23.995  0.00  0.00    -0.166 F 
ATOM     15  F   UNL     1      36.586 -10.067 -25.537  0.00  0.00    -0.166 F 
ATOM     16  F   UNL     1      35.006  -8.605 -25.844  0.00  0.00    -0.166 F 
ATOM     17  C   UNL     1      35.248  -9.854 -25.349  0.00  0.00    +0.420 C 
ENDBRANCH  11  17
ENDBRANCH   7   9
ENDBRANCH   4   7
BRANCH   1  18
ATOM     18  C   UNL     1      34.572 -17.208 -25.344  0.00  0.00    +0.027 C 
BRANCH  18  21
ATOM     19  O   UNL     1      35.212 -21.058 -20.575  0.00  0.00    -0.226 OA
ATOM     20  N   UNL     1      34.796 -18.928 -21.414  0.00  0.00    -0.246 N 
ATOM     21  C   UNL     1      34.228 -17.533 -23.892  0.00  0.00    +0.008 C 
ATOM     22  C   UNL     1      33.942 -19.034 -23.719  0.00  0.00    +0.022 C 
ATOM     23  C   UNL     1      35.359 -17.090 -22.950  0.00  0.00    +0.022 C 
ATOM     24  C   UNL     1      33.686 -19.385 -22.254  0.00  0.00    +0.097 C 
ATOM     25  C   UNL     1      35.059 -17.486 -21.505  0.00  0.00    +0.097 C 
ATOM     26  C   UNL     1      35.479 -19.857 -20.622  0.00  0.00    +0.402 C 
BRANCH  26  27
ATOM     27  O   UNL     1      36.508 -19.373 -19.870  0.00  0.00    -0.466 OA
ATOM     28  H   UNL     1      36.361 -18.660 -19.280  0.00  0.00    +0.297 HD
ENDBRANCH  26  27
ENDBRANCH  18  21
ENDBRANCH   1  18
TORSDOF 6
ENDMDL
