MODEL 1
REMARK VINA RESULT:     -12.8      0.000      0.000
REMARK  Name = 6419766
REMARK  1 active torsions:
REMARK  status: ('A' for Active; 'I' for Inactive)
REMARK    1  A    between atoms: C_9  and  C_20
REMARK                            x       y       z     vdW  Elec       q    Type
REMARK                         _______ _______ _______ _____ _____    ______ ____
ROOT
ATOM      1  N   UNL     1      33.919 -24.091 -14.610  0.00  0.00    -0.274 N 
ATOM      2  N   UNL     1      33.624 -22.967 -16.656  0.00  0.00    -0.328 NA
ATOM      3  N   UNL     1      31.422 -22.667 -17.587  0.00  0.00    -0.343 NA
ATOM      4  N   UNL     1      37.145 -25.066 -15.229  0.00  0.00    -0.239 N 
ATOM      5  N   UNL     1      35.990 -24.586 -15.718  0.00  0.00    -0.166 NA
ATOM      6  C   UNL     1      31.680 -23.817 -15.499  0.00  0.00    +0.143 C 
ATOM      7  C   UNL     1      33.051 -23.609 -15.622  0.00  0.00    +0.185 C 
ATOM      8  C   UNL     1      30.882 -23.312 -16.539  0.00  0.00    +0.133 C 
ATOM      9  C   UNL     1      32.763 -22.529 -17.590  0.00  0.00    +0.138 C 
ATOM     10  C   UNL     1      35.251 -24.536 -14.638  0.00  0.00    +0.152 C 
ATOM     11  C   UNL     1      31.105 -24.491 -14.407  0.00  0.00    -0.011 C 
ATOM     12  C   UNL     1      29.505 -23.501 -16.451  0.00  0.00    +0.029 C 
ATOM     13  C   UNL     1      35.858 -24.957 -13.467  0.00  0.00    +0.048 C 
ATOM     14  C   UNL     1      37.119 -25.306 -13.886  0.00  0.00    +0.046 C 
ATOM     15  C   UNL     1      29.726 -24.665 -14.347  0.00  0.00    -0.004 C 
ATOM     16  C   UNL     1      28.925 -24.171 -15.369  0.00  0.00    +0.002 C 
ATOM     17  C   UNL     1      38.285 -25.834 -13.160  0.00  0.00    +0.049 C 
ATOM     18  H   UNL     1      33.510 -24.118 -13.716  0.00  0.00    +0.156 HD
ATOM     19  H   UNL     1      37.938 -25.231 -15.788  0.00  0.00    +0.174 HD
ENDROOT
BRANCH   9  20
ATOM     20  C   UNL     1      33.334 -21.836 -18.715  0.00  0.00    +0.086 C 
ATOM     21  C   UNL     1      32.526 -21.052 -19.543  0.00  0.00    +0.012 C 
ATOM     22  C   UNL     1      34.701 -21.942 -18.988  0.00  0.00    +0.012 C 
ATOM     23  C   UNL     1      33.079 -20.379 -20.633  0.00  0.00    +0.001 C 
ATOM     24  C   UNL     1      35.254 -21.270 -20.077  0.00  0.00    +0.001 C 
ATOM     25  C   UNL     1      34.443 -20.487 -20.900  0.00  0.00    +0.000 C 
ENDBRANCH   9  20
TORSDOF 1
ENDMDL
MODEL 2
REMARK VINA RESULT:     -12.6      1.417      5.829
REMARK  Name = 6419766
REMARK  1 active torsions:
REMARK  status: ('A' for Active; 'I' for Inactive)
REMARK    1  A    between atoms: C_9  and  C_20
REMARK                            x       y       z     vdW  Elec       q    Type
REMARK                         _______ _______ _______ _____ _____    ______ ____
ROOT
ATOM      1  N   UNL     1      33.474 -22.761 -17.770  0.00  0.00    -0.274 N 
ATOM      2  N   UNL     1      34.776 -23.821 -16.120  0.00  0.00    -0.328 NA
ATOM      3  N   UNL     1      33.764 -24.636 -14.092  0.00  0.00    -0.343 NA
ATOM      4  N   UNL     1      36.052 -20.951 -19.118  0.00  0.00    -0.239 N 
ATOM      5  N   UNL     1      35.597 -21.690 -18.093  0.00  0.00    -0.166 NA
ATOM      6  C   UNL     1      32.402 -23.564 -15.748  0.00  0.00    +0.143 C 
ATOM      7  C   UNL     1      33.557 -23.402 -16.508  0.00  0.00    +0.185 C 
ATOM      8  C   UNL     1      32.561 -24.206 -14.509  0.00  0.00    +0.133 C 
ATOM      9  C   UNL     1      34.807 -24.420 -14.919  0.00  0.00    +0.138 C 
ATOM     10  C   UNL     1      34.387 -21.985 -18.500  0.00  0.00    +0.152 C 
ATOM     11  C   UNL     1      31.138 -23.117 -16.175  0.00  0.00    -0.011 C 
ATOM     12  C   UNL     1      31.428 -24.386 -13.721  0.00  0.00    +0.029 C 
ATOM     13  C   UNL     1      34.024 -21.479 -19.736  0.00  0.00    +0.048 C 
ATOM     14  C   UNL     1      35.148 -20.794 -20.128  0.00  0.00    +0.046 C 
ATOM     15  C   UNL     1      30.024 -23.310 -15.365  0.00  0.00    -0.004 C 
ATOM     16  C   UNL     1      30.168 -23.945 -14.137  0.00  0.00    +0.002 C 
ATOM     17  C   UNL     1      35.454 -20.017 -21.341  0.00  0.00    +0.049 C 
ATOM     18  H   UNL     1      32.608 -22.886 -18.222  0.00  0.00    +0.156 HD
ATOM     19  H   UNL     1      36.954 -20.559 -19.138  0.00  0.00    +0.174 HD
ENDROOT
BRANCH   9  20
ATOM     20  C   UNL     1      36.091 -24.884 -14.465  0.00  0.00    +0.086 C 
ATOM     21  C   UNL     1      36.687 -26.001 -15.058  0.00  0.00    +0.012 C 
ATOM     22  C   UNL     1      36.754 -24.220 -13.428  0.00  0.00    +0.012 C 
ATOM     23  C   UNL     1      37.932 -26.450 -14.619  0.00  0.00    +0.001 C 
ATOM     24  C   UNL     1      37.999 -24.668 -12.990  0.00  0.00    +0.001 C 
ATOM     25  C   UNL     1      38.589 -25.783 -13.585  0.00  0.00    +0.000 C 
ENDBRANCH   9  20
TORSDOF 1
ENDMDL
MODEL 3
REMARK VINA RESULT:     -12.2      1.228      4.935
REMARK  Name = 6419766
REMARK  1 active torsions:
REMARK  status: ('A' for Active; 'I' for Inactive)
REMARK    1  A    between atoms: C_9  and  C_20
REMARK                            x       y       z     vdW  Elec       q    Type
REMARK                         _______ _______ _______ _____ _____    ______ ____
ROOT
ATOM      1  N   UNL     1      35.461 -23.301 -16.170  0.00  0.00    -0.274 N 
ATOM      2  N   UNL     1      33.113 -23.420 -16.256  0.00  0.00    -0.328 NA
ATOM      3  N   UNL     1      31.896 -22.400 -18.067  0.00  0.00    -0.343 NA
ATOM      4  N   UNL     1      35.690 -23.681 -12.772  0.00  0.00    -0.239 N 
ATOM      5  N   UNL     1      34.915 -23.414 -13.836  0.00  0.00    -0.166 NA
ATOM      6  C   UNL     1      34.289 -22.256 -18.017  0.00  0.00    +0.143 C 
ATOM      7  C   UNL     1      34.249 -22.984 -16.832  0.00  0.00    +0.185 C 
ATOM      8  C   UNL     1      33.049 -21.979 -18.616  0.00  0.00    +0.133 C 
ATOM      9  C   UNL     1      31.990 -23.097 -16.916  0.00  0.00    +0.138 C 
ATOM     10  C   UNL     1      35.779 -23.499 -14.816  0.00  0.00    +0.152 C 
ATOM     11  C   UNL     1      35.489 -21.812 -18.600  0.00  0.00    -0.011 C 
ATOM     12  C   UNL     1      33.049 -21.253 -19.803  0.00  0.00    +0.029 C 
ATOM     13  C   UNL     1      37.079 -23.807 -14.454  0.00  0.00    +0.048 C 
ATOM     14  C   UNL     1      36.996 -23.922 -13.087  0.00  0.00    +0.046 C 
ATOM     15  C   UNL     1      35.458 -21.087 -19.787  0.00  0.00    -0.004 C 
ATOM     16  C   UNL     1      34.238 -20.807 -20.389  0.00  0.00    +0.002 C 
ATOM     17  C   UNL     1      38.006 -24.234 -12.064  0.00  0.00    +0.049 C 
ATOM     18  H   UNL     1      36.230 -23.403 -16.776  0.00  0.00    +0.156 HD
ATOM     19  H   UNL     1      35.349 -23.699 -11.849  0.00  0.00    +0.174 HD
ENDROOT
BRANCH   9  20
ATOM     20  C   UNL     1      30.751 -23.543 -16.335  0.00  0.00    +0.086 C 
ATOM     21  C   UNL     1      29.559 -22.867 -16.611  0.00  0.00    +0.012 C 
ATOM     22  C   UNL     1      30.730 -24.658 -15.492  0.00  0.00    +0.012 C 
ATOM     23  C   UNL     1      28.358 -23.300 -16.049  0.00  0.00    +0.001 C 
ATOM     24  C   UNL     1      29.531 -25.093 -14.931  0.00  0.00    +0.001 C 
ATOM     25  C   UNL     1      28.343 -24.414 -15.209  0.00  0.00    +0.000 C 
ENDBRANCH   9  20
TORSDOF 1
ENDMDL
MODEL 4
REMARK VINA RESULT:     -11.6      2.037      6.052
REMARK  Name = 6419766
REMARK  1 active torsions:
REMARK  status: ('A' for Active; 'I' for Inactive)
REMARK    1  A    between atoms: C_9  and  C_20
REMARK                            x       y       z     vdW  Elec       q    Type
REMARK                         _______ _______ _______ _____ _____    ______ ____
ROOT
ATOM      1  N   UNL     1      35.616 -22.281 -15.924  0.00  0.00    -0.274 N 
ATOM      2  N   UNL     1      33.518 -23.137 -15.287  0.00  0.00    -0.328 NA
ATOM      3  N   UNL     1      33.271 -24.387 -13.243  0.00  0.00    -0.343 NA
ATOM      4  N   UNL     1      34.926 -22.174 -19.279  0.00  0.00    -0.239 N 
ATOM      5  N   UNL     1      34.586 -22.633 -18.063  0.00  0.00    -0.166 NA
ATOM      6  C   UNL     1      35.425 -23.532 -13.856  0.00  0.00    +0.143 C 
ATOM      7  C   UNL     1      34.826 -23.005 -14.996  0.00  0.00    +0.185 C 
ATOM      8  C   UNL     1      34.581 -24.237 -12.982  0.00  0.00    +0.133 C 
ATOM      9  C   UNL     1      32.810 -23.830 -14.381  0.00  0.00    +0.138 C 
ATOM     10  C   UNL     1      35.520 -22.103 -17.314  0.00  0.00    +0.152 C 
ATOM     11  C   UNL     1      36.794 -23.381 -13.574  0.00  0.00    -0.011 C 
ATOM     12  C   UNL     1      35.145 -24.780 -11.831  0.00  0.00    +0.029 C 
ATOM     13  C   UNL     1      36.454 -21.321 -17.971  0.00  0.00    +0.048 C 
ATOM     14  C   UNL     1      36.039 -21.384 -19.279  0.00  0.00    +0.046 C 
ATOM     15  C   UNL     1      37.330 -23.934 -12.416  0.00  0.00    -0.004 C 
ATOM     16  C   UNL     1      36.506 -24.634 -11.543  0.00  0.00    +0.002 C 
ATOM     17  C   UNL     1      36.575 -20.784 -20.512  0.00  0.00    +0.049 C 
ATOM     18  H   UNL     1      36.378 -21.812 -15.516  0.00  0.00    +0.156 HD
ATOM     19  H   UNL     1      34.420 -22.389 -20.095  0.00  0.00    +0.174 HD
ENDROOT
BRANCH   9  20
ATOM     20  C   UNL     1      31.406 -23.995 -14.652  0.00  0.00    +0.086 C 
ATOM     21  C   UNL     1      30.700 -23.004 -15.340  0.00  0.00    +0.012 C 
ATOM     22  C   UNL     1      30.738 -25.149 -14.230  0.00  0.00    +0.012 C 
ATOM     23  C   UNL     1      29.340 -23.165 -15.604  0.00  0.00    +0.001 C 
ATOM     24  C   UNL     1      29.379 -25.310 -14.493  0.00  0.00    +0.001 C 
ATOM     25  C   UNL     1      28.679 -24.319 -15.181  0.00  0.00    +0.000 C 
ENDBRANCH   9  20
TORSDOF 1
ENDMDL
MODEL 5
REMARK VINA RESULT:     -11.3      1.834      5.295
REMARK  Name = 6419766
REMARK  1 active torsions:
REMARK  status: ('A' for Active; 'I' for Inactive)
REMARK    1  A    between atoms: C_9  and  C_20
REMARK                            x       y       z     vdW  Elec       q    Type
REMARK                         _______ _______ _______ _____ _____    ______ ____
ROOT
ATOM      1  N   UNL     1      32.546 -23.734 -16.513  0.00  0.00    -0.274 N 
ATOM      2  N   UNL     1      33.419 -22.319 -18.178  0.00  0.00    -0.328 NA
ATOM      3  N   UNL     1      35.738 -21.666 -18.144  0.00  0.00    -0.343 NA
ATOM      4  N   UNL     1      29.307 -22.661 -16.829  0.00  0.00    -0.239 N 
ATOM      5  N   UNL     1      30.606 -22.447 -17.095  0.00  0.00    -0.166 NA
ATOM      6  C   UNL     1      34.888 -23.110 -16.429  0.00  0.00    +0.143 C 
ATOM      7  C   UNL     1      33.649 -23.031 -17.059  0.00  0.00    +0.185 C 
ATOM      8  C   UNL     1      35.934 -22.388 -17.027  0.00  0.00    +0.133 C 
ATOM      9  C   UNL     1      34.492 -21.670 -18.659  0.00  0.00    +0.138 C 
ATOM     10  C   UNL     1      31.165 -23.483 -16.521  0.00  0.00    +0.152 C 
ATOM     11  C   UNL     1      35.103 -23.862 -15.261  0.00  0.00    -0.011 C 
ATOM     12  C   UNL     1      37.188 -22.442 -16.425  0.00  0.00    +0.029 C 
ATOM     13  C   UNL     1      30.303 -24.366 -15.892  0.00  0.00    +0.048 C 
ATOM     14  C   UNL     1      29.071 -23.797 -16.110  0.00  0.00    +0.046 C 
ATOM     15  C   UNL     1      36.367 -23.898 -14.681  0.00  0.00    -0.004 C 
ATOM     16  C   UNL     1      37.411 -23.187 -15.263  0.00  0.00    +0.002 C 
ATOM     17  C   UNL     1      27.714 -24.209 -15.716  0.00  0.00    +0.049 C 
ATOM     18  H   UNL     1      32.797 -24.558 -16.036  0.00  0.00    +0.156 HD
ATOM     19  H   UNL     1      28.591 -22.054 -17.124  0.00  0.00    +0.174 HD
ENDROOT
BRANCH   9  20
ATOM     20  C   UNL     1      34.291 -20.895 -19.855  0.00  0.00    +0.086 C 
ATOM     21  C   UNL     1      32.998 -20.603 -20.297  0.00  0.00    +0.012 C 
ATOM     22  C   UNL     1      35.389 -20.427 -20.584  0.00  0.00    +0.012 C 
ATOM     23  C   UNL     1      32.803 -19.850 -21.455  0.00  0.00    +0.001 C 
ATOM     24  C   UNL     1      35.196 -19.675 -21.741  0.00  0.00    +0.001 C 
ATOM     25  C   UNL     1      33.902 -19.385 -22.178  0.00  0.00    +0.000 C 
ENDBRANCH   9  20
TORSDOF 1
ENDMDL
MODEL 6
REMARK VINA RESULT:     -10.5      1.598      6.552
REMARK  Name = 6419766
REMARK  1 active torsions:
REMARK  status: ('A' for Active; 'I' for Inactive)
REMARK    1  A    between atoms: C_9  and  C_20
REMARK                            x       y       z     vdW  Elec       q    Type
REMARK                         _______ _______ _______ _____ _____    ______ ____
ROOT
ATOM      1  N   UNL     1      32.320 -22.995 -16.392  0.00  0.00    -0.274 N 
ATOM      2  N   UNL     1      34.421 -23.303 -15.380  0.00  0.00    -0.328 NA
ATOM      3  N   UNL     1      36.444 -22.691 -16.536  0.00  0.00    -0.343 NA
ATOM      4  N   UNL     1      30.719 -25.423 -14.580  0.00  0.00    -0.239 N 
ATOM      5  N   UNL     1      31.883 -24.882 -14.975  0.00  0.00    -0.166 NA
ATOM      6  C   UNL     1      34.323 -22.361 -17.603  0.00  0.00    +0.143 C 
ATOM      7  C   UNL     1      33.731 -22.885 -16.457  0.00  0.00    +0.185 C 
ATOM      8  C   UNL     1      35.725 -22.282 -17.595  0.00  0.00    +0.133 C 
ATOM      9  C   UNL     1      35.754 -23.180 -15.486  0.00  0.00    +0.138 C 
ATOM     10  C   UNL     1      31.469 -23.893 -15.726  0.00  0.00    +0.152 C 
ATOM     11  C   UNL     1      33.579 -21.929 -18.716  0.00  0.00    -0.011 C 
ATOM     12  C   UNL     1      36.352 -21.763 -18.725  0.00  0.00    +0.029 C 
ATOM     13  C   UNL     1      30.097 -23.754 -15.846  0.00  0.00    +0.048 C 
ATOM     14  C   UNL     1      29.618 -24.786 -15.075  0.00  0.00    +0.046 C 
ATOM     15  C   UNL     1      34.233 -21.416 -19.831  0.00  0.00    -0.004 C 
ATOM     16  C   UNL     1      35.621 -21.332 -19.836  0.00  0.00    +0.002 C 
ATOM     17  C   UNL     1      28.249 -25.225 -14.760  0.00  0.00    +0.049 C 
ATOM     18  H   UNL     1      31.844 -22.310 -16.914  0.00  0.00    +0.156 HD
ATOM     19  H   UNL     1      30.664 -26.208 -13.989  0.00  0.00    +0.174 HD
ENDROOT
BRANCH   9  20
ATOM     20  C   UNL     1      36.532 -23.616 -14.356  0.00  0.00    +0.086 C 
ATOM     21  C   UNL     1      36.240 -23.141 -13.074  0.00  0.00    +0.012 C 
ATOM     22  C   UNL     1      37.586 -24.518 -14.532  0.00  0.00    +0.012 C 
ATOM     23  C   UNL     1      36.993 -23.565 -11.979  0.00  0.00    +0.001 C 
ATOM     24  C   UNL     1      38.339 -24.942 -13.438  0.00  0.00    +0.001 C 
ATOM     25  C   UNL     1      38.042 -24.466 -12.160  0.00  0.00    +0.000 C 
ENDBRANCH   9  20
TORSDOF 1
ENDMDL
MODEL 7
REMARK VINA RESULT:     -10.4      9.128     12.880
REMARK  Name = 6419766
REMARK  1 active torsions:
REMARK  status: ('A' for Active; 'I' for Inactive)
REMARK    1  A    between atoms: C_9  and  C_20
REMARK                            x       y       z     vdW  Elec       q    Type
REMARK                         _______ _______ _______ _____ _____    ______ ____
ROOT
ATOM      1  N   UNL     1      32.660 -12.330 -23.195  0.00  0.00    -0.274 N 
ATOM      2  N   UNL     1      33.554 -14.507 -23.193  0.00  0.00    -0.328 NA
ATOM      3  N   UNL     1      33.826 -15.726 -25.253  0.00  0.00    -0.343 NA
ATOM      4  N   UNL     1      31.505 -12.441 -19.971  0.00  0.00    -0.239 N 
ATOM      5  N   UNL     1      31.968 -13.116 -21.036  0.00  0.00    -0.166 NA
ATOM      6  C   UNL     1      32.912 -13.510 -25.299  0.00  0.00    +0.143 C 
ATOM      7  C   UNL     1      33.055 -13.486 -23.915  0.00  0.00    +0.185 C 
ATOM      8  C   UNL     1      33.323 -14.688 -25.944  0.00  0.00    +0.133 C 
ATOM      9  C   UNL     1      33.913 -15.580 -23.916  0.00  0.00    +0.138 C 
ATOM     10  C   UNL     1      32.167 -12.147 -21.893  0.00  0.00    +0.152 C 
ATOM     11  C   UNL     1      32.388 -12.429 -26.031  0.00  0.00    -0.011 C 
ATOM     12  C   UNL     1      33.195 -14.749 -27.328  0.00  0.00    +0.029 C 
ATOM     13  C   UNL     1      31.861 -10.872 -21.449  0.00  0.00    +0.048 C 
ATOM     14  C   UNL     1      31.421 -11.093 -20.166  0.00  0.00    +0.046 C 
ATOM     15  C   UNL     1      32.271 -12.519 -27.414  0.00  0.00    -0.004 C 
ATOM     16  C   UNL     1      32.674 -13.679 -28.064  0.00  0.00    +0.002 C 
ATOM     17  C   UNL     1      30.938 -10.178 -19.120  0.00  0.00    +0.049 C 
ATOM     18  H   UNL     1      32.750 -11.494 -23.707  0.00  0.00    +0.156 HD
ATOM     19  H   UNL     1      31.249 -12.878 -19.127  0.00  0.00    +0.174 HD
ENDROOT
BRANCH   9  20
ATOM     20  C   UNL     1      34.453 -16.696 -23.184  0.00  0.00    +0.086 C 
ATOM     21  C   UNL     1      34.737 -16.575 -21.821  0.00  0.00    +0.012 C 
ATOM     22  C   UNL     1      34.695 -17.912 -23.832  0.00  0.00    +0.012 C 
ATOM     23  C   UNL     1      35.258 -17.657 -21.112  0.00  0.00    +0.001 C 
ATOM     24  C   UNL     1      35.216 -18.994 -23.124  0.00  0.00    +0.001 C 
ATOM     25  C   UNL     1      35.497 -18.867 -21.763  0.00  0.00    +0.000 C 
ENDBRANCH   9  20
TORSDOF 1
ENDMDL
MODEL 8
REMARK VINA RESULT:     -10.3      1.671      5.314
REMARK  Name = 6419766
REMARK  1 active torsions:
REMARK  status: ('A' for Active; 'I' for Inactive)
REMARK    1  A    between atoms: C_9  and  C_20
REMARK                            x       y       z     vdW  Elec       q    Type
REMARK                         _______ _______ _______ _____ _____    ______ ____
ROOT
ATOM      1  N   UNL     1      32.844 -24.706 -14.298  0.00  0.00    -0.274 N 
ATOM      2  N   UNL     1      34.111 -23.481 -15.857  0.00  0.00    -0.328 NA
ATOM      3  N   UNL     1      36.327 -22.713 -15.309  0.00  0.00    -0.343 NA
ATOM      4  N   UNL     1      29.793 -23.850 -15.601  0.00  0.00    -0.239 N 
ATOM      5  N   UNL     1      31.113 -23.607 -15.544  0.00  0.00    -0.166 NA
ATOM      6  C   UNL     1      35.070 -23.959 -13.692  0.00  0.00    +0.143 C 
ATOM      7  C   UNL     1      34.043 -24.027 -14.629  0.00  0.00    +0.185 C 
ATOM      8  C   UNL     1      36.227 -23.270 -14.089  0.00  0.00    +0.133 C 
ATOM      9  C   UNL     1      35.264 -22.848 -16.127  0.00  0.00    +0.138 C 
ATOM     10  C   UNL     1      31.512 -24.528 -14.704  0.00  0.00    +0.152 C 
ATOM     11  C   UNL     1      34.976 -24.538 -12.413  0.00  0.00    -0.011 C 
ATOM     12  C   UNL     1      37.275 -23.181 -13.178  0.00  0.00    +0.029 C 
ATOM     13  C   UNL     1      30.526 -25.363 -14.205  0.00  0.00    +0.048 C 
ATOM     14  C   UNL     1      29.389 -24.891 -14.816  0.00  0.00    +0.046 C 
ATOM     15  C   UNL     1      36.039 -24.433 -11.523  0.00  0.00    -0.004 C 
ATOM     16  C   UNL     1      37.190 -23.753 -11.905  0.00  0.00    +0.002 C 
ATOM     17  C   UNL     1      27.982 -25.315 -14.739  0.00  0.00    +0.049 C 
ATOM     18  H   UNL     1      32.970 -25.446 -13.661  0.00  0.00    +0.156 HD
ATOM     19  H   UNL     1      29.173 -23.324 -16.156  0.00  0.00    +0.174 HD
ENDROOT
BRANCH   9  20
ATOM     20  C   UNL     1      35.379 -22.249 -17.431  0.00  0.00    +0.086 C 
ATOM     21  C   UNL     1      36.556 -21.595 -17.804  0.00  0.00    +0.012 C 
ATOM     22  C   UNL     1      34.314 -22.319 -18.334  0.00  0.00    +0.012 C 
ATOM     23  C   UNL     1      36.668 -21.016 -19.068  0.00  0.00    +0.001 C 
ATOM     24  C   UNL     1      34.425 -21.741 -19.598  0.00  0.00    +0.001 C 
ATOM     25  C   UNL     1      35.603 -21.089 -19.966  0.00  0.00    +0.000 C 
ENDBRANCH   9  20
TORSDOF 1
ENDMDL
