MODEL 1
REMARK VINA RESULT:     -11.9      0.000      0.000
REMARK  Name = 18376177
REMARK  11 active torsions:
REMARK  status: ('A' for Active; 'I' for Inactive)
REMARK    1  A    between atoms: N_1  and  S_2
REMARK    2  A    between atoms: N_1  and  C_11
REMARK    3  A    between atoms: N_1  and  C_23
REMARK    4  A    between atoms: S_2  and  C_6
REMARK    5  A    between atoms: C_11  and  C_12
REMARK    6  A    between atoms: C_15  and  N_18
REMARK    7  A    between atoms: C_23  and  C_24
REMARK    8  A    between atoms: C_27  and  O_30
REMARK    9  A    between atoms: O_30  and  C_31
REMARK   10  A    between atoms: C_31  and  C_33
REMARK   11  A    between atoms: C_33  and  O_34
REMARK                            x       y       z     vdW  Elec       q    Type
REMARK                         _______ _______ _______ _____ _____    ______ ____
ROOT
ATOM      1  N   UNL     1      32.998 -23.246 -15.342  0.00  0.00    -0.147 NA
ENDROOT
BRANCH   1   2
ATOM      2  S   UNL     1      31.784 -24.007 -14.383  0.00  0.00    +0.065 S 
ATOM      3  O   UNL     1      31.569 -23.236 -13.173  0.00  0.00    -0.153 OA
ATOM      4  O   UNL     1      32.068 -25.427 -14.284  0.00  0.00    -0.153 OA
BRANCH   2   6
ATOM      5  N   UNL     1      29.055 -22.505 -16.951  0.00  0.00    -0.241 NA
ATOM      6  C   UNL     1      30.334 -23.831 -15.385  0.00  0.00    +0.141 C 
ATOM      7  C   UNL     1      29.358 -24.820 -15.412  0.00  0.00    +0.023 C 
ATOM      8  C   UNL     1      30.137 -22.703 -16.165  0.00  0.00    +0.119 C 
ATOM      9  C   UNL     1      28.230 -24.654 -16.208  0.00  0.00    +0.022 C 
ATOM     10  C   UNL     1      28.127 -23.489 -16.952  0.00  0.00    +0.099 C 
ENDBRANCH   2   6
ENDBRANCH   1   2
BRANCH   1  11
ATOM     11  C   UNL     1      33.386 -23.898 -16.618  0.00  0.00    +0.122 C 
BRANCH  11  12
ATOM     12  C   UNL     1      33.752 -22.900 -17.680  0.00  0.00    -0.004 C 
ATOM     13  C   UNL     1      35.081 -22.510 -17.842  0.00  0.00    -0.002 C 
ATOM     14  C   UNL     1      32.763 -22.363 -18.504  0.00  0.00    -0.002 C 
ATOM     15  C   UNL     1      34.432 -21.044 -19.650  0.00  0.00    +0.074 C 
ATOM     16  C   UNL     1      35.421 -21.582 -18.827  0.00  0.00    +0.016 C 
ATOM     17  C   UNL     1      33.102 -21.435 -19.489  0.00  0.00    +0.016 C 
BRANCH  15  18
ATOM     18  N   UNL     1      34.769 -20.126 -20.627  0.00  0.00    -0.189 N 
ATOM     19  N   UNL     1      35.983 -19.548 -20.627  0.00  0.00    -0.172 NA
ATOM     20  C   UNL     1      33.965 -19.722 -21.651  0.00  0.00    +0.091 C 
ATOM     21  C   UNL     1      34.703 -18.814 -22.371  0.00  0.00    +0.040 C 
ATOM     22  C   UNL     1      35.935 -18.746 -21.695  0.00  0.00    +0.120 C 
ENDBRANCH  15  18
ENDBRANCH  11  12
ENDBRANCH   1  11
BRANCH   1  23
ATOM     23  C   UNL     1      34.169 -22.660 -14.640  0.00  0.00    +0.123 C 
BRANCH  23  24
ATOM     24  C   UNL     1      35.007 -23.706 -13.961  0.00  0.00    -0.001 C 
ATOM     25  C   UNL     1      35.920 -24.458 -14.701  0.00  0.00    +0.034 C 
ATOM     26  C   UNL     1      34.874 -23.925 -12.590  0.00  0.00    -0.003 C 
ATOM     27  C   UNL     1      36.698 -25.428 -14.071  0.00  0.00    +0.139 C 
ATOM     28  C   UNL     1      35.651 -24.895 -11.959  0.00  0.00    +0.003 C 
ATOM     29  C   UNL     1      36.564 -25.647 -12.700  0.00  0.00    +0.037 C 
BRANCH  27  30
ATOM     30  O   UNL     1      37.586 -26.164 -14.794  0.00  0.00    -0.464 OA
BRANCH  30  31
ATOM     31  C   UNL     1      38.853 -26.429 -14.192  0.00  0.00    +0.314 C 
BRANCH  31  33
ATOM     32  O   UNL     1      40.472 -24.627 -14.375  0.00  0.00    -0.246 OA
ATOM     33  C   UNL     1      39.916 -25.602 -14.859  0.00  0.00    +0.359 C 
BRANCH  33  34
ATOM     34  O   UNL     1      40.182 -26.092 -16.095  0.00  0.00    -0.478 OA
ATOM     35  H   UNL     1      40.358 -27.005 -16.210  0.00  0.00    +0.295 HD
ENDBRANCH  33  34
ENDBRANCH  31  33
ENDBRANCH  30  31
ENDBRANCH  27  30
ENDBRANCH  23  24
ENDBRANCH   1  23
TORSDOF 11
ENDMDL
MODEL 2
REMARK VINA RESULT:     -11.1      2.486      6.898
REMARK  Name = 18376177
REMARK  11 active torsions:
REMARK  status: ('A' for Active; 'I' for Inactive)
REMARK    1  A    between atoms: N_1  and  S_2
REMARK    2  A    between atoms: N_1  and  C_11
REMARK    3  A    between atoms: N_1  and  C_23
REMARK    4  A    between atoms: S_2  and  C_6
REMARK    5  A    between atoms: C_11  and  C_12
REMARK    6  A    between atoms: C_15  and  N_18
REMARK    7  A    between atoms: C_23  and  C_24
REMARK    8  A    between atoms: C_27  and  O_30
REMARK    9  A    between atoms: O_30  and  C_31
REMARK   10  A    between atoms: C_31  and  C_33
REMARK   11  A    between atoms: C_33  and  O_34
REMARK                            x       y       z     vdW  Elec       q    Type
REMARK                         _______ _______ _______ _____ _____    ______ ____
ROOT
ATOM      1  N   UNL     1      33.996 -23.699 -15.646  0.00  0.00    -0.147 NA
ENDROOT
BRANCH   1   2
ATOM      2  S   UNL     1      35.638 -23.444 -15.184  0.00  0.00    +0.065 S 
ATOM      3  O   UNL     1      35.982 -22.047 -15.371  0.00  0.00    -0.153 OA
ATOM      4  O   UNL     1      36.473 -24.471 -15.780  0.00  0.00    -0.153 OA
BRANCH   2   6
ATOM      5  N   UNL     1      34.567 -24.865 -11.560  0.00  0.00    -0.241 NA
ATOM      6  C   UNL     1      35.599 -23.747 -13.439  0.00  0.00    +0.141 C 
ATOM      7  C   UNL     1      36.517 -23.145 -12.587  0.00  0.00    +0.023 C 
ATOM      8  C   UNL     1      34.652 -24.591 -12.881  0.00  0.00    +0.119 C 
ATOM      9  C   UNL     1      36.462 -23.402 -11.222  0.00  0.00    +0.022 C 
ATOM     10  C   UNL     1      35.477 -24.262 -10.762  0.00  0.00    +0.099 C 
ENDBRANCH   2   6
ENDBRANCH   1   2
BRANCH   1  11
ATOM     11  C   UNL     1      33.724 -24.079 -17.055  0.00  0.00    +0.122 C 
BRANCH  11  12
ATOM     12  C   UNL     1      33.981 -22.948 -18.011  0.00  0.00    -0.004 C 
ATOM     13  C   UNL     1      32.926 -22.397 -18.738  0.00  0.00    -0.002 C 
ATOM     14  C   UNL     1      35.274 -22.450 -18.172  0.00  0.00    -0.002 C 
ATOM     15  C   UNL     1      34.458 -20.851 -19.788  0.00  0.00    +0.074 C 
ATOM     16  C   UNL     1      33.165 -21.348 -19.626  0.00  0.00    +0.016 C 
ATOM     17  C   UNL     1      35.512 -21.402 -19.060  0.00  0.00    +0.016 C 
BRANCH  15  18
ATOM     18  N   UNL     1      34.693 -19.810 -20.667  0.00  0.00    -0.189 N 
ATOM     19  N   UNL     1      35.846 -19.121 -20.612  0.00  0.00    -0.172 NA
ATOM     20  C   UNL     1      33.841 -19.382 -21.641  0.00  0.00    +0.091 C 
ATOM     21  C   UNL     1      34.479 -18.339 -22.267  0.00  0.00    +0.040 C 
ATOM     22  C   UNL     1      35.708 -18.223 -21.593  0.00  0.00    +0.120 C 
ENDBRANCH  15  18
ENDBRANCH  11  12
ENDBRANCH   1  11
BRANCH   1  23
ATOM     23  C   UNL     1      32.974 -22.760 -15.117  0.00  0.00    +0.123 C 
BRANCH  23  24
ATOM     24  C   UNL     1      31.577 -23.292 -15.275  0.00  0.00    -0.001 C 
ATOM     25  C   UNL     1      30.706 -22.704 -16.191  0.00  0.00    +0.034 C 
ATOM     26  C   UNL     1      31.152 -24.376 -14.505  0.00  0.00    -0.003 C 
ATOM     27  C   UNL     1      29.410 -23.198 -16.338  0.00  0.00    +0.139 C 
ATOM     28  C   UNL     1      29.856 -24.869 -14.652  0.00  0.00    +0.003 C 
ATOM     29  C   UNL     1      28.985 -24.281 -15.569  0.00  0.00    +0.037 C 
BRANCH  27  30
ATOM     30  O   UNL     1      28.559 -22.622 -17.230  0.00  0.00    -0.464 OA
BRANCH  30  31
ATOM     31  C   UNL     1      27.222 -23.122 -17.270  0.00  0.00    +0.314 C 
BRANCH  31  33
ATOM     32  O   UNL     1      25.569 -22.132 -15.790  0.00  0.00    -0.246 OA
ATOM     33  C   UNL     1      26.269 -22.064 -16.790  0.00  0.00    +0.359 C 
BRANCH  33  34
ATOM     34  O   UNL     1      26.288 -21.000 -17.631  0.00  0.00    -0.478 OA
ATOM     35  H   UNL     1      25.625 -20.341 -17.569  0.00  0.00    +0.295 HD
ENDBRANCH  33  34
ENDBRANCH  31  33
ENDBRANCH  30  31
ENDBRANCH  27  30
ENDBRANCH  23  24
ENDBRANCH   1  23
TORSDOF 11
ENDMDL
MODEL 3
REMARK VINA RESULT:     -11.1      2.616      7.108
REMARK  Name = 18376177
REMARK  11 active torsions:
REMARK  status: ('A' for Active; 'I' for Inactive)
REMARK    1  A    between atoms: N_1  and  S_2
REMARK    2  A    between atoms: N_1  and  C_11
REMARK    3  A    between atoms: N_1  and  C_23
REMARK    4  A    between atoms: S_2  and  C_6
REMARK    5  A    between atoms: C_11  and  C_12
REMARK    6  A    between atoms: C_15  and  N_18
REMARK    7  A    between atoms: C_23  and  C_24
REMARK    8  A    between atoms: C_27  and  O_30
REMARK    9  A    between atoms: O_30  and  C_31
REMARK   10  A    between atoms: C_31  and  C_33
REMARK   11  A    between atoms: C_33  and  O_34
REMARK                            x       y       z     vdW  Elec       q    Type
REMARK                         _______ _______ _______ _____ _____    ______ ____
ROOT
ATOM      1  N   UNL     1      33.873 -24.289 -14.086  0.00  0.00    -0.147 NA
ENDROOT
BRANCH   1   2
ATOM      2  S   UNL     1      35.022 -24.202 -12.804  0.00  0.00    +0.065 S 
ATOM      3  O   UNL     1      34.569 -25.016 -11.691  0.00  0.00    -0.153 OA
ATOM      4  O   UNL     1      35.385 -22.816 -12.574  0.00  0.00    -0.153 OA
BRANCH   2   6
ATOM      5  N   UNL     1      37.476 -27.041 -14.292  0.00  0.00    -0.241 NA
ATOM      6  C   UNL     1      36.439 -25.006 -13.500  0.00  0.00    +0.141 C 
ATOM      7  C   UNL     1      37.593 -24.292 -13.800  0.00  0.00    +0.023 C 
ATOM      8  C   UNL     1      36.431 -26.367 -13.763  0.00  0.00    +0.119 C 
ATOM      9  C   UNL     1      38.689 -24.950 -14.345  0.00  0.00    +0.022 C 
ATOM     10  C   UNL     1      38.581 -26.314 -14.571  0.00  0.00    +0.099 C 
ENDBRANCH   2   6
ENDBRANCH   1   2
BRANCH   1  11
ATOM     11  C   UNL     1      34.312 -24.884 -15.373  0.00  0.00    +0.122 C 
BRANCH  11  12
ATOM     12  C   UNL     1      34.413 -23.860 -16.469  0.00  0.00    -0.004 C 
ATOM     13  C   UNL     1      33.434 -23.803 -17.461  0.00  0.00    -0.002 C 
ATOM     14  C   UNL     1      35.484 -22.968 -16.494  0.00  0.00    -0.002 C 
ATOM     15  C   UNL     1      34.600 -21.962 -18.505  0.00  0.00    +0.074 C 
ATOM     16  C   UNL     1      33.528 -22.854 -18.480  0.00  0.00    +0.016 C 
ATOM     17  C   UNL     1      35.578 -22.019 -17.512  0.00  0.00    +0.016 C 
BRANCH  15  18
ATOM     18  N   UNL     1      34.692 -21.020 -19.513  0.00  0.00    -0.189 N 
ATOM     19  N   UNL     1      35.880 -20.478 -19.832  0.00  0.00    -0.172 NA
ATOM     20  C   UNL     1      33.654 -20.556 -20.266  0.00  0.00    +0.091 C 
ATOM     21  C   UNL     1      34.199 -19.646 -21.137  0.00  0.00    +0.040 C 
ATOM     22  C   UNL     1      35.571 -19.638 -20.826  0.00  0.00    +0.120 C 
ENDBRANCH  15  18
ENDBRANCH  11  12
ENDBRANCH   1  11
BRANCH   1  23
ATOM     23  C   UNL     1      32.974 -23.124 -14.291  0.00  0.00    +0.123 C 
BRANCH  23  24
ATOM     24  C   UNL     1      31.573 -23.541 -14.642  0.00  0.00    -0.001 C 
ATOM     25  C   UNL     1      30.859 -22.841 -15.613  0.00  0.00    +0.034 C 
ATOM     26  C   UNL     1      30.987 -24.630 -13.995  0.00  0.00    -0.003 C 
ATOM     27  C   UNL     1      29.559 -23.228 -15.938  0.00  0.00    +0.139 C 
ATOM     28  C   UNL     1      29.687 -25.017 -14.320  0.00  0.00    +0.003 C 
ATOM     29  C   UNL     1      28.973 -24.316 -15.292  0.00  0.00    +0.037 C 
BRANCH  27  30
ATOM     30  O   UNL     1      28.861 -22.543 -16.885  0.00  0.00    -0.464 OA
BRANCH  30  31
ATOM     31  C   UNL     1      27.584 -23.061 -17.253  0.00  0.00    +0.314 C 
BRANCH  31  33
ATOM     32  O   UNL     1      26.229 -21.085 -17.656  0.00  0.00    -0.246 OA
ATOM     33  C   UNL     1      26.517 -22.044 -16.956  0.00  0.00    +0.359 C 
BRANCH  33  34
ATOM     34  O   UNL     1      25.903 -22.340 -15.783  0.00  0.00    -0.478 OA
ATOM     35  H   UNL     1      26.194 -23.069 -15.271  0.00  0.00    +0.295 HD
ENDBRANCH  33  34
ENDBRANCH  31  33
ENDBRANCH  30  31
ENDBRANCH  27  30
ENDBRANCH  23  24
ENDBRANCH   1  23
TORSDOF 11
ENDMDL
MODEL 4
REMARK VINA RESULT:     -10.7      3.280      7.510
REMARK  Name = 18376177
REMARK  11 active torsions:
REMARK  status: ('A' for Active; 'I' for Inactive)
REMARK    1  A    between atoms: N_1  and  S_2
REMARK    2  A    between atoms: N_1  and  C_11
REMARK    3  A    between atoms: N_1  and  C_23
REMARK    4  A    between atoms: S_2  and  C_6
REMARK    5  A    between atoms: C_11  and  C_12
REMARK    6  A    between atoms: C_15  and  N_18
REMARK    7  A    between atoms: C_23  and  C_24
REMARK    8  A    between atoms: C_27  and  O_30
REMARK    9  A    between atoms: O_30  and  C_31
REMARK   10  A    between atoms: C_31  and  C_33
REMARK   11  A    between atoms: C_33  and  O_34
REMARK                            x       y       z     vdW  Elec       q    Type
REMARK                         _______ _______ _______ _____ _____    ______ ____
ROOT
ATOM      1  N   UNL     1      34.623 -24.241 -13.305  0.00  0.00    -0.147 NA
ENDROOT
BRANCH   1   2
ATOM      2  S   UNL     1      36.006 -24.128 -12.282  0.00  0.00    +0.065 S 
ATOM      3  O   UNL     1      35.743 -24.821 -11.034  0.00  0.00    -0.153 OA
ATOM      4  O   UNL     1      36.473 -22.754 -12.251  0.00  0.00    -0.153 OA
BRANCH   2   6
ATOM      5  N   UNL     1      37.755 -27.042 -14.460  0.00  0.00    -0.241 NA
ATOM      6  C   UNL     1      37.216 -25.074 -13.164  0.00  0.00    +0.141 C 
ATOM      7  C   UNL     1      38.532 -24.637 -13.266  0.00  0.00    +0.023 C 
ATOM      8  C   UNL     1      36.882 -26.273 -13.773  0.00  0.00    +0.119 C 
ATOM      9  C   UNL     1      39.460 -25.400 -13.965  0.00  0.00    +0.022 C 
ATOM     10  C   UNL     1      39.025 -26.585 -14.539  0.00  0.00    +0.099 C 
ENDBRANCH   2   6
ENDBRANCH   1   2
BRANCH   1  11
ATOM     11  C   UNL     1      33.341 -24.676 -12.693  0.00  0.00    +0.122 C 
BRANCH  11  12
ATOM     12  C   UNL     1      32.152 -24.290 -13.527  0.00  0.00    -0.004 C 
ATOM     13  C   UNL     1      31.244 -25.265 -13.940  0.00  0.00    -0.002 C 
ATOM     14  C   UNL     1      31.956 -22.957 -13.888  0.00  0.00    -0.002 C 
ATOM     15  C   UNL     1      29.946 -23.574 -15.077  0.00  0.00    +0.074 C 
ATOM     16  C   UNL     1      30.141 -24.907 -14.715  0.00  0.00    +0.016 C 
ATOM     17  C   UNL     1      30.853 -22.599 -14.663  0.00  0.00    +0.016 C 
BRANCH  15  18
ATOM     18  N   UNL     1      28.851 -23.219 -15.844  0.00  0.00    -0.189 N 
ATOM     19  N   UNL     1      28.070 -22.188 -15.479  0.00  0.00    -0.172 NA
ATOM     20  C   UNL     1      28.455 -23.830 -16.997  0.00  0.00    +0.091 C 
ATOM     21  C   UNL     1      27.336 -23.153 -17.415  0.00  0.00    +0.040 C 
ATOM     22  C   UNL     1      27.145 -22.154 -16.443  0.00  0.00    +0.120 C 
ENDBRANCH  15  18
ENDBRANCH  11  12
ENDBRANCH   1  11
BRANCH   1  23
ATOM     23  C   UNL     1      34.810 -24.810 -14.664  0.00  0.00    +0.123 C 
BRANCH  23  24
ATOM     24  C   UNL     1      35.155 -23.756 -15.679  0.00  0.00    -0.001 C 
ATOM     25  C   UNL     1      34.254 -23.447 -16.698  0.00  0.00    +0.034 C 
ATOM     26  C   UNL     1      36.377 -23.087 -15.602  0.00  0.00    -0.003 C 
ATOM     27  C   UNL     1      34.574 -22.470 -17.639  0.00  0.00    +0.139 C 
ATOM     28  C   UNL     1      36.697 -22.109 -16.543  0.00  0.00    +0.003 C 
ATOM     29  C   UNL     1      35.795 -21.800 -17.562  0.00  0.00    +0.037 C 
BRANCH  27  30
ATOM     30  O   UNL     1      33.696 -22.170 -18.635  0.00  0.00    -0.464 OA
BRANCH  30  31
ATOM     31  C   UNL     1      34.194 -21.406 -19.733  0.00  0.00    +0.314 C 
BRANCH  31  33
ATOM     32  O   UNL     1      33.180 -19.841 -21.290  0.00  0.00    -0.246 OA
ATOM     33  C   UNL     1      33.093 -20.557 -20.304  0.00  0.00    +0.359 C 
BRANCH  33  34
ATOM     34  O   UNL     1      31.965 -20.695 -19.564  0.00  0.00    -0.478 OA
ATOM     35  H   UNL     1      31.838 -20.168 -18.799  0.00  0.00    +0.295 HD
ENDBRANCH  33  34
ENDBRANCH  31  33
ENDBRANCH  30  31
ENDBRANCH  27  30
ENDBRANCH  23  24
ENDBRANCH   1  23
TORSDOF 11
ENDMDL
MODEL 5
REMARK VINA RESULT:     -10.1      7.053     10.946
REMARK  Name = 18376177
REMARK  11 active torsions:
REMARK  status: ('A' for Active; 'I' for Inactive)
REMARK    1  A    between atoms: N_1  and  S_2
REMARK    2  A    between atoms: N_1  and  C_11
REMARK    3  A    between atoms: N_1  and  C_23
REMARK    4  A    between atoms: S_2  and  C_6
REMARK    5  A    between atoms: C_11  and  C_12
REMARK    6  A    between atoms: C_15  and  N_18
REMARK    7  A    between atoms: C_23  and  C_24
REMARK    8  A    between atoms: C_27  and  O_30
REMARK    9  A    between atoms: O_30  and  C_31
REMARK   10  A    between atoms: C_31  and  C_33
REMARK   11  A    between atoms: C_33  and  O_34
REMARK                            x       y       z     vdW  Elec       q    Type
REMARK                         _______ _______ _______ _____ _____    ______ ____
ROOT
ATOM      1  N   UNL     1      33.880 -17.022 -24.372  0.00  0.00    -0.147 NA
ENDROOT
BRANCH   1   2
ATOM      2  S   UNL     1      34.222 -17.033 -26.062  0.00  0.00    +0.065 S 
ATOM      3  O   UNL     1      34.186 -18.398 -26.553  0.00  0.00    -0.153 OA
ATOM      4  O   UNL     1      35.388 -16.210 -26.324  0.00  0.00    -0.153 OA
BRANCH   2   6
ATOM      5  N   UNL     1      31.881 -14.167 -27.675  0.00  0.00    -0.241 NA
ATOM      6  C   UNL     1      32.821 -16.191 -26.745  0.00  0.00    +0.141 C 
ATOM      7  C   UNL     1      31.600 -16.837 -26.894  0.00  0.00    +0.023 C 
ATOM      8  C   UNL     1      32.909 -14.868 -27.147  0.00  0.00    +0.119 C 
ATOM      9  C   UNL     1      30.518 -16.150 -27.434  0.00  0.00    +0.022 C 
ATOM     10  C   UNL     1      30.709 -14.828 -27.806  0.00  0.00    +0.099 C 
ENDBRANCH   2   6
ENDBRANCH   1   2
BRANCH   1  11
ATOM     11  C   UNL     1      34.735 -16.181 -23.496  0.00  0.00    +0.122 C 
BRANCH  11  12
ATOM     12  C   UNL     1      33.983 -15.020 -22.910  0.00  0.00    -0.004 C 
ATOM     13  C   UNL     1      33.976 -14.819 -21.531  0.00  0.00    -0.002 C 
ATOM     14  C   UNL     1      33.291 -14.143 -23.746  0.00  0.00    -0.002 C 
ATOM     15  C   UNL     1      32.583 -12.866 -21.822  0.00  0.00    +0.074 C 
ATOM     16  C   UNL     1      33.276 -13.741 -20.986  0.00  0.00    +0.016 C 
ATOM     17  C   UNL     1      32.591 -13.067 -23.202  0.00  0.00    +0.016 C 
BRANCH  15  18
ATOM     18  N   UNL     1      31.891 -11.797 -21.282  0.00  0.00    -0.189 N 
ATOM     19  N   UNL     1      31.475 -10.789 -22.067  0.00  0.00    -0.172 NA
ATOM     20  C   UNL     1      31.561 -11.645 -19.967  0.00  0.00    +0.091 C 
ATOM     21  C   UNL     1      30.883 -10.453 -19.887  0.00  0.00    +0.040 C 
ATOM     22  C   UNL     1      30.860  -9.970 -21.208  0.00  0.00    +0.120 C 
ENDBRANCH  15  18
ENDBRANCH  11  12
ENDBRANCH   1  11
BRANCH   1  23
ATOM     23  C   UNL     1      33.527 -18.313 -23.728  0.00  0.00    +0.123 C 
BRANCH  23  24
ATOM     24  C   UNL     1      34.559 -18.751 -22.727  0.00  0.00    -0.001 C 
ATOM     25  C   UNL     1      34.169 -19.441 -21.579  0.00  0.00    +0.034 C 
ATOM     26  C   UNL     1      35.907 -18.468 -22.947  0.00  0.00    -0.003 C 
ATOM     27  C   UNL     1      35.127 -19.848 -20.651  0.00  0.00    +0.139 C 
ATOM     28  C   UNL     1      36.865 -18.875 -22.019  0.00  0.00    +0.003 C 
ATOM     29  C   UNL     1      36.475 -19.565 -20.870  0.00  0.00    +0.037 C 
BRANCH  27  30
ATOM     30  O   UNL     1      34.747 -20.519 -19.530  0.00  0.00    -0.464 OA
BRANCH  30  31
ATOM     31  C   UNL     1      34.769 -21.945 -19.586  0.00  0.00    +0.314 C 
BRANCH  31  33
ATOM     32  O   UNL     1      32.372 -21.855 -19.201  0.00  0.00    -0.246 OA
ATOM     33  C   UNL     1      33.416 -22.489 -19.222  0.00  0.00    +0.359 C 
BRANCH  33  34
ATOM     34  O   UNL     1      33.510 -23.807 -18.914  0.00  0.00    -0.478 OA
ATOM     35  H   UNL     1      34.287 -24.285 -19.127  0.00  0.00    +0.295 HD
ENDBRANCH  33  34
ENDBRANCH  31  33
ENDBRANCH  30  31
ENDBRANCH  27  30
ENDBRANCH  23  24
ENDBRANCH   1  23
TORSDOF 11
ENDMDL
MODEL 6
REMARK VINA RESULT:     -10.0      2.452      6.505
REMARK  Name = 18376177
REMARK  11 active torsions:
REMARK  status: ('A' for Active; 'I' for Inactive)
REMARK    1  A    between atoms: N_1  and  S_2
REMARK    2  A    between atoms: N_1  and  C_11
REMARK    3  A    between atoms: N_1  and  C_23
REMARK    4  A    between atoms: S_2  and  C_6
REMARK    5  A    between atoms: C_11  and  C_12
REMARK    6  A    between atoms: C_15  and  N_18
REMARK    7  A    between atoms: C_23  and  C_24
REMARK    8  A    between atoms: C_27  and  O_30
REMARK    9  A    between atoms: O_30  and  C_31
REMARK   10  A    between atoms: C_31  and  C_33
REMARK   11  A    between atoms: C_33  and  O_34
REMARK                            x       y       z     vdW  Elec       q    Type
REMARK                         _______ _______ _______ _____ _____    ______ ____
ROOT
ATOM      1  N   UNL     1      35.350 -23.583 -15.710  0.00  0.00    -0.147 NA
ENDROOT
BRANCH   1   2
ATOM      2  S   UNL     1      35.837 -25.050 -14.946  0.00  0.00    +0.065 S 
ATOM      3  O   UNL     1      37.164 -25.417 -15.405  0.00  0.00    -0.153 OA
ATOM      4  O   UNL     1      34.760 -26.019 -15.029  0.00  0.00    -0.153 OA
BRANCH   2   6
ATOM      5  N   UNL     1      35.376 -24.947 -10.937  0.00  0.00    -0.241 NA
ATOM      6  C   UNL     1      35.982 -24.571 -13.247  0.00  0.00    +0.141 C 
ATOM      7  C   UNL     1      36.774 -23.492 -12.872  0.00  0.00    +0.023 C 
ATOM      8  C   UNL     1      35.309 -25.259 -12.250  0.00  0.00    +0.119 C 
ATOM      9  C   UNL     1      36.869 -23.139 -11.530  0.00  0.00    +0.022 C 
ATOM     10  C   UNL     1      36.156 -23.893 -10.610  0.00  0.00    +0.099 C 
ENDBRANCH   2   6
ENDBRANCH   1   2
BRANCH   1  11
ATOM     11  C   UNL     1      36.394 -22.777 -16.394  0.00  0.00    +0.122 C 
BRANCH  11  12
ATOM     12  C   UNL     1      35.870 -22.094 -17.626  0.00  0.00    -0.004 C 
ATOM     13  C   UNL     1      36.662 -21.163 -18.296  0.00  0.00    -0.002 C 
ATOM     14  C   UNL     1      34.592 -22.391 -18.098  0.00  0.00    -0.002 C 
ATOM     15  C   UNL     1      34.896 -20.824 -19.911  0.00  0.00    +0.074 C 
ATOM     16  C   UNL     1      36.175 -20.527 -19.439  0.00  0.00    +0.016 C 
ATOM     17  C   UNL     1      34.105 -21.756 -19.240  0.00  0.00    +0.016 C 
BRANCH  15  18
ATOM     18  N   UNL     1      34.415 -20.195 -21.045  0.00  0.00    -0.189 N 
ATOM     19  N   UNL     1      33.092 -20.082 -21.250  0.00  0.00    -0.172 NA
ATOM     20  C   UNL     1      35.176 -19.642 -22.032  0.00  0.00    +0.091 C 
ATOM     21  C   UNL     1      34.289 -19.133 -22.948  0.00  0.00    +0.040 C 
ATOM     22  C   UNL     1      33.021 -19.432 -22.416  0.00  0.00    +0.120 C 
ENDBRANCH  15  18
ENDBRANCH  11  12
ENDBRANCH   1  11
BRANCH   1  23
ATOM     23  C   UNL     1      34.363 -22.728 -15.003  0.00  0.00    +0.123 C 
BRANCH  23  24
ATOM     24  C   UNL     1      32.985 -23.328 -15.007  0.00  0.00    -0.001 C 
ATOM     25  C   UNL     1      32.078 -22.987 -16.011  0.00  0.00    +0.034 C 
ATOM     26  C   UNL     1      32.612 -24.226 -14.007  0.00  0.00    -0.003 C 
ATOM     27  C   UNL     1      30.799 -23.543 -16.014  0.00  0.00    +0.139 C 
ATOM     28  C   UNL     1      31.334 -24.783 -14.010  0.00  0.00    +0.003 C 
ATOM     29  C   UNL     1      30.427 -24.442 -15.015  0.00  0.00    +0.037 C 
BRANCH  27  30
ATOM     30  O   UNL     1      29.914 -23.209 -16.992  0.00  0.00    -0.464 OA
BRANCH  30  31
ATOM     31  C   UNL     1      28.702 -22.574 -16.583  0.00  0.00    +0.314 C 
BRANCH  31  33
ATOM     32  O   UNL     1      27.383 -24.397 -17.499  0.00  0.00    -0.246 OA
ATOM     33  C   UNL     1      27.535 -23.202 -17.290  0.00  0.00    +0.359 C 
BRANCH  33  34
ATOM     34  O   UNL     1      26.652 -22.247 -17.675  0.00  0.00    -0.478 OA
ATOM     35  H   UNL     1      26.955 -21.481 -18.122  0.00  0.00    +0.295 HD
ENDBRANCH  33  34
ENDBRANCH  31  33
ENDBRANCH  30  31
ENDBRANCH  27  30
ENDBRANCH  23  24
ENDBRANCH   1  23
TORSDOF 11
ENDMDL
MODEL 7
REMARK VINA RESULT:      -9.9     10.936     15.666
REMARK  Name = 18376177
REMARK  11 active torsions:
REMARK  status: ('A' for Active; 'I' for Inactive)
REMARK    1  A    between atoms: N_1  and  S_2
REMARK    2  A    between atoms: N_1  and  C_11
REMARK    3  A    between atoms: N_1  and  C_23
REMARK    4  A    between atoms: S_2  and  C_6
REMARK    5  A    between atoms: C_11  and  C_12
REMARK    6  A    between atoms: C_15  and  N_18
REMARK    7  A    between atoms: C_23  and  C_24
REMARK    8  A    between atoms: C_27  and  O_30
REMARK    9  A    between atoms: O_30  and  C_31
REMARK   10  A    between atoms: C_31  and  C_33
REMARK   11  A    between atoms: C_33  and  O_34
REMARK                            x       y       z     vdW  Elec       q    Type
REMARK                         _______ _______ _______ _____ _____    ______ ____
ROOT
ATOM      1  N   UNL     1      33.170 -11.068 -24.373  0.00  0.00    -0.147 NA
ENDROOT
BRANCH   1   2
ATOM      2  S   UNL     1      34.357  -9.915 -24.855  0.00  0.00    +0.065 S 
ATOM      3  O   UNL     1      35.009 -10.371 -26.069  0.00  0.00    -0.153 OA
ATOM      4  O   UNL     1      35.164  -9.542 -23.708  0.00  0.00    -0.153 OA
BRANCH   2   6
ATOM      5  N   UNL     1      31.824  -7.459 -26.817  0.00  0.00    -0.241 NA
ATOM      6  C   UNL     1      33.374  -8.505 -25.285  0.00  0.00    +0.141 C 
ATOM      7  C   UNL     1      33.358  -7.371 -24.481  0.00  0.00    +0.023 C 
ATOM      8  C   UNL     1      32.596  -8.499 -26.432  0.00  0.00    +0.119 C 
ATOM      9  C   UNL     1      32.576  -6.280 -24.844  0.00  0.00    +0.022 C 
ATOM     10  C   UNL     1      31.834  -6.373 -26.011  0.00  0.00    +0.099 C 
ENDBRANCH   2   6
ENDBRANCH   1   2
BRANCH   1  11
ATOM     11  C   UNL     1      32.981 -12.268 -25.227  0.00  0.00    +0.122 C 
BRANCH  11  12
ATOM     12  C   UNL     1      33.436 -13.529 -24.547  0.00  0.00    -0.004 C 
ATOM     13  C   UNL     1      33.999 -13.469 -23.273  0.00  0.00    -0.002 C 
ATOM     14  C   UNL     1      33.296 -14.758 -25.190  0.00  0.00    -0.002 C 
ATOM     15  C   UNL     1      34.283 -15.869 -23.286  0.00  0.00    +0.074 C 
ATOM     16  C   UNL     1      34.423 -14.639 -22.642  0.00  0.00    +0.016 C 
ATOM     17  C   UNL     1      33.719 -15.928 -24.560  0.00  0.00    +0.016 C 
BRANCH  15  18
ATOM     18  N   UNL     1      34.702 -17.028 -22.660  0.00  0.00    -0.189 N 
ATOM     19  N   UNL     1      34.945 -17.038 -21.337  0.00  0.00    -0.172 NA
ATOM     20  C   UNL     1      34.904 -18.233 -23.266  0.00  0.00    +0.091 C 
ATOM     21  C   UNL     1      35.308 -19.090 -22.273  0.00  0.00    +0.040 C 
ATOM     22  C   UNL     1      35.316 -18.301 -21.108  0.00  0.00    +0.120 C 
ENDBRANCH  15  18
ENDBRANCH  11  12
ENDBRANCH   1  11
BRANCH   1  23
ATOM     23  C   UNL     1      31.881 -10.556 -23.842  0.00  0.00    +0.123 C 
BRANCH  23  24
ATOM     24  C   UNL     1      31.832 -10.582 -22.341  0.00  0.00    -0.001 C 
ATOM     25  C   UNL     1      32.049  -9.411 -21.614  0.00  0.00    +0.034 C 
ATOM     26  C   UNL     1      31.570 -11.779 -21.672  0.00  0.00    -0.003 C 
ATOM     27  C   UNL     1      32.004  -9.436 -20.221  0.00  0.00    +0.139 C 
ATOM     28  C   UNL     1      31.525 -11.804 -20.279  0.00  0.00    +0.003 C 
ATOM     29  C   UNL     1      31.742 -10.632 -19.553  0.00  0.00    +0.037 C 
BRANCH  27  30
ATOM     30  O   UNL     1      32.218  -8.294 -19.512  0.00  0.00    -0.464 OA
BRANCH  30  31
ATOM     31  C   UNL     1      32.758  -7.180 -20.222  0.00  0.00    +0.314 C 
BRANCH  31  33
ATOM     32  O   UNL     1      32.424  -5.584 -18.421  0.00  0.00    -0.246 OA
ATOM     33  C   UNL     1      32.285  -5.899 -19.594  0.00  0.00    +0.359 C 
BRANCH  33  34
ATOM     34  O   UNL     1      31.672  -5.121 -20.520  0.00  0.00    -0.478 OA
ATOM     35  H   UNL     1      30.784  -4.852 -20.393  0.00  0.00    +0.295 HD
ENDBRANCH  33  34
ENDBRANCH  31  33
ENDBRANCH  30  31
ENDBRANCH  27  30
ENDBRANCH  23  24
ENDBRANCH   1  23
TORSDOF 11
ENDMDL
MODEL 8
REMARK VINA RESULT:      -9.9      2.581      6.900
REMARK  Name = 18376177
REMARK  11 active torsions:
REMARK  status: ('A' for Active; 'I' for Inactive)
REMARK    1  A    between atoms: N_1  and  S_2
REMARK    2  A    between atoms: N_1  and  C_11
REMARK    3  A    between atoms: N_1  and  C_23
REMARK    4  A    between atoms: S_2  and  C_6
REMARK    5  A    between atoms: C_11  and  C_12
REMARK    6  A    between atoms: C_15  and  N_18
REMARK    7  A    between atoms: C_23  and  C_24
REMARK    8  A    between atoms: C_27  and  O_30
REMARK    9  A    between atoms: O_30  and  C_31
REMARK   10  A    between atoms: C_31  and  C_33
REMARK   11  A    between atoms: C_33  and  O_34
REMARK                            x       y       z     vdW  Elec       q    Type
REMARK                         _______ _______ _______ _____ _____    ______ ____
ROOT
ATOM      1  N   UNL     1      35.120 -23.963 -15.111  0.00  0.00    -0.147 NA
ENDROOT
BRANCH   1   2
ATOM      2  S   UNL     1      35.480 -25.371 -14.183  0.00  0.00    +0.065 S 
ATOM      3  O   UNL     1      34.988 -26.546 -14.878  0.00  0.00    -0.153 OA
ATOM      4  O   UNL     1      35.100 -25.148 -12.800  0.00  0.00    -0.153 OA
BRANCH   2   6
ATOM      5  N   UNL     1      39.255 -26.296 -15.273  0.00  0.00    -0.241 NA
ATOM      6  C   UNL     1      37.249 -25.429 -14.238  0.00  0.00    +0.141 C 
ATOM      7  C   UNL     1      38.019 -24.696 -13.343  0.00  0.00    +0.023 C 
ATOM      8  C   UNL     1      37.910 -26.206 -15.176  0.00  0.00    +0.119 C 
ATOM      9  C   UNL     1      39.406 -24.761 -13.411  0.00  0.00    +0.022 C 
ATOM     10  C   UNL     1      39.970 -25.568 -14.386  0.00  0.00    +0.099 C 
ENDBRANCH   2   6
ENDBRANCH   1   2
BRANCH   1  11
ATOM     11  C   UNL     1      36.249 -23.259 -15.770  0.00  0.00    +0.122 C 
BRANCH  11  12
ATOM     12  C   UNL     1      35.817 -22.522 -17.006  0.00  0.00    -0.004 C 
ATOM     13  C   UNL     1      36.672 -21.592 -17.598  0.00  0.00    -0.002 C 
ATOM     14  C   UNL     1      34.561 -22.766 -17.561  0.00  0.00    -0.002 C 
ATOM     15  C   UNL     1      35.014 -21.150 -19.299  0.00  0.00    +0.074 C 
ATOM     16  C   UNL     1      36.270 -20.906 -18.745  0.00  0.00    +0.016 C 
ATOM     17  C   UNL     1      34.160 -22.081 -18.707  0.00  0.00    +0.016 C 
BRANCH  15  18
ATOM     18  N   UNL     1      34.617 -20.472 -20.437  0.00  0.00    -0.189 N 
ATOM     19  N   UNL     1      33.312 -20.332 -20.725  0.00  0.00    -0.172 NA
ATOM     20  C   UNL     1      35.449 -19.893 -21.349  0.00  0.00    +0.091 C 
ATOM     21  C   UNL     1      34.631 -19.336 -22.302  0.00  0.00    +0.040 C 
ATOM     22  C   UNL     1      33.327 -19.637 -21.867  0.00  0.00    +0.120 C 
ENDBRANCH  15  18
ENDBRANCH  11  12
ENDBRANCH   1  11
BRANCH   1  23
ATOM     23  C   UNL     1      34.115 -23.013 -14.568  0.00  0.00    +0.123 C 
BRANCH  23  24
ATOM     24  C   UNL     1      32.713 -23.540 -14.685  0.00  0.00    -0.001 C 
ATOM     25  C   UNL     1      31.888 -23.103 -15.722  0.00  0.00    +0.034 C 
ATOM     26  C   UNL     1      32.236 -24.466 -13.758  0.00  0.00    -0.003 C 
ATOM     27  C   UNL     1      30.586 -23.592 -15.830  0.00  0.00    +0.139 C 
ATOM     28  C   UNL     1      30.934 -24.955 -13.867  0.00  0.00    +0.003 C 
ATOM     29  C   UNL     1      30.109 -24.518 -14.904  0.00  0.00    +0.037 C 
BRANCH  27  30
ATOM     30  O   UNL     1      29.780 -23.163 -16.840  0.00  0.00    -0.464 OA
BRANCH  30  31
ATOM     31  C   UNL     1      28.558 -22.526 -16.470  0.00  0.00    +0.314 C 
BRANCH  31  33
ATOM     32  O   UNL     1      27.389 -24.331 -17.600  0.00  0.00    -0.246 OA
ATOM     33  C   UNL     1      27.407 -23.184 -17.177  0.00  0.00    +0.359 C 
BRANCH  33  34
ATOM     34  O   UNL     1      26.367 -22.320 -17.284  0.00  0.00    -0.478 OA
ATOM     35  H   UNL     1      26.474 -21.424 -17.031  0.00  0.00    +0.295 HD
ENDBRANCH  33  34
ENDBRANCH  31  33
ENDBRANCH  30  31
ENDBRANCH  27  30
ENDBRANCH  23  24
ENDBRANCH   1  23
TORSDOF 11
ENDMDL
MODEL 9
REMARK VINA RESULT:      -9.8     12.039     16.582
REMARK  Name = 18376177
REMARK  11 active torsions:
REMARK  status: ('A' for Active; 'I' for Inactive)
REMARK    1  A    between atoms: N_1  and  S_2
REMARK    2  A    between atoms: N_1  and  C_11
REMARK    3  A    between atoms: N_1  and  C_23
REMARK    4  A    between atoms: S_2  and  C_6
REMARK    5  A    between atoms: C_11  and  C_12
REMARK    6  A    between atoms: C_15  and  N_18
REMARK    7  A    between atoms: C_23  and  C_24
REMARK    8  A    between atoms: C_27  and  O_30
REMARK    9  A    between atoms: O_30  and  C_31
REMARK   10  A    between atoms: C_31  and  C_33
REMARK   11  A    between atoms: C_33  and  O_34
REMARK                            x       y       z     vdW  Elec       q    Type
REMARK                         _______ _______ _______ _____ _____    ______ ____
ROOT
ATOM      1  N   UNL     1      33.316 -10.091 -24.769  0.00  0.00    -0.147 NA
ENDROOT
BRANCH   1   2
ATOM      2  S   UNL     1      34.881  -9.371 -24.837  0.00  0.00    +0.065 S 
ATOM      3  O   UNL     1      35.813 -10.295 -25.457  0.00  0.00    -0.153 OA
ATOM      4  O   UNL     1      35.204  -8.793 -23.545  0.00  0.00    -0.153 OA
BRANCH   2   6
ATOM      5  N   UNL     1      35.088  -7.047 -28.131  0.00  0.00    -0.241 NA
ATOM      6  C   UNL     1      34.641  -8.029 -25.967  0.00  0.00    +0.141 C 
ATOM      7  C   UNL     1      33.856  -6.935 -25.624  0.00  0.00    +0.023 C 
ATOM      8  C   UNL     1      35.230  -8.036 -27.222  0.00  0.00    +0.119 C 
ATOM      9  C   UNL     1      33.685  -5.896 -26.532  0.00  0.00    +0.022 C 
ATOM     10  C   UNL     1      34.317  -5.999 -27.762  0.00  0.00    +0.099 C 
ENDBRANCH   2   6
ENDBRANCH   1   2
BRANCH   1  11
ATOM     11  C   UNL     1      32.846 -10.843 -25.960  0.00  0.00    +0.122 C 
BRANCH  11  12
ATOM     12  C   UNL     1      33.025 -12.327 -25.805  0.00  0.00    -0.004 C 
ATOM     13  C   UNL     1      32.950 -13.159 -26.921  0.00  0.00    -0.002 C 
ATOM     14  C   UNL     1      33.265 -12.872 -24.544  0.00  0.00    -0.002 C 
ATOM     15  C   UNL     1      33.354 -15.082 -25.515  0.00  0.00    +0.074 C 
ATOM     16  C   UNL     1      33.114 -14.537 -26.776  0.00  0.00    +0.016 C 
ATOM     17  C   UNL     1      33.430 -14.249 -24.399  0.00  0.00    +0.016 C 
BRANCH  15  18
ATOM     18  N   UNL     1      33.518 -16.447 -25.373  0.00  0.00    -0.189 N 
ATOM     19  N   UNL     1      33.186 -17.281 -26.373  0.00  0.00    -0.172 NA
ATOM     20  C   UNL     1      34.012 -17.079 -24.270  0.00  0.00    +0.091 C 
ATOM     21  C   UNL     1      34.000 -18.419 -24.568  0.00  0.00    +0.040 C 
ATOM     22  C   UNL     1      33.482 -18.485 -25.875  0.00  0.00    +0.120 C 
ENDBRANCH  15  18
ENDBRANCH  11  12
ENDBRANCH   1  11
BRANCH   1  23
ATOM     23  C   UNL     1      32.221  -9.311 -24.138  0.00  0.00    +0.123 C 
BRANCH  23  24
ATOM     24  C   UNL     1      32.039  -9.658 -22.687  0.00  0.00    -0.001 C 
ATOM     25  C   UNL     1      32.235  -8.685 -21.706  0.00  0.00    +0.034 C 
ATOM     26  C   UNL     1      31.674 -10.954 -22.320  0.00  0.00    -0.003 C 
ATOM     27  C   UNL     1      32.066  -9.008 -20.360  0.00  0.00    +0.139 C 
ATOM     28  C   UNL     1      31.505 -11.276 -20.974  0.00  0.00    +0.003 C 
ATOM     29  C   UNL     1      31.700 -10.303 -19.994  0.00  0.00    +0.037 C 
BRANCH  27  30
ATOM     30  O   UNL     1      32.259  -8.059 -19.404  0.00  0.00    -0.464 OA
BRANCH  30  31
ATOM     31  C   UNL     1      31.383  -6.933 -19.418  0.00  0.00    +0.314 C 
BRANCH  31  33
ATOM     32  O   UNL     1      32.275  -5.337 -21.018  0.00  0.00    -0.246 OA
ATOM     33  C   UNL     1      32.134  -5.709 -19.862  0.00  0.00    +0.359 C 
BRANCH  33  34
ATOM     34  O   UNL     1      32.646  -5.058 -18.788  0.00  0.00    -0.478 OA
ATOM     35  H   UNL     1      32.391  -4.175 -18.609  0.00  0.00    +0.295 HD
ENDBRANCH  33  34
ENDBRANCH  31  33
ENDBRANCH  30  31
ENDBRANCH  27  30
ENDBRANCH  23  24
ENDBRANCH   1  23
TORSDOF 11
ENDMDL
