MODEL 1
REMARK VINA RESULT:     -12.2      0.000      0.000
REMARK  Name = 23658582
REMARK  4 active torsions:
REMARK  status: ('A' for Active; 'I' for Inactive)
REMARK    1  A    between atoms: N_3  and  C_13
REMARK    2  A    between atoms: C_8  and  C_25
REMARK    3  A    between atoms: C_15  and  C_22
REMARK    4  A    between atoms: N_24  and  C_29
REMARK                            x       y       z     vdW  Elec       q    Type
REMARK                         _______ _______ _______ _____ _____    ______ ____
ROOT
ATOM      1 CL   UNL     1      31.768 -24.423 -14.916  0.00  0.00    -0.082 Cl
ATOM      2  O   UNL     1      35.484 -22.428 -17.915  0.00  0.00    -0.352 OA
ATOM      3  N   UNL     1      33.734 -20.646 -20.356  0.00  0.00    -0.295 N 
ATOM      4  N   UNL     1      35.488 -21.626 -19.051  0.00  0.00    -0.062 NA
ATOM      5  C   UNL     1      33.336 -22.014 -18.400  0.00  0.00    +0.072 A 
ATOM      6  C   UNL     1      34.199 -22.657 -17.530  0.00  0.00    +0.183 A 
ATOM      7  C   UNL     1      34.201 -21.392 -19.322  0.00  0.00    +0.174 A 
ATOM      8  C   UNL     1      33.789 -23.416 -16.436  0.00  0.00    +0.101 C 
ATOM      9  C   UNL     1      31.953 -22.117 -18.190  0.00  0.00    +0.007 C 
ATOM     10  C   UNL     1      32.407 -23.510 -16.239  0.00  0.00    +0.065 C 
ATOM     11  C   UNL     1      31.505 -22.874 -17.099  0.00  0.00    +0.012 C 
ATOM     12  H   UNL     1      32.754 -20.662 -20.446  0.00  0.00    +0.154 HD
ENDROOT
BRANCH   3  13
ATOM     13  C   UNL     1      34.389 -19.847 -21.335  0.00  0.00    +0.049 C 
ATOM     14  C   UNL     1      33.838 -19.716 -22.610  0.00  0.00    +0.018 C 
ATOM     15  C   UNL     1      34.480 -18.933 -23.569  0.00  0.00    +0.073 C 
ATOM     16  C   UNL     1      35.580 -19.194 -21.019  0.00  0.00    +0.015 C 
ATOM     17  C   UNL     1      35.671 -18.280 -23.254  0.00  0.00    +0.004 C 
ATOM     18  C   UNL     1      36.221 -18.411 -21.978  0.00  0.00    +0.001 C 
BRANCH  15  22
ATOM     19  F   UNL     1      32.544 -18.580 -24.930  0.00  0.00    -0.166 F 
ATOM     20  F   UNL     1      34.414 -17.754 -25.650  0.00  0.00    -0.166 F 
ATOM     21  F   UNL     1      34.086 -19.903 -25.704  0.00  0.00    -0.166 F 
ATOM     22  C   UNL     1      33.893 -18.793 -24.933  0.00  0.00    +0.419 C 
ENDBRANCH  15  22
ENDBRANCH   3  13
BRANCH   8  25
ATOM     23  O   UNL     1      34.961 -25.278 -15.634  0.00  0.00    -0.270 OA
ATOM     24  N   UNL     1      35.415 -23.200 -14.675  0.00  0.00    -0.278 N 
ATOM     25  C   UNL     1      34.767 -24.057 -15.574  0.00  0.00    +0.253 C 
ATOM     26  H   UNL     1      35.167 -22.249 -14.734  0.00  0.00    +0.155 HD
BRANCH  24  29
ATOM     27  N   UNL     1      38.465 -24.571 -13.085  0.00  0.00    -0.221 NA
ATOM     28  N   UNL     1      37.146 -23.446 -11.411  0.00  0.00    -0.221 NA
ATOM     29  C   UNL     1      36.383 -23.527 -13.692  0.00  0.00    +0.089 C 
ATOM     30  C   UNL     1      37.524 -24.243 -13.994  0.00  0.00    +0.117 C 
ATOM     31  C   UNL     1      36.245 -23.152 -12.372  0.00  0.00    +0.117 C 
ATOM     32  C   UNL     1      38.216 -24.148 -11.831  0.00  0.00    +0.199 C 
ENDBRANCH  24  29
ENDBRANCH   8  25
TORSDOF 4
ENDMDL
MODEL 2
REMARK VINA RESULT:     -12.1      6.244      9.149
REMARK  Name = 23658582
REMARK  4 active torsions:
REMARK  status: ('A' for Active; 'I' for Inactive)
REMARK    1  A    between atoms: N_3  and  C_13
REMARK    2  A    between atoms: C_8  and  C_25
REMARK    3  A    between atoms: C_15  and  C_22
REMARK    4  A    between atoms: N_24  and  C_29
REMARK                            x       y       z     vdW  Elec       q    Type
REMARK                         _______ _______ _______ _____ _____    ______ ____
ROOT
ATOM      1 CL   UNL     1      34.360 -20.164 -25.136  0.00  0.00    -0.082 Cl
ATOM      2  O   UNL     1      34.451 -15.878 -22.235  0.00  0.00    -0.352 OA
ATOM      3  N   UNL     1      33.592 -13.331 -24.465  0.00  0.00    -0.295 N 
ATOM      4  N   UNL     1      34.211 -14.532 -22.486  0.00  0.00    -0.062 NA
ATOM      5  C   UNL     1      33.928 -15.726 -24.408  0.00  0.00    +0.072 A 
ATOM      6  C   UNL     1      34.280 -16.588 -23.384  0.00  0.00    +0.183 A 
ATOM      7  C   UNL     1      33.902 -14.464 -23.784  0.00  0.00    +0.174 A 
ATOM      8  C   UNL     1      34.432 -17.964 -23.533  0.00  0.00    +0.101 C 
ATOM      9  C   UNL     1      33.703 -16.248 -25.691  0.00  0.00    +0.007 C 
ATOM     10  C   UNL     1      34.205 -18.470 -24.817  0.00  0.00    +0.065 C 
ATOM     11  C   UNL     1      33.847 -17.630 -25.877  0.00  0.00    +0.012 C 
ATOM     12  H   UNL     1      33.481 -13.467 -25.434  0.00  0.00    +0.154 HD
ENDROOT
BRANCH   3  13
ATOM     13  C   UNL     1      33.397 -11.984 -24.048  0.00  0.00    +0.049 C 
ATOM     14  C   UNL     1      34.241 -10.979 -24.520  0.00  0.00    +0.018 C 
ATOM     15  C   UNL     1      34.049  -9.659 -24.112  0.00  0.00    +0.073 C 
ATOM     16  C   UNL     1      32.362 -11.669 -23.168  0.00  0.00    +0.015 C 
ATOM     17  C   UNL     1      33.015  -9.344 -23.232  0.00  0.00    +0.004 C 
ATOM     18  C   UNL     1      32.170 -10.350 -22.759  0.00  0.00    +0.001 C 
BRANCH  15  22
ATOM     19  F   UNL     1      35.742  -8.975 -25.658  0.00  0.00    -0.166 F 
ATOM     20  F   UNL     1      34.288  -7.479 -25.068  0.00  0.00    -0.166 F 
ATOM     21  F   UNL     1      35.810  -8.127 -23.657  0.00  0.00    -0.166 F 
ATOM     22  C   UNL     1      34.952  -8.584 -24.615  0.00  0.00    +0.419 C 
ENDBRANCH  15  22
ENDBRANCH   3  13
BRANCH   8  25
ATOM     23  O   UNL     1      35.984 -18.863 -22.027  0.00  0.00    -0.270 OA
ATOM     24  N   UNL     1      33.752 -19.508 -21.817  0.00  0.00    -0.278 N 
ATOM     25  C   UNL     1      34.806 -18.792 -22.400  0.00  0.00    +0.253 C 
ATOM     26  H   UNL     1      32.862 -19.359 -22.211  0.00  0.00    +0.155 HD
BRANCH  24  29
ATOM     27  N   UNL     1      32.673 -21.767 -19.089  0.00  0.00    -0.221 NA
ATOM     28  N   UNL     1      35.080 -21.746 -19.183  0.00  0.00    -0.221 NA
ATOM     29  C   UNL     1      33.803 -20.418 -20.731  0.00  0.00    +0.089 C 
ATOM     30  C   UNL     1      32.662 -20.900 -20.123  0.00  0.00    +0.117 C 
ATOM     31  C   UNL     1      34.995 -20.880 -20.214  0.00  0.00    +0.117 C 
ATOM     32  C   UNL     1      33.897 -22.143 -18.675  0.00  0.00    +0.199 C 
ENDBRANCH  24  29
ENDBRANCH   8  25
TORSDOF 4
ENDMDL
MODEL 3
REMARK VINA RESULT:     -12.0      6.734      9.670
REMARK  Name = 23658582
REMARK  4 active torsions:
REMARK  status: ('A' for Active; 'I' for Inactive)
REMARK    1  A    between atoms: N_3  and  C_13
REMARK    2  A    between atoms: C_8  and  C_25
REMARK    3  A    between atoms: C_15  and  C_22
REMARK    4  A    between atoms: N_24  and  C_29
REMARK                            x       y       z     vdW  Elec       q    Type
REMARK                         _______ _______ _______ _____ _____    ______ ____
ROOT
ATOM      1 CL   UNL     1      33.812 -19.427 -25.569  0.00  0.00    -0.082 Cl
ATOM      2  O   UNL     1      34.482 -15.278 -22.547  0.00  0.00    -0.352 OA
ATOM      3  N   UNL     1      33.552 -12.595 -24.579  0.00  0.00    -0.295 N 
ATOM      4  N   UNL     1      34.302 -13.911 -22.722  0.00  0.00    -0.062 NA
ATOM      5  C   UNL     1      33.741 -15.006 -24.644  0.00  0.00    +0.072 A 
ATOM      6  C   UNL     1      34.146 -15.928 -23.695  0.00  0.00    +0.183 A 
ATOM      7  C   UNL     1      33.862 -13.771 -23.976  0.00  0.00    +0.174 A 
ATOM      8  C   UNL     1      34.193 -17.304 -23.908  0.00  0.00    +0.101 C 
ATOM      9  C   UNL     1      33.348 -15.460 -25.911  0.00  0.00    +0.007 C 
ATOM     10  C   UNL     1      33.799 -17.741 -25.176  0.00  0.00    +0.065 C 
ATOM     11  C   UNL     1      33.384 -16.838 -26.161  0.00  0.00    +0.012 C 
ATOM     12  H   UNL     1      33.330 -12.683 -25.534  0.00  0.00    +0.154 HD
ENDROOT
BRANCH   3  13
ATOM     13  C   UNL     1      33.488 -11.257 -24.096  0.00  0.00    +0.049 C 
ATOM     14  C   UNL     1      32.401 -10.845 -23.327  0.00  0.00    +0.018 C 
ATOM     15  C   UNL     1      32.339  -9.534 -22.853  0.00  0.00    +0.073 C 
ATOM     16  C   UNL     1      34.515 -10.360 -24.390  0.00  0.00    +0.015 C 
ATOM     17  C   UNL     1      33.364  -8.636 -23.148  0.00  0.00    +0.004 C 
ATOM     18  C   UNL     1      34.453  -9.050 -23.917  0.00  0.00    +0.001 C 
BRANCH  15  22
ATOM     19  F   UNL     1      30.383 -10.119 -21.606  0.00  0.00    -0.166 F 
ATOM     20  F   UNL     1      31.530  -8.422 -20.895  0.00  0.00    -0.166 F 
ATOM     21  F   UNL     1      30.345  -8.246 -22.710  0.00  0.00    -0.166 F 
ATOM     22  C   UNL     1      31.175  -9.091 -22.032  0.00  0.00    +0.419 C 
ENDBRANCH  15  22
ENDBRANCH   3  13
BRANCH   8  25
ATOM     23  O   UNL     1      35.838 -18.364 -22.621  0.00  0.00    -0.270 OA
ATOM     24  N   UNL     1      33.604 -18.864 -22.174  0.00  0.00    -0.278 N 
ATOM     25  C   UNL     1      34.633 -18.200 -22.852  0.00  0.00    +0.253 C 
ATOM     26  H   UNL     1      32.688 -18.641 -22.457  0.00  0.00    +0.155 HD
BRANCH  24  29
ATOM     27  N   UNL     1      35.072 -21.113 -19.624  0.00  0.00    -0.221 NA
ATOM     28  N   UNL     1      32.673 -21.327 -19.570  0.00  0.00    -0.221 NA
ATOM     29  C   UNL     1      33.712 -19.819 -21.130  0.00  0.00    +0.089 C 
ATOM     30  C   UNL     1      34.931 -20.210 -20.616  0.00  0.00    +0.117 C 
ATOM     31  C   UNL     1      32.605 -20.417 -20.564  0.00  0.00    +0.117 C 
ATOM     32  C   UNL     1      33.918 -21.625 -19.155  0.00  0.00    +0.199 C 
ENDBRANCH  24  29
ENDBRANCH   8  25
TORSDOF 4
ENDMDL
MODEL 4
REMARK VINA RESULT:     -11.9      7.462     11.908
REMARK  Name = 23658582
REMARK  4 active torsions:
REMARK  status: ('A' for Active; 'I' for Inactive)
REMARK    1  A    between atoms: N_3  and  C_13
REMARK    2  A    between atoms: C_8  and  C_25
REMARK    3  A    between atoms: C_15  and  C_22
REMARK    4  A    between atoms: N_24  and  C_29
REMARK                            x       y       z     vdW  Elec       q    Type
REMARK                         _______ _______ _______ _____ _____    ______ ____
ROOT
ATOM      1 CL   UNL     1      32.508 -12.565 -27.287  0.00  0.00    -0.082 Cl
ATOM      2  O   UNL     1      34.223 -14.317 -22.729  0.00  0.00    -0.352 OA
ATOM      3  N   UNL     1      34.283 -17.785 -23.125  0.00  0.00    -0.295 N 
ATOM      4  N   UNL     1      34.480 -15.580 -22.209  0.00  0.00    -0.062 NA
ATOM      5  C   UNL     1      33.732 -15.777 -24.355  0.00  0.00    +0.072 A 
ATOM      6  C   UNL     1      33.778 -14.437 -24.009  0.00  0.00    +0.183 A 
ATOM      7  C   UNL     1      34.181 -16.433 -23.193  0.00  0.00    +0.174 A 
ATOM      8  C   UNL     1      33.417 -13.395 -24.859  0.00  0.00    +0.101 C 
ATOM      9  C   UNL     1      33.297 -16.134 -25.640  0.00  0.00    +0.007 C 
ATOM     10  C   UNL     1      32.985 -13.766 -26.136  0.00  0.00    +0.065 C 
ATOM     11  C   UNL     1      32.925 -15.109 -26.522  0.00  0.00    +0.012 C 
ATOM     12  H   UNL     1      33.932 -18.251 -23.918  0.00  0.00    +0.154 HD
ENDROOT
BRANCH   3  13
ATOM     13  C   UNL     1      34.799 -18.660 -22.127  0.00  0.00    +0.049 C 
ATOM     14  C   UNL     1      33.935 -19.489 -21.413  0.00  0.00    +0.018 C 
ATOM     15  C   UNL     1      34.440 -20.346 -20.435  0.00  0.00    +0.073 C 
ATOM     16  C   UNL     1      36.168 -18.688 -21.865  0.00  0.00    +0.015 C 
ATOM     17  C   UNL     1      35.809 -20.374 -20.172  0.00  0.00    +0.004 C 
ATOM     18  C   UNL     1      36.674 -19.545 -20.888  0.00  0.00    +0.001 C 
BRANCH  15  22
ATOM     19  F   UNL     1      33.238 -22.410 -20.301  0.00  0.00    -0.166 F 
ATOM     20  F   UNL     1      33.996 -21.592 -18.442  0.00  0.00    -0.166 F 
ATOM     21  F   UNL     1      32.306 -20.649 -19.432  0.00  0.00    -0.166 F 
ATOM     22  C   UNL     1      33.517 -21.232 -19.669  0.00  0.00    +0.419 C 
ENDBRANCH  15  22
ENDBRANCH   3  13
BRANCH   8  25
ATOM     23  O   UNL     1      34.444 -11.293 -24.745  0.00  0.00    -0.270 OA
ATOM     24  N   UNL     1      32.460 -11.609 -23.559  0.00  0.00    -0.278 N 
ATOM     25  C   UNL     1      33.497 -12.015 -24.409  0.00  0.00    +0.253 C 
ATOM     26  H   UNL     1      31.768 -12.284 -23.373  0.00  0.00    +0.155 HD
BRANCH  24  29
ATOM     27  N   UNL     1      32.333  -7.946 -23.034  0.00  0.00    -0.221 NA
ATOM     28  N   UNL     1      31.697  -9.053 -20.991  0.00  0.00    -0.221 NA
ATOM     29  C   UNL     1      32.280 -10.350 -22.932  0.00  0.00    +0.089 C 
ATOM     30  C   UNL     1      32.495  -9.161 -23.598  0.00  0.00    +0.117 C 
ATOM     31  C   UNL     1      31.878 -10.234 -21.618  0.00  0.00    +0.117 C 
ATOM     32  C   UNL     1      31.939  -7.965 -21.747  0.00  0.00    +0.199 C 
ENDBRANCH  24  29
ENDBRANCH   8  25
TORSDOF 4
ENDMDL
MODEL 5
REMARK VINA RESULT:     -11.7      8.808     12.913
REMARK  Name = 23658582
REMARK  4 active torsions:
REMARK  status: ('A' for Active; 'I' for Inactive)
REMARK    1  A    between atoms: N_3  and  C_13
REMARK    2  A    between atoms: C_8  and  C_25
REMARK    3  A    between atoms: C_15  and  C_22
REMARK    4  A    between atoms: N_24  and  C_29
REMARK                            x       y       z     vdW  Elec       q    Type
REMARK                         _______ _______ _______ _____ _____    ______ ____
ROOT
ATOM      1 CL   UNL     1      32.364  -8.926 -26.544  0.00  0.00    -0.082 Cl
ATOM      2  O   UNL     1      33.577 -12.657 -23.169  0.00  0.00    -0.352 OA
ATOM      3  N   UNL     1      33.506 -15.579 -25.079  0.00  0.00    -0.295 N 
ATOM      4  N   UNL     1      33.725 -14.036 -23.259  0.00  0.00    -0.062 NA
ATOM      5  C   UNL     1      33.165 -13.195 -25.304  0.00  0.00    +0.072 A 
ATOM      6  C   UNL     1      33.243 -12.158 -24.391  0.00  0.00    +0.183 A 
ATOM      7  C   UNL     1      33.475 -14.335 -24.537  0.00  0.00    +0.174 A 
ATOM      8  C   UNL     1      33.010 -10.821 -24.700  0.00  0.00    +0.101 C 
ATOM      9  C   UNL     1      32.831 -12.906 -26.636  0.00  0.00    +0.007 C 
ATOM     10  C   UNL     1      32.678 -10.548 -26.030  0.00  0.00    +0.065 C 
ATOM     11  C   UNL     1      32.589 -11.569 -26.982  0.00  0.00    +0.012 C 
ATOM     12  H   UNL     1      33.206 -15.613 -26.016  0.00  0.00    +0.154 HD
ENDROOT
BRANCH   3  13
ATOM     13  C   UNL     1      33.888 -16.846 -24.553  0.00  0.00    +0.049 C 
ATOM     14  C   UNL     1      34.339 -16.946 -23.237  0.00  0.00    +0.018 C 
ATOM     15  C   UNL     1      34.712 -18.188 -22.721  0.00  0.00    +0.073 C 
ATOM     16  C   UNL     1      33.808 -17.986 -25.352  0.00  0.00    +0.015 C 
ATOM     17  C   UNL     1      34.634 -19.328 -23.520  0.00  0.00    +0.004 C 
ATOM     18  C   UNL     1      34.181 -19.226 -24.837  0.00  0.00    +0.001 C 
BRANCH  15  22
ATOM     19  F   UNL     1      36.499 -18.694 -21.213  0.00  0.00    -0.166 F 
ATOM     20  F   UNL     1      35.129 -17.122 -20.621  0.00  0.00    -0.166 F 
ATOM     21  F   UNL     1      34.481 -19.197 -20.581  0.00  0.00    -0.166 F 
ATOM     22  C   UNL     1      35.197 -18.296 -21.315  0.00  0.00    +0.419 C 
ENDBRANCH  15  22
ENDBRANCH   3  13
BRANCH   8  25
ATOM     23  O   UNL     1      34.154  -9.139 -23.538  0.00  0.00    -0.270 OA
ATOM     24  N   UNL     1      31.985  -9.660 -22.857  0.00  0.00    -0.278 N 
ATOM     25  C   UNL     1      33.115  -9.797 -23.673  0.00  0.00    +0.253 C 
ATOM     26  H   UNL     1      31.224 -10.246 -23.075  0.00  0.00    +0.155 HD
BRANCH  24  29
ATOM     27  N   UNL     1      31.911  -8.355 -19.393  0.00  0.00    -0.221 NA
ATOM     28  N   UNL     1      31.127  -6.641 -20.893  0.00  0.00    -0.221 NA
ATOM     29  C   UNL     1      31.796  -8.784 -21.758  0.00  0.00    +0.089 C 
ATOM     30  C   UNL     1      32.078  -9.162 -20.461  0.00  0.00    +0.117 C 
ATOM     31  C   UNL     1      31.317  -7.500 -21.916  0.00  0.00    +0.117 C 
ATOM     32  C   UNL     1      31.438  -7.127 -19.676  0.00  0.00    +0.199 C 
ENDBRANCH  24  29
ENDBRANCH   8  25
TORSDOF 4
ENDMDL
MODEL 6
REMARK VINA RESULT:     -11.7      5.117      9.774
REMARK  Name = 23658582
REMARK  4 active torsions:
REMARK  status: ('A' for Active; 'I' for Inactive)
REMARK    1  A    between atoms: N_3  and  C_13
REMARK    2  A    between atoms: C_8  and  C_25
REMARK    3  A    between atoms: C_15  and  C_22
REMARK    4  A    between atoms: N_24  and  C_29
REMARK                            x       y       z     vdW  Elec       q    Type
REMARK                         _______ _______ _______ _____ _____    ______ ____
ROOT
ATOM      1 CL   UNL     1      36.892 -19.613 -21.415  0.00  0.00    -0.082 Cl
ATOM      2  O   UNL     1      32.388 -21.293 -19.499  0.00  0.00    -0.352 OA
ATOM      3  N   UNL     1      33.308 -23.195 -16.719  0.00  0.00    -0.295 N 
ATOM      4  N   UNL     1      32.030 -22.086 -18.415  0.00  0.00    -0.062 NA
ATOM      5  C   UNL     1      34.300 -21.872 -18.486  0.00  0.00    +0.072 A 
ATOM      6  C   UNL     1      33.742 -21.167 -19.538  0.00  0.00    +0.183 A 
ATOM      7  C   UNL     1      33.182 -22.420 -17.827  0.00  0.00    +0.174 A 
ATOM      8  C   UNL     1      34.477 -20.449 -20.478  0.00  0.00    +0.101 C 
ATOM      9  C   UNL     1      35.694 -21.880 -18.334  0.00  0.00    +0.007 C 
ATOM     10  C   UNL     1      35.866 -20.466 -20.314  0.00  0.00    +0.065 C 
ATOM     11  C   UNL     1      36.465 -21.167 -19.263  0.00  0.00    +0.012 C 
ATOM     12  H   UNL     1      34.241 -23.405 -16.485  0.00  0.00    +0.154 HD
ENDROOT
BRANCH   3  13
ATOM     13  C   UNL     1      32.352 -23.763 -15.832  0.00  0.00    +0.049 C 
ATOM     14  C   UNL     1      30.999 -23.760 -16.170  0.00  0.00    +0.018 C 
ATOM     15  C   UNL     1      30.062 -24.318 -15.300  0.00  0.00    +0.073 C 
ATOM     16  C   UNL     1      32.768 -24.324 -14.624  0.00  0.00    +0.015 C 
ATOM     17  C   UNL     1      30.477 -24.878 -14.092  0.00  0.00    +0.004 C 
ATOM     18  C   UNL     1      31.832 -24.881 -13.755  0.00  0.00    +0.001 C 
BRANCH  15  22
ATOM     19  F   UNL     1      28.015 -23.096 -15.507  0.00  0.00    -0.166 F 
ATOM     20  F   UNL     1      28.372 -24.669 -16.956  0.00  0.00    -0.166 F 
ATOM     21  F   UNL     1      27.882 -25.179 -14.900  0.00  0.00    -0.166 F 
ATOM     22  C   UNL     1      28.614 -24.314 -15.659  0.00  0.00    +0.419 C 
ENDBRANCH  15  22
ENDBRANCH   3  13
BRANCH   8  25
ATOM     23  O   UNL     1      32.570 -19.674 -21.596  0.00  0.00    -0.270 OA
ATOM     24  N   UNL     1      34.656 -19.184 -22.518  0.00  0.00    -0.278 N 
ATOM     25  C   UNL     1      33.806 -19.737 -21.552  0.00  0.00    +0.253 C 
ATOM     26  H   UNL     1      35.620 -19.307 -22.362  0.00  0.00    +0.155 HD
BRANCH  24  29
ATOM     27  N   UNL     1      33.648 -18.464 -26.008  0.00  0.00    -0.221 NA
ATOM     28  N   UNL     1      33.935 -16.383 -24.830  0.00  0.00    -0.221 NA
ATOM     29  C   UNL     1      34.306 -18.471 -23.693  0.00  0.00    +0.089 C 
ATOM     30  C   UNL     1      33.986 -19.111 -24.873  0.00  0.00    +0.117 C 
ATOM     31  C   UNL     1      34.265 -17.093 -23.730  0.00  0.00    +0.117 C 
ATOM     32  C   UNL     1      33.643 -17.121 -25.917  0.00  0.00    +0.199 C 
ENDBRANCH  24  29
ENDBRANCH   8  25
TORSDOF 4
ENDMDL
MODEL 7
REMARK VINA RESULT:     -11.3      3.253      4.468
REMARK  Name = 23658582
REMARK  4 active torsions:
REMARK  status: ('A' for Active; 'I' for Inactive)
REMARK    1  A    between atoms: N_3  and  C_13
REMARK    2  A    between atoms: C_8  and  C_25
REMARK    3  A    between atoms: C_15  and  C_22
REMARK    4  A    between atoms: N_24  and  C_29
REMARK                            x       y       z     vdW  Elec       q    Type
REMARK                         _______ _______ _______ _____ _____    ______ ____
ROOT
ATOM      1 CL   UNL     1      35.752 -23.549 -16.262  0.00  0.00    -0.082 Cl
ATOM      2  O   UNL     1      32.855 -21.322 -19.926  0.00  0.00    -0.352 OA
ATOM      3  N   UNL     1      34.993 -18.980 -21.386  0.00  0.00    -0.295 N 
ATOM      4  N   UNL     1      33.079 -20.323 -20.867  0.00  0.00    -0.062 NA
ATOM      5  C   UNL     1      34.975 -20.657 -19.643  0.00  0.00    +0.072 A 
ATOM      6  C   UNL     1      33.988 -21.519 -19.199  0.00  0.00    +0.183 A 
ATOM      7  C   UNL     1      34.345 -19.941 -20.680  0.00  0.00    +0.174 A 
ATOM      8  C   UNL     1      34.155 -22.436 -18.164  0.00  0.00    +0.101 C 
ATOM      9  C   UNL     1      36.235 -20.688 -19.028  0.00  0.00    +0.007 C 
ATOM     10  C   UNL     1      35.416 -22.456 -17.560  0.00  0.00    +0.065 C 
ATOM     11  C   UNL     1      36.438 -21.599 -17.982  0.00  0.00    +0.012 C 
ATOM     12  H   UNL     1      35.894 -18.775 -21.046  0.00  0.00    +0.154 HD
ENDROOT
BRANCH   3  13
ATOM     13  C   UNL     1      34.620 -18.209 -22.524  0.00  0.00    +0.049 C 
ATOM     14  C   UNL     1      33.910 -18.803 -23.566  0.00  0.00    +0.018 C 
ATOM     15  C   UNL     1      33.543 -18.048 -24.680  0.00  0.00    +0.073 C 
ATOM     16  C   UNL     1      34.963 -16.859 -22.594  0.00  0.00    +0.015 C 
ATOM     17  C   UNL     1      33.887 -16.698 -24.752  0.00  0.00    +0.004 C 
ATOM     18  C   UNL     1      34.598 -16.104 -23.708  0.00  0.00    +0.001 C 
BRANCH  15  22
ATOM     19  F   UNL     1      31.504 -19.021 -25.466  0.00  0.00    -0.166 F 
ATOM     20  F   UNL     1      32.669 -17.888 -26.901  0.00  0.00    -0.166 F 
ATOM     21  F   UNL     1      33.366 -19.837 -26.236  0.00  0.00    -0.166 F 
ATOM     22  C   UNL     1      32.785 -18.683 -25.796  0.00  0.00    +0.419 C 
ENDBRANCH  15  22
ENDBRANCH   3  13
BRANCH   8  25
ATOM     23  O   UNL     1      32.855 -24.376 -18.345  0.00  0.00    -0.270 OA
ATOM     24  N   UNL     1      32.265 -22.809 -16.721  0.00  0.00    -0.278 N 
ATOM     25  C   UNL     1      33.060 -23.303 -17.763  0.00  0.00    +0.253 C 
ATOM     26  H   UNL     1      32.540 -21.942 -16.345  0.00  0.00    +0.155 HD
BRANCH  24  29
ATOM     27  N   UNL     1      30.129 -24.918 -14.552  0.00  0.00    -0.221 NA
ATOM     28  N   UNL     1      28.722 -23.615 -16.009  0.00  0.00    -0.221 NA
ATOM     29  C   UNL     1      31.115 -23.399 -16.138  0.00  0.00    +0.089 C 
ATOM     30  C   UNL     1      31.201 -24.337 -15.129  0.00  0.00    +0.117 C 
ATOM     31  C   UNL     1      29.837 -23.074 -16.542  0.00  0.00    +0.117 C 
ATOM     32  C   UNL     1      28.938 -24.517 -15.033  0.00  0.00    +0.199 C 
ENDBRANCH  24  29
ENDBRANCH   8  25
TORSDOF 4
ENDMDL
MODEL 8
REMARK VINA RESULT:     -11.1      9.833     13.374
REMARK  Name = 23658582
REMARK  4 active torsions:
REMARK  status: ('A' for Active; 'I' for Inactive)
REMARK    1  A    between atoms: N_3  and  C_13
REMARK    2  A    between atoms: C_8  and  C_25
REMARK    3  A    between atoms: C_15  and  C_22
REMARK    4  A    between atoms: N_24  and  C_29
REMARK                            x       y       z     vdW  Elec       q    Type
REMARK                         _______ _______ _______ _____ _____    ______ ____
ROOT
ATOM      1 CL   UNL     1      34.637  -7.826 -26.308  0.00  0.00    -0.082 Cl
ATOM      2  O   UNL     1      33.161 -12.147 -23.870  0.00  0.00    -0.352 OA
ATOM      3  N   UNL     1      33.175 -14.578 -26.376  0.00  0.00    -0.295 N 
ATOM      4  N   UNL     1      32.960 -13.464 -24.266  0.00  0.00    -0.062 NA
ATOM      5  C   UNL     1      33.622 -12.221 -26.061  0.00  0.00    +0.072 A 
ATOM      6  C   UNL     1      33.557 -11.408 -24.943  0.00  0.00    +0.183 A 
ATOM      7  C   UNL     1      33.239 -13.486 -25.572  0.00  0.00    +0.174 A 
ATOM      8  C   UNL     1      33.854 -10.048 -24.943  0.00  0.00    +0.101 C 
ATOM      9  C   UNL     1      34.011 -11.663 -27.287  0.00  0.00    +0.007 C 
ATOM     10  C   UNL     1      34.240  -9.505 -26.173  0.00  0.00    +0.065 C 
ATOM     11  C   UNL     1      34.317 -10.296 -27.324  0.00  0.00    +0.012 C 
ATOM     12  H   UNL     1      33.330 -14.381 -27.328  0.00  0.00    +0.154 HD
ENDROOT
BRANCH   3  13
ATOM     13  C   UNL     1      32.926 -15.953 -26.108  0.00  0.00    +0.049 C 
ATOM     14  C   UNL     1      33.706 -16.633 -25.173  0.00  0.00    +0.018 C 
ATOM     15  C   UNL     1      33.462 -17.982 -24.910  0.00  0.00    +0.073 C 
ATOM     16  C   UNL     1      31.901 -16.620 -26.778  0.00  0.00    +0.015 C 
ATOM     17  C   UNL     1      32.437 -18.649 -25.581  0.00  0.00    +0.004 C 
ATOM     18  C   UNL     1      31.657 -17.967 -26.516  0.00  0.00    +0.001 C 
BRANCH  15  22
ATOM     19  F   UNL     1      35.425 -18.035 -23.544  0.00  0.00    -0.166 F 
ATOM     20  F   UNL     1      33.644 -18.975 -22.741  0.00  0.00    -0.166 F 
ATOM     21  F   UNL     1      34.728 -19.921 -24.372  0.00  0.00    -0.166 F 
ATOM     22  C   UNL     1      34.296 -18.711 -23.912  0.00  0.00    +0.419 C 
ENDBRANCH  15  22
ENDBRANCH   3  13
BRANCH   8  25
ATOM     23  O   UNL     1      34.746  -8.682 -23.263  0.00  0.00    -0.270 OA
ATOM     24  N   UNL     1      32.498  -9.286 -23.106  0.00  0.00    -0.278 N 
ATOM     25  C   UNL     1      33.758  -9.271 -23.719  0.00  0.00    +0.253 C 
ATOM     26  H   UNL     1      31.799  -9.794 -23.576  0.00  0.00    +0.155 HD
BRANCH  24  29
ATOM     27  N   UNL     1      31.363  -6.705 -20.706  0.00  0.00    -0.221 NA
ATOM     28  N   UNL     1      31.677  -8.785 -19.531  0.00  0.00    -0.221 NA
ATOM     29  C   UNL     1      32.102  -8.662 -21.896  0.00  0.00    +0.089 C 
ATOM     30  C   UNL     1      31.745  -7.330 -21.839  0.00  0.00    +0.117 C 
ATOM     31  C   UNL     1      32.049  -9.347 -20.700  0.00  0.00    +0.117 C 
ATOM     32  C   UNL     1      31.352  -7.480 -19.605  0.00  0.00    +0.199 C 
ENDBRANCH  24  29
ENDBRANCH   8  25
TORSDOF 4
ENDMDL
MODEL 9
REMARK VINA RESULT:     -11.1      7.445     10.840
REMARK  Name = 23658582
REMARK  4 active torsions:
REMARK  status: ('A' for Active; 'I' for Inactive)
REMARK    1  A    between atoms: N_3  and  C_13
REMARK    2  A    between atoms: C_8  and  C_25
REMARK    3  A    between atoms: C_15  and  C_22
REMARK    4  A    between atoms: N_24  and  C_29
REMARK                            x       y       z     vdW  Elec       q    Type
REMARK                         _______ _______ _______ _____ _____    ______ ____
ROOT
ATOM      1 CL   UNL     1      31.925 -18.214 -27.200  0.00  0.00    -0.082 Cl
ATOM      2  O   UNL     1      33.933 -14.865 -23.802  0.00  0.00    -0.352 OA
ATOM      3  N   UNL     1      33.484 -11.752 -25.319  0.00  0.00    -0.295 N 
ATOM      4  N   UNL     1      34.081 -13.483 -23.774  0.00  0.00    -0.062 NA
ATOM      5  C   UNL     1      33.058 -14.100 -25.717  0.00  0.00    +0.072 A 
ATOM      6  C   UNL     1      33.322 -15.229 -24.963  0.00  0.00    +0.183 A 
ATOM      7  C   UNL     1      33.555 -13.048 -24.922  0.00  0.00    +0.174 A 
ATOM      8  C   UNL     1      33.002 -16.527 -25.354  0.00  0.00    +0.101 C 
ATOM      9  C   UNL     1      32.428 -14.244 -26.962  0.00  0.00    +0.007 C 
ATOM     10  C   UNL     1      32.375 -16.655 -26.597  0.00  0.00    +0.065 C 
ATOM     11  C   UNL     1      32.092 -15.536 -27.388  0.00  0.00    +0.012 C 
ATOM     12  H   UNL     1      33.143 -11.634 -26.235  0.00  0.00    +0.154 HD
ENDROOT
BRANCH   3  13
ATOM     13  C   UNL     1      33.808 -10.530 -24.665  0.00  0.00    +0.049 C 
ATOM     14  C   UNL     1      32.946 -10.002 -23.705  0.00  0.00    +0.018 C 
ATOM     15  C   UNL     1      33.264  -8.805 -23.064  0.00  0.00    +0.073 C 
ATOM     16  C   UNL     1      34.990  -9.861 -24.984  0.00  0.00    +0.015 C 
ATOM     17  C   UNL     1      34.445  -8.135 -23.383  0.00  0.00    +0.004 C 
ATOM     18  C   UNL     1      35.308  -8.664 -24.344  0.00  0.00    +0.001 C 
BRANCH  15  22
ATOM     19  F   UNL     1      32.967  -7.457 -21.109  0.00  0.00    -0.166 F 
ATOM     20  F   UNL     1      31.358  -7.449 -22.562  0.00  0.00    -0.166 F 
ATOM     21  F   UNL     1      31.693  -9.205 -21.325  0.00  0.00    -0.166 F 
ATOM     22  C   UNL     1      32.341  -8.239 -22.038  0.00  0.00    +0.419 C 
ENDBRANCH  15  22
ENDBRANCH   3  13
BRANCH   8  25
ATOM     23  O   UNL     1      32.756 -18.747 -24.651  0.00  0.00    -0.270 OA
ATOM     24  N   UNL     1      34.254 -17.389 -23.488  0.00  0.00    -0.278 N 
ATOM     25  C   UNL     1      33.318 -17.656 -24.495  0.00  0.00    +0.253 C 
ATOM     26  H   UNL     1      34.625 -16.478 -23.477  0.00  0.00    +0.155 HD
BRANCH  24  29
ATOM     27  N   UNL     1      34.336 -20.013 -20.876  0.00  0.00    -0.221 NA
ATOM     28  N   UNL     1      36.547 -19.090 -21.130  0.00  0.00    -0.221 NA
ATOM     29  C   UNL     1      34.735 -18.265 -22.482  0.00  0.00    +0.089 C 
ATOM     30  C   UNL     1      33.912 -19.166 -21.837  0.00  0.00    +0.117 C 
ATOM     31  C   UNL     1      36.056 -18.271 -22.083  0.00  0.00    +0.117 C 
ATOM     32  C   UNL     1      35.645 -19.923 -20.576  0.00  0.00    +0.199 C 
ENDBRANCH  24  29
ENDBRANCH   8  25
TORSDOF 4
ENDMDL
