MODEL 1
REMARK VINA RESULT:     -12.5      0.000      0.000
REMARK  Name = 5326868
REMARK  6 active torsions:
REMARK  status: ('A' for Active; 'I' for Inactive)
REMARK    1  A    between atoms: C_2  and  C_28
REMARK    2  A    between atoms: C_7  and  N_12
REMARK    3  A    between atoms: C_13  and  C_18
REMARK    4  A    between atoms: C_16  and  N_23
REMARK    5  A    between atoms: C_28  and  C_29
REMARK    6  A    between atoms: C_29  and  C_31
REMARK                            x       y       z     vdW  Elec       q    Type
REMARK                         _______ _______ _______ _____ _____    ______ ____
ROOT
ATOM      1  N   UNL     1      36.450 -21.309 -18.665  0.00  0.00    -0.312 N 
ATOM      2  C   UNL     1      34.280 -21.659 -18.975  0.00  0.00    -0.006 C 
ATOM      3  C   UNL     1      34.726 -20.731 -19.957  0.00  0.00    +0.012 C 
ATOM      4  C   UNL     1      36.090 -20.528 -19.740  0.00  0.00    +0.048 C 
ATOM      5  C   UNL     1      35.363 -21.996 -18.196  0.00  0.00    +0.058 C 
ATOM      6  C   UNL     1      34.096 -20.040 -21.012  0.00  0.00    +0.016 C 
ATOM      7  C   UNL     1      34.854 -19.176 -21.810  0.00  0.00    +0.051 C 
ATOM      8  C   UNL     1      36.860 -19.666 -20.530  0.00  0.00    +0.016 C 
ATOM      9  C   UNL     1      36.215 -18.993 -21.572  0.00  0.00    +0.016 C 
ATOM     10  H   UNL     1      37.358 -21.365 -18.289  0.00  0.00    +0.152 HD
ENDROOT
BRANCH   7  12
ATOM     11  O   UNL     1      34.622 -19.876 -24.716  0.00  0.00    -0.270 OA
ATOM     12  N   UNL     1      34.238 -18.488 -22.857  0.00  0.00    -0.280 N 
ATOM     13  C   UNL     1      34.158 -18.862 -24.205  0.00  0.00    +0.250 C 
ATOM     14  H   UNL     1      33.807 -17.636 -22.620  0.00  0.00    +0.155 HD
BRANCH  13  18
ATOM     15  F   UNL     1      31.186 -17.937 -27.905  0.00  0.00    -0.204 F 
ATOM     16  C   UNL     1      32.973 -15.645 -25.716  0.00  0.00    +0.050 C 
ATOM     17  C   UNL     1      33.635 -16.548 -24.883  0.00  0.00    +0.019 C 
ATOM     18  C   UNL     1      33.455 -17.899 -25.092  0.00  0.00    +0.057 C 
ATOM     19  C   UNL     1      32.146 -16.114 -26.736  0.00  0.00    +0.044 C 
ATOM     20  C   UNL     1      32.643 -18.389 -26.094  0.00  0.00    +0.034 C 
ATOM     21  C   UNL     1      31.981 -17.487 -26.926  0.00  0.00    +0.142 C 
BRANCH  16  23
ATOM     22  O   UNL     1      33.189 -11.486 -25.134  0.00  0.00    -0.350 OA
ATOM     23  N   UNL     1      33.137 -14.268 -25.526  0.00  0.00    -0.303 N 
ATOM     24  C   UNL     1      33.133 -13.712 -24.169  0.00  0.00    +0.123 C 
ATOM     25  C   UNL     1      32.652 -13.361 -26.575  0.00  0.00    +0.123 C 
ATOM     26  C   UNL     1      33.804 -12.342 -24.172  0.00  0.00    +0.164 C 
ATOM     27  C   UNL     1      33.351 -12.012 -26.452  0.00  0.00    +0.164 C 
ENDBRANCH  16  23
ENDBRANCH  13  18
ENDBRANCH   7  12
BRANCH   2  28
ATOM     28  C   UNL     1      32.906 -22.175 -18.812  0.00  0.00    +0.032 C 
BRANCH  28  29
ATOM     29  C   UNL     1      32.806 -23.492 -18.011  0.00  0.00    +0.031 C 
BRANCH  29  31
ATOM     30  N   UNL     1      30.925 -23.009 -14.190  0.00  0.00    -0.242 NA
ATOM     31  C   UNL     1      32.144 -23.321 -16.666  0.00  0.00    -0.019 C 
ATOM     32  C   UNL     1      30.794 -23.039 -16.604  0.00  0.00    +0.016 C 
ATOM     33  C   UNL     1      32.898 -23.451 -15.515  0.00  0.00    +0.016 C 
ATOM     34  C   UNL     1      30.232 -22.893 -15.346  0.00  0.00    +0.099 C 
ATOM     35  C   UNL     1      32.243 -23.286 -14.305  0.00  0.00    +0.099 C 
ENDBRANCH  29  31
ENDBRANCH  28  29
ENDBRANCH   2  28
TORSDOF 6
ENDMDL
MODEL 2
REMARK VINA RESULT:     -12.2      1.856      2.820
REMARK  Name = 5326868
REMARK  6 active torsions:
REMARK  status: ('A' for Active; 'I' for Inactive)
REMARK    1  A    between atoms: C_2  and  C_28
REMARK    2  A    between atoms: C_7  and  N_12
REMARK    3  A    between atoms: C_13  and  C_18
REMARK    4  A    between atoms: C_16  and  N_23
REMARK    5  A    between atoms: C_28  and  C_29
REMARK    6  A    between atoms: C_29  and  C_31
REMARK                            x       y       z     vdW  Elec       q    Type
REMARK                         _______ _______ _______ _____ _____    ______ ____
ROOT
ATOM      1  N   UNL     1      35.871 -22.780 -16.379  0.00  0.00    -0.312 N 
ATOM      2  C   UNL     1      33.779 -22.925 -17.107  0.00  0.00    -0.006 C 
ATOM      3  C   UNL     1      34.528 -22.169 -18.052  0.00  0.00    +0.012 C 
ATOM      4  C   UNL     1      35.836 -22.092 -17.571  0.00  0.00    +0.048 C 
ATOM      5  C   UNL     1      34.633 -23.287 -16.090  0.00  0.00    +0.058 C 
ATOM      6  C   UNL     1      34.215 -21.538 -19.273  0.00  0.00    +0.016 C 
ATOM      7  C   UNL     1      35.222 -20.857 -19.966  0.00  0.00    +0.051 C 
ATOM      8  C   UNL     1      36.853 -21.414 -18.253  0.00  0.00    +0.016 C 
ATOM      9  C   UNL     1      36.521 -20.798 -19.463  0.00  0.00    +0.016 C 
ATOM     10  H   UNL     1      36.671 -22.891 -15.816  0.00  0.00    +0.152 HD
ENDROOT
BRANCH   7  12
ATOM     11  O   UNL     1      35.265 -17.952 -20.704  0.00  0.00    -0.270 OA
ATOM     12  N   UNL     1      34.921 -20.230 -21.177  0.00  0.00    -0.280 N 
ATOM     13  C   UNL     1      34.957 -18.860 -21.469  0.00  0.00    +0.250 C 
ATOM     14  H   UNL     1      34.650 -20.821 -21.915  0.00  0.00    +0.155 HD
BRANCH  13  18
ATOM     15  F   UNL     1      34.071 -20.077 -26.064  0.00  0.00    -0.204 F 
ATOM     16  C   UNL     1      33.850 -16.838 -24.422  0.00  0.00    +0.050 C 
ATOM     17  C   UNL     1      34.232 -17.180 -23.125  0.00  0.00    +0.019 C 
ATOM     18  C   UNL     1      34.552 -18.493 -22.852  0.00  0.00    +0.057 C 
ATOM     19  C   UNL     1      33.796 -17.816 -25.415  0.00  0.00    +0.044 C 
ATOM     20  C   UNL     1      34.505 -19.480 -23.814  0.00  0.00    +0.034 C 
ATOM     21  C   UNL     1      34.124 -19.138 -25.111  0.00  0.00    +0.142 C 
BRANCH  16  23
ATOM     22  O   UNL     1      33.129 -12.799 -25.345  0.00  0.00    -0.350 OA
ATOM     23  N   UNL     1      33.520 -15.513 -24.728  0.00  0.00    -0.303 N 
ATOM     24  C   UNL     1      33.505 -15.066 -26.125  0.00  0.00    +0.123 C 
ATOM     25  C   UNL     1      33.845 -14.473 -23.742  0.00  0.00    +0.123 C 
ATOM     26  C   UNL     1      32.666 -13.799 -26.251  0.00  0.00    +0.164 C 
ATOM     27  C   UNL     1      32.985 -13.239 -23.994  0.00  0.00    +0.164 C 
ENDBRANCH  16  23
ENDBRANCH  13  18
ENDBRANCH   7  12
BRANCH   2  28
ATOM     28  C   UNL     1      32.345 -23.267 -17.193  0.00  0.00    +0.032 C 
BRANCH  28  29
ATOM     29  C   UNL     1      31.663 -23.517 -15.830  0.00  0.00    +0.031 C 
BRANCH  29  31
ATOM     30  N   UNL     1      27.392 -23.760 -16.097  0.00  0.00    -0.242 NA
ATOM     31  C   UNL     1      30.160 -23.602 -15.923  0.00  0.00    -0.019 C 
ATOM     32  C   UNL     1      29.465 -22.623 -16.605  0.00  0.00    +0.016 C 
ATOM     33  C   UNL     1      29.500 -24.659 -15.326  0.00  0.00    +0.016 C 
ATOM     34  C   UNL     1      28.086 -22.747 -16.663  0.00  0.00    +0.099 C 
ATOM     35  C   UNL     1      28.119 -24.693 -15.441  0.00  0.00    +0.099 C 
ENDBRANCH  29  31
ENDBRANCH  28  29
ENDBRANCH   2  28
TORSDOF 6
ENDMDL
MODEL 3
REMARK VINA RESULT:     -12.0      4.804      8.155
REMARK  Name = 5326868
REMARK  6 active torsions:
REMARK  status: ('A' for Active; 'I' for Inactive)
REMARK    1  A    between atoms: C_2  and  C_28
REMARK    2  A    between atoms: C_7  and  N_12
REMARK    3  A    between atoms: C_13  and  C_18
REMARK    4  A    between atoms: C_16  and  N_23
REMARK    5  A    between atoms: C_28  and  C_29
REMARK    6  A    between atoms: C_29  and  C_31
REMARK                            x       y       z     vdW  Elec       q    Type
REMARK                         _______ _______ _______ _____ _____    ______ ____
ROOT
ATOM      1  N   UNL     1      34.820 -18.377 -20.962  0.00  0.00    -0.312 N 
ATOM      2  C   UNL     1      34.741 -18.175 -23.171  0.00  0.00    -0.006 C 
ATOM      3  C   UNL     1      34.663 -16.873 -22.602  0.00  0.00    +0.012 C 
ATOM      4  C   UNL     1      34.713 -17.028 -21.216  0.00  0.00    +0.048 C 
ATOM      5  C   UNL     1      34.837 -19.078 -22.138  0.00  0.00    +0.058 C 
ATOM      6  C   UNL     1      34.551 -15.573 -23.136  0.00  0.00    +0.016 C 
ATOM      7  C   UNL     1      34.496 -14.480 -22.265  0.00  0.00    +0.051 C 
ATOM      8  C   UNL     1      34.659 -15.944 -20.332  0.00  0.00    +0.016 C 
ATOM      9  C   UNL     1      34.550 -14.664 -20.884  0.00  0.00    +0.016 C 
ATOM     10  H   UNL     1      34.875 -18.778 -20.065  0.00  0.00    +0.152 HD
ENDROOT
BRANCH   7  12
ATOM     11  O   UNL     1      32.575 -13.362 -24.278  0.00  0.00    -0.270 OA
ATOM     12  N   UNL     1      34.385 -13.189 -22.786  0.00  0.00    -0.280 N 
ATOM     13  C   UNL     1      33.464 -12.718 -23.730  0.00  0.00    +0.250 C 
ATOM     14  H   UNL     1      35.033 -12.530 -22.449  0.00  0.00    +0.155 HD
BRANCH  13  18
ATOM     15  F   UNL     1      35.397  -9.285 -26.534  0.00  0.00    -0.204 F 
ATOM     16  C   UNL     1      33.060  -8.993 -23.761  0.00  0.00    +0.050 C 
ATOM     17  C   UNL     1      32.917 -10.334 -23.402  0.00  0.00    +0.019 C 
ATOM     18  C   UNL     1      33.617 -11.288 -24.110  0.00  0.00    +0.057 C 
ATOM     19  C   UNL     1      33.898  -8.639 -24.818  0.00  0.00    +0.044 C 
ATOM     20  C   UNL     1      34.451 -10.965 -25.160  0.00  0.00    +0.034 C 
ATOM     21  C   UNL     1      34.594  -9.625 -25.518  0.00  0.00    +0.142 C 
BRANCH  16  23
ATOM     22  O   UNL     1      30.865  -6.218 -21.489  0.00  0.00    -0.350 OA
ATOM     23  N   UNL     1      32.362  -8.003 -23.060  0.00  0.00    -0.303 N 
ATOM     24  C   UNL     1      32.947  -7.411 -21.852  0.00  0.00    +0.123 C 
ATOM     25  C   UNL     1      30.893  -8.037 -23.093  0.00  0.00    +0.123 C 
ATOM     26  C   UNL     1      32.282  -6.069 -21.563  0.00  0.00    +0.164 C 
ATOM     27  C   UNL     1      30.339  -6.661 -22.740  0.00  0.00    +0.164 C 
ENDBRANCH  16  23
ENDBRANCH  13  18
ENDBRANCH   7  12
BRANCH   2  28
ATOM     28  C   UNL     1      34.724 -18.508 -24.610  0.00  0.00    +0.032 C 
BRANCH  28  29
ATOM     29  C   UNL     1      33.316 -18.763 -25.192  0.00  0.00    +0.031 C 
BRANCH  29  31
ATOM     30  N   UNL     1      31.866 -15.523 -27.594  0.00  0.00    -0.242 NA
ATOM     31  C   UNL     1      32.806 -17.623 -26.038  0.00  0.00    -0.019 C 
ATOM     32  C   UNL     1      31.548 -17.705 -26.601  0.00  0.00    +0.016 C 
ATOM     33  C   UNL     1      33.605 -16.513 -26.236  0.00  0.00    +0.016 C 
ATOM     34  C   UNL     1      31.125 -16.632 -27.369  0.00  0.00    +0.099 C 
ATOM     35  C   UNL     1      33.090 -15.493 -27.021  0.00  0.00    +0.099 C 
ENDBRANCH  29  31
ENDBRANCH  28  29
ENDBRANCH   2  28
TORSDOF 6
ENDMDL
MODEL 4
REMARK VINA RESULT:     -11.9      3.613      7.124
REMARK  Name = 5326868
REMARK  6 active torsions:
REMARK  status: ('A' for Active; 'I' for Inactive)
REMARK    1  A    between atoms: C_2  and  C_28
REMARK    2  A    between atoms: C_7  and  N_12
REMARK    3  A    between atoms: C_13  and  C_18
REMARK    4  A    between atoms: C_16  and  N_23
REMARK    5  A    between atoms: C_28  and  C_29
REMARK    6  A    between atoms: C_29  and  C_31
REMARK                            x       y       z     vdW  Elec       q    Type
REMARK                         _______ _______ _______ _____ _____    ______ ____
ROOT
ATOM      1  N   UNL     1      33.823 -18.401 -25.759  0.00  0.00    -0.312 N 
ATOM      2  C   UNL     1      34.318 -17.644 -23.731  0.00  0.00    -0.006 C 
ATOM      3  C   UNL     1      33.813 -16.558 -24.501  0.00  0.00    +0.012 C 
ATOM      4  C   UNL     1      33.511 -17.060 -25.768  0.00  0.00    +0.048 C 
ATOM      5  C   UNL     1      34.311 -18.763 -24.532  0.00  0.00    +0.058 C 
ATOM      6  C   UNL     1      33.586 -15.192 -24.240  0.00  0.00    +0.016 C 
ATOM      7  C   UNL     1      33.064 -14.381 -25.254  0.00  0.00    +0.051 C 
ATOM      8  C   UNL     1      32.989 -16.261 -26.792  0.00  0.00    +0.016 C 
ATOM      9  C   UNL     1      32.771 -14.909 -26.510  0.00  0.00    +0.016 C 
ATOM     10  H   UNL     1      33.711 -19.010 -26.523  0.00  0.00    +0.152 HD
ENDROOT
BRANCH   7  12
ATOM     11  O   UNL     1      34.059 -11.951 -26.700  0.00  0.00    -0.270 OA
ATOM     12  N   UNL     1      32.836 -13.026 -25.004  0.00  0.00    -0.280 N 
ATOM     13  C   UNL     1      33.329 -11.925 -25.715  0.00  0.00    +0.250 C 
ATOM     14  H   UNL     1      32.260 -12.820 -24.233  0.00  0.00    +0.155 HD
BRANCH  13  18
ATOM     15  F   UNL     1      32.357  -7.236 -26.389  0.00  0.00    -0.204 F 
ATOM     16  C   UNL     1      32.289  -9.220 -23.340  0.00  0.00    +0.050 C 
ATOM     17  C   UNL     1      32.665 -10.468 -23.836  0.00  0.00    +0.019 C 
ATOM     18  C   UNL     1      32.930 -10.595 -25.184  0.00  0.00    +0.057 C 
ATOM     19  C   UNL     1      32.185  -8.128 -24.202  0.00  0.00    +0.044 C 
ATOM     20  C   UNL     1      32.833  -9.532 -26.058  0.00  0.00    +0.034 C 
ATOM     21  C   UNL     1      32.458  -8.284 -25.561  0.00  0.00    +0.142 C 
BRANCH  16  23
ATOM     22  O   UNL     1      31.686  -8.907 -19.190  0.00  0.00    -0.350 OA
ATOM     23  N   UNL     1      32.015  -9.063 -21.977  0.00  0.00    -0.303 N 
ATOM     24  C   UNL     1      32.703  -8.020 -21.207  0.00  0.00    +0.123 C 
ATOM     25  C   UNL     1      31.622 -10.251 -21.208  0.00  0.00    +0.123 C 
ATOM     26  C   UNL     1      31.916  -7.713 -19.938  0.00  0.00    +0.164 C 
ATOM     27  C   UNL     1      30.890  -9.825 -19.940  0.00  0.00    +0.164 C 
ENDBRANCH  16  23
ENDBRANCH  13  18
ENDBRANCH   7  12
BRANCH   2  28
ATOM     28  C   UNL     1      34.769 -17.590 -22.326  0.00  0.00    +0.032 C 
BRANCH  28  29
ATOM     29  C   UNL     1      35.616 -18.802 -21.879  0.00  0.00    +0.031 C 
BRANCH  29  31
ATOM     30  N   UNL     1      33.449 -21.565 -19.421  0.00  0.00    -0.242 NA
ATOM     31  C   UNL     1      34.853 -19.775 -21.014  0.00  0.00    -0.019 C 
ATOM     32  C   UNL     1      35.546 -20.694 -20.251  0.00  0.00    +0.016 C 
ATOM     33  C   UNL     1      33.473 -19.732 -20.998  0.00  0.00    +0.016 C 
ATOM     34  C   UNL     1      34.800 -21.565 -19.474  0.00  0.00    +0.099 C 
ATOM     35  C   UNL     1      32.818 -20.646 -20.187  0.00  0.00    +0.099 C 
ENDBRANCH  29  31
ENDBRANCH  28  29
ENDBRANCH   2  28
TORSDOF 6
ENDMDL
MODEL 5
REMARK VINA RESULT:     -11.8      4.019     10.623
REMARK  Name = 5326868
REMARK  6 active torsions:
REMARK  status: ('A' for Active; 'I' for Inactive)
REMARK    1  A    between atoms: C_2  and  C_28
REMARK    2  A    between atoms: C_7  and  N_12
REMARK    3  A    between atoms: C_13  and  C_18
REMARK    4  A    between atoms: C_16  and  N_23
REMARK    5  A    between atoms: C_28  and  C_29
REMARK    6  A    between atoms: C_29  and  C_31
REMARK                            x       y       z     vdW  Elec       q    Type
REMARK                         _______ _______ _______ _____ _____    ______ ____
ROOT
ATOM      1  N   UNL     1      34.752 -16.496 -24.311  0.00  0.00    -0.312 N 
ATOM      2  C   UNL     1      34.596 -15.609 -22.282  0.00  0.00    -0.006 C 
ATOM      3  C   UNL     1      34.609 -17.026 -22.148  0.00  0.00    +0.012 C 
ATOM      4  C   UNL     1      34.707 -17.558 -23.435  0.00  0.00    +0.048 C 
ATOM      5  C   UNL     1      34.685 -15.314 -23.623  0.00  0.00    +0.058 C 
ATOM      6  C   UNL     1      34.544 -17.909 -21.052  0.00  0.00    +0.016 C 
ATOM      7  C   UNL     1      34.583 -19.288 -21.284  0.00  0.00    +0.051 C 
ATOM      8  C   UNL     1      34.746 -18.935 -23.683  0.00  0.00    +0.016 C 
ATOM      9  C   UNL     1      34.682 -19.792 -22.580  0.00  0.00    +0.016 C 
ATOM     10  H   UNL     1      34.822 -16.575 -25.289  0.00  0.00    +0.152 HD
ENDROOT
BRANCH   7  12
ATOM     11  O   UNL     1      32.414 -21.187 -20.458  0.00  0.00    -0.270 OA
ATOM     12  N   UNL     1      34.519 -20.171 -20.203  0.00  0.00    -0.280 N 
ATOM     13  C   UNL     1      33.475 -21.040 -19.862  0.00  0.00    +0.250 C 
ATOM     14  H   UNL     1      35.303 -20.182 -19.608  0.00  0.00    +0.155 HD
BRANCH  13  18
ATOM     15  F   UNL     1      36.430 -23.003 -16.575  0.00  0.00    -0.204 F 
ATOM     16  C   UNL     1      32.800 -23.100 -16.805  0.00  0.00    +0.050 C 
ATOM     17  C   UNL     1      32.596 -22.350 -17.964  0.00  0.00    +0.019 C 
ATOM     18  C   UNL     1      33.692 -21.840 -18.627  0.00  0.00    +0.057 C 
ATOM     19  C   UNL     1      34.095 -23.320 -16.336  0.00  0.00    +0.044 C 
ATOM     20  C   UNL     1      34.982 -22.043 -18.184  0.00  0.00    +0.034 C 
ATOM     21  C   UNL     1      35.187 -22.792 -17.026  0.00  0.00    +0.142 C 
BRANCH  16  23
ATOM     22  O   UNL     1      29.526 -24.472 -14.551  0.00  0.00    -0.350 OA
ATOM     23  N   UNL     1      31.706 -23.629 -16.112  0.00  0.00    -0.303 N 
ATOM     24  C   UNL     1      30.350 -23.162 -16.421  0.00  0.00    +0.123 C 
ATOM     25  C   UNL     1      31.913 -24.078 -14.729  0.00  0.00    +0.123 C 
ATOM     26  C   UNL     1      29.330 -24.187 -15.935  0.00  0.00    +0.164 C 
ATOM     27  C   UNL     1      30.811 -25.056 -14.335  0.00  0.00    +0.164 C 
ENDBRANCH  16  23
ENDBRANCH  13  18
ENDBRANCH   7  12
BRANCH   2  28
ATOM     28  C   UNL     1      34.503 -14.624 -21.186  0.00  0.00    +0.032 C 
BRANCH  28  29
ATOM     29  C   UNL     1      33.082 -14.439 -20.608  0.00  0.00    +0.031 C 
BRANCH  29  31
ATOM     30  N   UNL     1      31.201 -10.803 -21.875  0.00  0.00    -0.242 NA
ATOM     31  C   UNL     1      32.421 -13.159 -21.054  0.00  0.00    -0.019 C 
ATOM     32  C   UNL     1      32.599 -12.717 -22.350  0.00  0.00    +0.016 C 
ATOM     33  C   UNL     1      31.645 -12.447 -20.159  0.00  0.00    +0.016 C 
ATOM     34  C   UNL     1      31.970 -11.537 -22.711  0.00  0.00    +0.099 C 
ATOM     35  C   UNL     1      31.058 -11.278 -20.617  0.00  0.00    +0.099 C 
ENDBRANCH  29  31
ENDBRANCH  28  29
ENDBRANCH   2  28
TORSDOF 6
ENDMDL
MODEL 6
REMARK VINA RESULT:     -11.6      4.809     10.426
REMARK  Name = 5326868
REMARK  6 active torsions:
REMARK  status: ('A' for Active; 'I' for Inactive)
REMARK    1  A    between atoms: C_2  and  C_28
REMARK    2  A    between atoms: C_7  and  N_12
REMARK    3  A    between atoms: C_13  and  C_18
REMARK    4  A    between atoms: C_16  and  N_23
REMARK    5  A    between atoms: C_28  and  C_29
REMARK    6  A    between atoms: C_29  and  C_31
REMARK                            x       y       z     vdW  Elec       q    Type
REMARK                         _______ _______ _______ _____ _____    ______ ____
ROOT
ATOM      1  N   UNL     1      33.989  -7.123 -25.413  0.00  0.00    -0.312 N 
ATOM      2  C   UNL     1      32.236  -7.934 -24.318  0.00  0.00    -0.006 C 
ATOM      3  C   UNL     1      32.920  -9.021 -24.932  0.00  0.00    +0.012 C 
ATOM      4  C   UNL     1      34.015  -8.484 -25.613  0.00  0.00    +0.048 C 
ATOM      5  C   UNL     1      32.918  -6.780 -24.632  0.00  0.00    +0.058 C 
ATOM      6  C   UNL     1      32.709 -10.414 -24.976  0.00  0.00    +0.016 C 
ATOM      7  C   UNL     1      33.601 -11.216 -25.695  0.00  0.00    +0.051 C 
ATOM      8  C   UNL     1      34.915  -9.275 -26.337  0.00  0.00    +0.016 C 
ATOM      9  C   UNL     1      34.687 -10.654 -26.364  0.00  0.00    +0.016 C 
ATOM     10  H   UNL     1      34.646  -6.488 -25.779  0.00  0.00    +0.152 HD
ENDROOT
BRANCH   7  12
ATOM     11  O   UNL     1      32.688 -12.963 -27.954  0.00  0.00    -0.270 OA
ATOM     12  N   UNL     1      33.400 -12.597 -25.743  0.00  0.00    -0.280 N 
ATOM     13  C   UNL     1      32.969 -13.367 -26.831  0.00  0.00    +0.250 C 
ATOM     14  H   UNL     1      33.583 -13.090 -24.911  0.00  0.00    +0.155 HD
BRANCH  13  18
ATOM     15  F   UNL     1      31.219 -17.716 -28.016  0.00  0.00    -0.204 F 
ATOM     16  C   UNL     1      33.303 -16.726 -25.203  0.00  0.00    +0.050 C 
ATOM     17  C   UNL     1      33.441 -15.360 -25.453  0.00  0.00    +0.019 C 
ATOM     18  C   UNL     1      32.823 -14.822 -26.563  0.00  0.00    +0.057 C 
ATOM     19  C   UNL     1      32.553 -17.521 -26.069  0.00  0.00    +0.044 C 
ATOM     20  C   UNL     1      32.076 -15.587 -27.434  0.00  0.00    +0.034 C 
ATOM     21  C   UNL     1      31.939 -16.952 -27.185  0.00  0.00    +0.142 C 
BRANCH  16  23
ATOM     22  O   UNL     1      35.382 -18.486 -22.000  0.00  0.00    -0.350 OA
ATOM     23  N   UNL     1      33.920 -17.297 -24.085  0.00  0.00    -0.303 N 
ATOM     24  C   UNL     1      34.789 -16.480 -23.231  0.00  0.00    +0.123 C 
ATOM     25  C   UNL     1      34.257 -18.727 -24.135  0.00  0.00    +0.123 C 
ATOM     26  C   UNL     1      34.931 -17.139 -21.863  0.00  0.00    +0.164 C 
ATOM     27  C   UNL     1      34.426 -19.265 -22.719  0.00  0.00    +0.164 C 
ENDBRANCH  16  23
ENDBRANCH  13  18
ENDBRANCH   7  12
BRANCH   2  28
ATOM     28  C   UNL     1      31.016  -8.017 -23.492  0.00  0.00    +0.032 C 
BRANCH  28  29
ATOM     29  C   UNL     1      31.245  -7.773 -21.984  0.00  0.00    +0.031 C 
BRANCH  29  31
ATOM     30  N   UNL     1      31.481 -11.394 -19.702  0.00  0.00    -0.242 NA
ATOM     31  C   UNL     1      31.328  -9.047 -21.180  0.00  0.00    -0.019 C 
ATOM     32  C   UNL     1      30.881 -10.230 -21.735  0.00  0.00    +0.016 C 
ATOM     33  C   UNL     1      31.849  -9.012 -19.902  0.00  0.00    +0.016 C 
ATOM     34  C   UNL     1      30.979 -11.373 -20.958  0.00  0.00    +0.099 C 
ATOM     35  C   UNL     1      31.904 -10.210 -19.205  0.00  0.00    +0.099 C 
ENDBRANCH  29  31
ENDBRANCH  28  29
ENDBRANCH   2  28
TORSDOF 6
ENDMDL
MODEL 7
REMARK VINA RESULT:     -11.6      3.663      5.972
REMARK  Name = 5326868
REMARK  6 active torsions:
REMARK  status: ('A' for Active; 'I' for Inactive)
REMARK    1  A    between atoms: C_2  and  C_28
REMARK    2  A    between atoms: C_7  and  N_12
REMARK    3  A    between atoms: C_13  and  C_18
REMARK    4  A    between atoms: C_16  and  N_23
REMARK    5  A    between atoms: C_28  and  C_29
REMARK    6  A    between atoms: C_29  and  C_31
REMARK                            x       y       z     vdW  Elec       q    Type
REMARK                         _______ _______ _______ _____ _____    ______ ____
ROOT
ATOM      1  N   UNL     1      33.141 -24.341 -14.996  0.00  0.00    -0.312 N 
ATOM      2  C   UNL     1      35.089 -23.292 -14.805  0.00  0.00    -0.006 C 
ATOM      3  C   UNL     1      34.524 -22.956 -16.067  0.00  0.00    +0.012 C 
ATOM      4  C   UNL     1      33.303 -23.627 -16.162  0.00  0.00    +0.048 C 
ATOM      5  C   UNL     1      34.216 -24.145 -14.169  0.00  0.00    +0.058 C 
ATOM      6  C   UNL     1      34.937 -22.144 -17.142  0.00  0.00    +0.016 C 
ATOM      7  C   UNL     1      34.113 -22.032 -18.268  0.00  0.00    +0.051 C 
ATOM      8  C   UNL     1      32.470 -23.525 -17.282  0.00  0.00    +0.016 C 
ATOM      9  C   UNL     1      32.899 -22.713 -18.335  0.00  0.00    +0.016 C 
ATOM     10  H   UNL     1      32.366 -24.909 -14.786  0.00  0.00    +0.152 HD
ENDROOT
BRANCH   7  12
ATOM     11  O   UNL     1      32.481 -20.431 -20.208  0.00  0.00    -0.270 OA
ATOM     12  N   UNL     1      34.515 -21.229 -19.338  0.00  0.00    -0.280 N 
ATOM     13  C   UNL     1      33.706 -20.499 -20.218  0.00  0.00    +0.250 C 
ATOM     14  H   UNL     1      35.485 -21.170 -19.493  0.00  0.00    +0.155 HD
BRANCH  13  18
ATOM     15  F   UNL     1      37.791 -18.658 -22.037  0.00  0.00    -0.204 F 
ATOM     16  C   UNL     1      34.407 -18.601 -23.372  0.00  0.00    +0.050 C 
ATOM     17  C   UNL     1      33.724 -19.295 -22.373  0.00  0.00    +0.019 C 
ATOM     18  C   UNL     1      34.432 -19.757 -21.283  0.00  0.00    +0.057 C 
ATOM     19  C   UNL     1      35.780 -18.385 -23.258  0.00  0.00    +0.044 C 
ATOM     20  C   UNL     1      35.790 -19.558 -21.147  0.00  0.00    +0.034 C 
ATOM     21  C   UNL     1      36.472 -18.864 -22.145  0.00  0.00    +0.142 C 
BRANCH  16  23
ATOM     22  O   UNL     1      32.553 -17.204 -26.878  0.00  0.00    -0.350 OA
ATOM     23  N   UNL     1      33.714 -18.121 -24.488  0.00  0.00    -0.303 N 
ATOM     24  C   UNL     1      33.059 -19.063 -25.403  0.00  0.00    +0.123 C 
ATOM     25  C   UNL     1      34.172 -16.868 -25.104  0.00  0.00    +0.123 C 
ATOM     26  C   UNL     1      31.993 -18.336 -26.215  0.00  0.00    +0.164 C 
ATOM     27  C   UNL     1      33.045 -16.258 -25.929  0.00  0.00    +0.164 C 
ENDBRANCH  16  23
ENDBRANCH  13  18
ENDBRANCH   7  12
BRANCH   2  28
ATOM     28  C   UNL     1      36.379 -22.817 -14.265  0.00  0.00    +0.032 C 
BRANCH  28  29
ATOM     29  C   UNL     1      36.985 -23.720 -13.168  0.00  0.00    +0.031 C 
BRANCH  29  31
ATOM     30  N   UNL     1      39.396 -26.899 -14.733  0.00  0.00    -0.242 NA
ATOM     31  C   UNL     1      37.833 -24.838 -13.719  0.00  0.00    -0.019 C 
ATOM     32  C   UNL     1      39.210 -24.739 -13.661  0.00  0.00    +0.016 C 
ATOM     33  C   UNL     1      37.222 -25.946 -14.274  0.00  0.00    +0.016 C 
ATOM     34  C   UNL     1      39.945 -25.793 -14.180  0.00  0.00    +0.099 C 
ATOM     35  C   UNL     1      38.046 -26.946 -14.766  0.00  0.00    +0.099 C 
ENDBRANCH  29  31
ENDBRANCH  28  29
ENDBRANCH   2  28
TORSDOF 6
ENDMDL
MODEL 8
REMARK VINA RESULT:     -11.5      3.283      5.428
REMARK  Name = 5326868
REMARK  6 active torsions:
REMARK  status: ('A' for Active; 'I' for Inactive)
REMARK    1  A    between atoms: C_2  and  C_28
REMARK    2  A    between atoms: C_7  and  N_12
REMARK    3  A    between atoms: C_13  and  C_18
REMARK    4  A    between atoms: C_16  and  N_23
REMARK    5  A    between atoms: C_28  and  C_29
REMARK    6  A    between atoms: C_29  and  C_31
REMARK                            x       y       z     vdW  Elec       q    Type
REMARK                         _______ _______ _______ _____ _____    ______ ____
ROOT
ATOM      1  N   UNL     1      32.376 -24.277 -15.386  0.00  0.00    -0.312 N 
ATOM      2  C   UNL     1      34.580 -24.127 -15.607  0.00  0.00    -0.006 C 
ATOM      3  C   UNL     1      33.975 -23.343 -16.630  0.00  0.00    +0.012 C 
ATOM      4  C   UNL     1      32.593 -23.456 -16.469  0.00  0.00    +0.048 C 
ATOM      5  C   UNL     1      33.571 -24.688 -14.859  0.00  0.00    +0.058 C 
ATOM      6  C   UNL     1      34.474 -22.548 -17.682  0.00  0.00    +0.016 C 
ATOM      7  C   UNL     1      33.573 -21.896 -18.530  0.00  0.00    +0.051 C 
ATOM      8  C   UNL     1      31.680 -22.809 -17.310  0.00  0.00    +0.016 C 
ATOM      9  C   UNL     1      32.197 -22.025 -18.346  0.00  0.00    +0.016 C 
ATOM     10  H   UNL     1      31.491 -24.533 -15.041  0.00  0.00    +0.152 HD
ENDROOT
BRANCH   7  12
ATOM     11  O   UNL     1      32.103 -20.217 -20.534  0.00  0.00    -0.270 OA
ATOM     12  N   UNL     1      34.058 -21.107 -19.575  0.00  0.00    -0.280 N 
ATOM     13  C   UNL     1      33.323 -20.338 -20.487  0.00  0.00    +0.250 C 
ATOM     14  H   UNL     1      35.036 -21.088 -19.684  0.00  0.00    +0.155 HD
BRANCH  13  18
ATOM     15  F   UNL     1      37.564 -18.664 -22.099  0.00  0.00    -0.204 F 
ATOM     16  C   UNL     1      34.253 -18.460 -23.593  0.00  0.00    +0.050 C 
ATOM     17  C   UNL     1      33.495 -19.129 -22.631  0.00  0.00    +0.019 C 
ATOM     18  C   UNL     1      34.130 -19.624 -21.512  0.00  0.00    +0.057 C 
ATOM     19  C   UNL     1      35.627 -18.303 -23.413  0.00  0.00    +0.044 C 
ATOM     20  C   UNL     1      35.487 -19.483 -21.310  0.00  0.00    +0.034 C 
ATOM     21  C   UNL     1      36.244 -18.814 -22.271  0.00  0.00    +0.142 C 
BRANCH  16  23
ATOM     22  O   UNL     1      32.602 -17.029 -27.186  0.00  0.00    -0.350 OA
ATOM     23  N   UNL     1      33.634 -17.948 -24.739  0.00  0.00    -0.303 N 
ATOM     24  C   UNL     1      32.747 -18.803 -25.535  0.00  0.00    +0.123 C 
ATOM     25  C   UNL     1      34.332 -16.897 -25.492  0.00  0.00    +0.123 C 
ATOM     26  C   UNL     1      31.834 -17.936 -26.395  0.00  0.00    +0.164 C 
ATOM     27  C   UNL     1      33.333 -16.131 -26.352  0.00  0.00    +0.164 C 
ENDBRANCH  16  23
ENDBRANCH  13  18
ENDBRANCH   7  12
BRANCH   2  28
ATOM     28  C   UNL     1      36.028 -24.310 -15.380  0.00  0.00    +0.032 C 
BRANCH  28  29
ATOM     29  C   UNL     1      36.378 -25.220 -14.183  0.00  0.00    +0.031 C 
BRANCH  29  31
ATOM     30  N   UNL     1      36.480 -23.130 -10.442  0.00  0.00    -0.242 NA
ATOM     31  C   UNL     1      36.414 -24.484 -12.866  0.00  0.00    -0.019 C 
ATOM     32  C   UNL     1      35.632 -24.929 -11.818  0.00  0.00    +0.016 C 
ATOM     33  C   UNL     1      37.228 -23.377 -12.728  0.00  0.00    +0.016 C 
ATOM     34  C   UNL     1      35.700 -24.219 -10.630  0.00  0.00    +0.099 C 
ATOM     35  C   UNL     1      37.225 -22.736 -11.499  0.00  0.00    +0.099 C 
ENDBRANCH  29  31
ENDBRANCH  28  29
ENDBRANCH   2  28
TORSDOF 6
ENDMDL
MODEL 9
REMARK VINA RESULT:     -11.5      4.136     10.715
REMARK  Name = 5326868
REMARK  6 active torsions:
REMARK  status: ('A' for Active; 'I' for Inactive)
REMARK    1  A    between atoms: C_2  and  C_28
REMARK    2  A    between atoms: C_7  and  N_12
REMARK    3  A    between atoms: C_13  and  C_18
REMARK    4  A    between atoms: C_16  and  N_23
REMARK    5  A    between atoms: C_28  and  C_29
REMARK    6  A    between atoms: C_29  and  C_31
REMARK                            x       y       z     vdW  Elec       q    Type
REMARK                         _______ _______ _______ _____ _____    ______ ____
ROOT
ATOM      1  N   UNL     1      34.948 -16.824 -24.337  0.00  0.00    -0.312 N 
ATOM      2  C   UNL     1      34.758 -15.860 -22.346  0.00  0.00    -0.006 C 
ATOM      3  C   UNL     1      34.646 -17.268 -22.172  0.00  0.00    +0.012 C 
ATOM      4  C   UNL     1      34.769 -17.848 -23.436  0.00  0.00    +0.048 C 
ATOM      5  C   UNL     1      34.943 -15.618 -23.688  0.00  0.00    +0.058 C 
ATOM      6  C   UNL     1      34.451 -18.106 -21.056  0.00  0.00    +0.016 C 
ATOM      7  C   UNL     1      34.387 -19.491 -21.246  0.00  0.00    +0.051 C 
ATOM      8  C   UNL     1      34.706 -19.232 -23.641  0.00  0.00    +0.016 C 
ATOM      9  C   UNL     1      34.513 -20.044 -22.519  0.00  0.00    +0.016 C 
ATOM     10  H   UNL     1      35.064 -16.941 -25.307  0.00  0.00    +0.152 HD
ENDROOT
BRANCH   7  12
ATOM     11  O   UNL     1      36.273 -21.402 -19.910  0.00  0.00    -0.270 OA
ATOM     12  N   UNL     1      34.193 -20.329 -20.145  0.00  0.00    -0.280 N 
ATOM     13  C   UNL     1      35.113 -21.207 -19.559  0.00  0.00    +0.250 C 
ATOM     14  H   UNL     1      33.301 -20.299 -19.732  0.00  0.00    +0.155 HD
BRANCH  13  18
ATOM     15  F   UNL     1      31.459 -23.296 -17.178  0.00  0.00    -0.204 F 
ATOM     16  C   UNL     1      35.002 -23.156 -16.361  0.00  0.00    +0.050 C 
ATOM     17  C   UNL     1      35.486 -22.418 -17.441  0.00  0.00    +0.019 C 
ATOM     18  C   UNL     1      34.598 -21.992 -18.406  0.00  0.00    +0.057 C 
ATOM     19  C   UNL     1      33.642 -23.453 -16.272  0.00  0.00    +0.044 C 
ATOM     20  C   UNL     1      33.249 -22.272 -18.343  0.00  0.00    +0.034 C 
ATOM     21  C   UNL     1      32.765 -23.010 -17.263  0.00  0.00    +0.142 C 
BRANCH  16  23
ATOM     22  O   UNL     1      37.710 -24.228 -13.327  0.00  0.00    -0.350 OA
ATOM     23  N   UNL     1      35.881 -23.601 -15.367  0.00  0.00    -0.303 N 
ATOM     24  C   UNL     1      35.445 -23.634 -13.967  0.00  0.00    +0.123 C 
ATOM     25  C   UNL     1      37.320 -23.389 -15.570  0.00  0.00    +0.123 C 
ATOM     26  C   UNL     1      36.336 -24.583 -13.173  0.00  0.00    +0.164 C 
ATOM     27  C   UNL     1      38.111 -24.353 -14.692  0.00  0.00    +0.164 C 
ENDBRANCH  16  23
ENDBRANCH  13  18
ENDBRANCH   7  12
BRANCH   2  28
ATOM     28  C   UNL     1      34.689 -14.835 -21.286  0.00  0.00    +0.032 C 
BRANCH  28  29
ATOM     29  C   UNL     1      33.287 -14.648 -20.665  0.00  0.00    +0.031 C 
BRANCH  29  31
ATOM     30  N   UNL     1      31.312 -11.082 -21.986  0.00  0.00    -0.242 NA
ATOM     31  C   UNL     1      32.591 -13.393 -21.130  0.00  0.00    -0.019 C 
ATOM     32  C   UNL     1      31.761 -12.714 -20.260  0.00  0.00    +0.016 C 
ATOM     33  C   UNL     1      32.795 -12.941 -22.420  0.00  0.00    +0.016 C 
ATOM     34  C   UNL     1      31.147 -11.566 -20.735  0.00  0.00    +0.099 C 
ATOM     35  C   UNL     1      32.134 -11.784 -22.799  0.00  0.00    +0.099 C 
ENDBRANCH  29  31
ENDBRANCH  28  29
ENDBRANCH   2  28
TORSDOF 6
ENDMDL
