MODEL 1
REMARK VINA RESULT:     -12.3      0.000      0.000
REMARK  Name = 6852168
REMARK  5 active torsions:
REMARK  status: ('A' for Active; 'I' for Inactive)
REMARK    1  A    between atoms: N_1  and  C_5
REMARK    2  A    between atoms: N_1  and  S_19
REMARK    3  A    between atoms: N_4  and  C_9
REMARK    4  A    between atoms: C_9  and  C_14
REMARK    5  A    between atoms: S_19  and  C_23
REMARK                            x       y       z     vdW  Elec       q    Type
REMARK                         _______ _______ _______ _____ _____    ______ ____
ROOT
ATOM      1  N   UNL     1      33.254 -18.352 -23.986  0.00  0.00    -0.172 NA
ATOM      2  H   UNL     1      32.780 -17.465 -23.821  0.00  0.00    +0.149 HD
ENDROOT
BRANCH   1   5
ATOM      3  O   UNL     1      34.980 -16.721 -25.876  0.00  0.00    -0.273 OA
ATOM      4  N   UNL     1      32.729 -16.539 -26.536  0.00  0.00    -0.272 N 
ATOM      5  C   UNL     1      33.388 -18.497 -25.447  0.00  0.00    +0.153 C 
ATOM      6  C   UNL     1      32.032 -18.716 -26.109  0.00  0.00    +0.048 C 
ATOM      7  C   UNL     1      31.520 -17.315 -26.386  0.00  0.00    +0.096 C 
ATOM      8  C   UNL     1      33.844 -17.162 -25.978  0.00  0.00    +0.242 C 
BRANCH   4   9
ATOM      9  C   UNL     1      32.703 -15.196 -27.071  0.00  0.00    +0.152 C 
ATOM     10  C   UNL     1      31.418 -14.893 -27.807  0.00  0.00    +0.031 C 
BRANCH   9  14
ATOM     11  O   UNL     1      34.441 -10.495 -26.460  0.00  0.00    -0.350 OA
ATOM     12  O   UNL     1      32.705 -14.792 -24.735  0.00  0.00    -0.273 OA
ATOM     13  N   UNL     1      33.139 -12.968 -26.103  0.00  0.00    -0.273 N 
ATOM     14  C   UNL     1      32.846 -14.307 -25.861  0.00  0.00    +0.244 C 
ATOM     15  C   UNL     1      33.186 -12.333 -27.425  0.00  0.00    +0.126 C 
ATOM     16  C   UNL     1      33.299 -12.038 -24.985  0.00  0.00    +0.126 C 
ATOM     17  C   UNL     1      34.413 -11.436 -27.535  0.00  0.00    +0.164 C 
ATOM     18  C   UNL     1      34.524 -11.159 -25.197  0.00  0.00    +0.164 C 
ENDBRANCH   9  14
ENDBRANCH   4   9
ENDBRANCH   1   5
BRANCH   1  19
ATOM     19  S   UNL     1      34.640 -18.359 -22.997  0.00  0.00    +0.061 S 
ATOM     20  O   UNL     1      34.824 -17.041 -22.421  0.00  0.00    -0.153 OA
ATOM     21  O   UNL     1      35.728 -19.001 -23.711  0.00  0.00    -0.153 OA
BRANCH  19  23
ATOM     22 CL   UNL     1      33.510 -23.708 -16.533  0.00  0.00    -0.082 Cl
ATOM     23  C   UNL     1      34.155 -19.458 -21.701  0.00  0.00    +0.122 C 
ATOM     24  C   UNL     1      35.127 -20.016 -20.888  0.00  0.00    +0.020 C 
ATOM     25  C   UNL     1      32.814 -19.742 -21.525  0.00  0.00    +0.020 C 
ATOM     26  C   UNL     1      34.756 -20.891 -19.854  0.00  0.00    +0.001 C 
ATOM     27  C   UNL     1      33.388 -21.192 -19.658  0.00  0.00    +0.001 C 
ATOM     28  C   UNL     1      32.429 -20.608 -20.503  0.00  0.00    +0.001 C 
ATOM     29  C   UNL     1      35.715 -21.474 -19.009  0.00  0.00    +0.001 C 
ATOM     30  C   UNL     1      33.018 -22.067 -18.625  0.00  0.00    +0.011 C 
ATOM     31  C   UNL     1      35.330 -22.341 -17.987  0.00  0.00    +0.011 C 
ATOM     32  C   UNL     1      33.983 -22.638 -17.795  0.00  0.00    +0.058 C 
ENDBRANCH  19  23
ENDBRANCH   1  19
TORSDOF 5
ENDMDL
MODEL 2
REMARK VINA RESULT:     -11.2      2.354      4.058
REMARK  Name = 6852168
REMARK  5 active torsions:
REMARK  status: ('A' for Active; 'I' for Inactive)
REMARK    1  A    between atoms: N_1  and  C_5
REMARK    2  A    between atoms: N_1  and  S_19
REMARK    3  A    between atoms: N_4  and  C_9
REMARK    4  A    between atoms: C_9  and  C_14
REMARK    5  A    between atoms: S_19  and  C_23
REMARK                            x       y       z     vdW  Elec       q    Type
REMARK                         _______ _______ _______ _____ _____    ______ ____
ROOT
ATOM      1  N   UNL     1      33.956 -15.378 -24.474  0.00  0.00    -0.172 NA
ATOM      2  H   UNL     1      34.728 -14.990 -25.016  0.00  0.00    +0.149 HD
ENDROOT
BRANCH   1   5
ATOM      3  O   UNL     1      32.884 -13.904 -26.901  0.00  0.00    -0.273 OA
ATOM      4  N   UNL     1      33.641 -12.336 -25.318  0.00  0.00    -0.272 N 
ATOM      5  C   UNL     1      32.863 -14.391 -24.526  0.00  0.00    +0.153 C 
ATOM      6  C   UNL     1      32.952 -13.402 -23.370  0.00  0.00    +0.048 C 
ATOM      7  C   UNL     1      33.852 -12.296 -23.890  0.00  0.00    +0.096 C 
ATOM      8  C   UNL     1      33.098 -13.544 -25.752  0.00  0.00    +0.242 C 
BRANCH   4   9
ATOM      9  C   UNL     1      34.108 -11.273 -26.181  0.00  0.00    +0.152 C 
ATOM     10  C   UNL     1      34.442 -11.763 -27.571  0.00  0.00    +0.031 C 
BRANCH   9  14
ATOM     11  O   UNL     1      32.949  -7.244 -23.367  0.00  0.00    -0.350 OA
ATOM     12  O   UNL     1      31.980 -10.539 -26.925  0.00  0.00    -0.273 OA
ATOM     13  N   UNL     1      33.095  -9.148 -25.438  0.00  0.00    -0.273 N 
ATOM     14  C   UNL     1      32.963 -10.292 -26.221  0.00  0.00    +0.244 C 
ATOM     15  C   UNL     1      34.299  -8.762 -24.693  0.00  0.00    +0.126 C 
ATOM     16  C   UNL     1      32.029  -8.147 -25.416  0.00  0.00    +0.126 C 
ATOM     17  C   UNL     1      33.923  -8.288 -23.295  0.00  0.00    +0.164 C 
ATOM     18  C   UNL     1      31.746  -7.705 -23.988  0.00  0.00    +0.164 C 
ENDBRANCH   9  14
ENDBRANCH   4   9
ENDBRANCH   1   5
BRANCH   1  19
ATOM     19  S   UNL     1      33.704 -16.963 -25.042  0.00  0.00    +0.061 S 
ATOM     20  O   UNL     1      34.565 -17.204 -26.184  0.00  0.00    -0.153 OA
ATOM     21  O   UNL     1      32.278 -17.210 -25.139  0.00  0.00    -0.153 OA
BRANCH  19  23
ATOM     22 CL   UNL     1      35.410 -21.918 -18.394  0.00  0.00    -0.082 Cl
ATOM     23  C   UNL     1      34.305 -17.931 -23.691  0.00  0.00    +0.122 C 
ATOM     24  C   UNL     1      33.407 -18.662 -22.932  0.00  0.00    +0.020 C 
ATOM     25  C   UNL     1      35.658 -17.939 -23.418  0.00  0.00    +0.020 C 
ATOM     26  C   UNL     1      33.869 -19.437 -21.855  0.00  0.00    +0.001 C 
ATOM     27  C   UNL     1      35.253 -19.458 -21.561  0.00  0.00    +0.001 C 
ATOM     28  C   UNL     1      36.135 -18.704 -22.353  0.00  0.00    +0.001 C 
ATOM     29  C   UNL     1      32.987 -20.191 -21.064  0.00  0.00    +0.001 C 
ATOM     30  C   UNL     1      35.715 -20.232 -20.485  0.00  0.00    +0.011 C 
ATOM     31  C   UNL     1      33.464 -20.955 -19.998  0.00  0.00    +0.011 C 
ATOM     32  C   UNL     1      34.825 -20.975 -19.709  0.00  0.00    +0.058 C 
ENDBRANCH  19  23
ENDBRANCH   1  19
TORSDOF 5
ENDMDL
MODEL 3
REMARK VINA RESULT:     -11.1      7.020     12.456
REMARK  Name = 6852168
REMARK  5 active torsions:
REMARK  status: ('A' for Active; 'I' for Inactive)
REMARK    1  A    between atoms: N_1  and  C_5
REMARK    2  A    between atoms: N_1  and  S_19
REMARK    3  A    between atoms: N_4  and  C_9
REMARK    4  A    between atoms: C_9  and  C_14
REMARK    5  A    between atoms: S_19  and  C_23
REMARK                            x       y       z     vdW  Elec       q    Type
REMARK                         _______ _______ _______ _____ _____    ______ ____
ROOT
ATOM      1  N   UNL     1      34.823 -22.855 -17.372  0.00  0.00    -0.172 NA
ATOM      2  H   UNL     1      35.266 -21.981 -17.655  0.00  0.00    +0.149 HD
ENDROOT
BRANCH   1   5
ATOM      3  O   UNL     1      37.128 -23.503 -15.507  0.00  0.00    -0.273 OA
ATOM      4  N   UNL     1      35.357 -24.997 -15.094  0.00  0.00    -0.272 N 
ATOM      5  C   UNL     1      34.821 -22.871 -15.898  0.00  0.00    +0.153 C 
ATOM      6  C   UNL     1      33.564 -23.540 -15.352  0.00  0.00    +0.048 C 
ATOM      7  C   UNL     1      33.925 -25.012 -15.278  0.00  0.00    +0.096 C 
ATOM      8  C   UNL     1      35.940 -23.788 -15.471  0.00  0.00    +0.242 C 
BRANCH   4   9
ATOM      9  C   UNL     1      36.082 -26.190 -14.711  0.00  0.00    +0.152 C 
ATOM     10  C   UNL     1      36.475 -27.033 -15.902  0.00  0.00    +0.031 C 
BRANCH   9  14
ATOM     11  O   UNL     1      36.695 -23.030 -10.820  0.00  0.00    -0.350 OA
ATOM     12  O   UNL     1      38.419 -25.855 -14.495  0.00  0.00    -0.273 OA
ATOM     13  N   UNL     1      37.087 -24.999 -12.797  0.00  0.00    -0.273 N 
ATOM     14  C   UNL     1      37.305 -25.671 -13.997  0.00  0.00    +0.244 C 
ATOM     15  C   UNL     1      35.794 -24.874 -12.115  0.00  0.00    +0.126 C 
ATOM     16  C   UNL     1      38.219 -24.460 -12.042  0.00  0.00    +0.126 C 
ATOM     17  C   UNL     1      35.592 -23.444 -11.630  0.00  0.00    +0.164 C 
ATOM     18  C   UNL     1      37.914 -23.047 -11.567  0.00  0.00    +0.164 C 
ENDBRANCH   9  14
ENDBRANCH   4   9
ENDBRANCH   1   5
BRANCH   1  19
ATOM     19  S   UNL     1      33.356 -22.962 -18.229  0.00  0.00    +0.061 S 
ATOM     20  O   UNL     1      32.258 -22.625 -17.342  0.00  0.00    -0.153 OA
ATOM     21  O   UNL     1      33.333 -24.204 -18.977  0.00  0.00    -0.153 OA
BRANCH  19  23
ATOM     22 CL   UNL     1      35.383 -16.775 -23.641  0.00  0.00    -0.082 Cl
ATOM     23  C   UNL     1      33.527 -21.654 -19.405  0.00  0.00    +0.122 C 
ATOM     24  C   UNL     1      34.790 -21.166 -19.693  0.00  0.00    +0.020 C 
ATOM     25  C   UNL     1      32.398 -21.143 -20.014  0.00  0.00    +0.020 C 
ATOM     26  C   UNL     1      34.943 -20.127 -20.626  0.00  0.00    +0.001 C 
ATOM     27  C   UNL     1      33.797 -19.592 -21.260  0.00  0.00    +0.001 C 
ATOM     28  C   UNL     1      32.531 -20.112 -20.943  0.00  0.00    +0.001 C 
ATOM     29  C   UNL     1      36.209 -19.608 -20.943  0.00  0.00    +0.001 C 
ATOM     30  C   UNL     1      33.950 -18.553 -22.192  0.00  0.00    +0.011 C 
ATOM     31  C   UNL     1      36.343 -18.575 -21.872  0.00  0.00    +0.011 C 
ATOM     32  C   UNL     1      35.215 -18.049 -22.495  0.00  0.00    +0.058 C 
ENDBRANCH  19  23
ENDBRANCH   1  19
TORSDOF 5
ENDMDL
MODEL 4
REMARK VINA RESULT:     -11.0      1.931      2.966
REMARK  Name = 6852168
REMARK  5 active torsions:
REMARK  status: ('A' for Active; 'I' for Inactive)
REMARK    1  A    between atoms: N_1  and  C_5
REMARK    2  A    between atoms: N_1  and  S_19
REMARK    3  A    between atoms: N_4  and  C_9
REMARK    4  A    between atoms: C_9  and  C_14
REMARK    5  A    between atoms: S_19  and  C_23
REMARK                            x       y       z     vdW  Elec       q    Type
REMARK                         _______ _______ _______ _____ _____    ______ ____
ROOT
ATOM      1  N   UNL     1      34.531 -17.304 -22.179  0.00  0.00    -0.172 NA
ATOM      2  H   UNL     1      35.137 -17.390 -21.364  0.00  0.00    +0.149 HD
ENDROOT
BRANCH   1   5
ATOM      3  O   UNL     1      34.888 -14.347 -21.594  0.00  0.00    -0.273 OA
ATOM      4  N   UNL     1      33.574 -14.598 -23.530  0.00  0.00    -0.272 N 
ATOM      5  C   UNL     1      35.128 -16.273 -23.046  0.00  0.00    +0.153 C 
ATOM      6  C   UNL     1      34.656 -16.420 -24.488  0.00  0.00    +0.048 C 
ATOM      7  C   UNL     1      33.379 -15.603 -24.550  0.00  0.00    +0.096 C 
ATOM      8  C   UNL     1      34.557 -14.949 -22.606  0.00  0.00    +0.242 C 
BRANCH   4   9
ATOM      9  C   UNL     1      32.707 -13.445 -23.430  0.00  0.00    +0.152 C 
ATOM     10  C   UNL     1      32.456 -13.035 -21.997  0.00  0.00    +0.031 C 
BRANCH   9  14
ATOM     11  O   UNL     1      33.386 -12.523 -28.348  0.00  0.00    -0.350 OA
ATOM     12  O   UNL     1      34.198 -11.606 -23.557  0.00  0.00    -0.273 OA
ATOM     13  N   UNL     1      33.210 -12.279 -25.546  0.00  0.00    -0.273 N 
ATOM     14  C   UNL     1      33.440 -12.358 -24.175  0.00  0.00    +0.244 C 
ATOM     15  C   UNL     1      32.223 -13.070 -26.290  0.00  0.00    +0.126 C 
ATOM     16  C   UNL     1      33.885 -11.256 -26.346  0.00  0.00    +0.126 C 
ATOM     17  C   UNL     1      32.836 -13.597 -27.581  0.00  0.00    +0.164 C 
ATOM     18  C   UNL     1      34.431 -11.863 -27.630  0.00  0.00    +0.164 C 
ENDBRANCH   9  14
ENDBRANCH   4   9
ENDBRANCH   1   5
BRANCH   1  19
ATOM     19  S   UNL     1      34.281 -18.881 -22.773  0.00  0.00    +0.061 S 
ATOM     20  O   UNL     1      35.310 -19.192 -23.747  0.00  0.00    -0.153 OA
ATOM     21  O   UNL     1      32.881 -19.042 -23.114  0.00  0.00    -0.153 OA
BRANCH  19  23
ATOM     22 CL   UNL     1      34.502 -23.821 -15.901  0.00  0.00    -0.082 Cl
ATOM     23  C   UNL     1      34.578 -19.861 -21.333  0.00  0.00    +0.122 C 
ATOM     24  C   UNL     1      33.520 -20.525 -20.737  0.00  0.00    +0.020 C 
ATOM     25  C   UNL     1      35.861 -19.944 -20.828  0.00  0.00    +0.020 C 
ATOM     26  C   UNL     1      33.740 -21.308 -19.592  0.00  0.00    +0.001 C 
ATOM     27  C   UNL     1      35.048 -21.407 -19.061  0.00  0.00    +0.001 C 
ATOM     28  C   UNL     1      36.098 -20.718 -19.692  0.00  0.00    +0.001 C 
ATOM     29  C   UNL     1      32.690 -21.997 -18.963  0.00  0.00    +0.001 C 
ATOM     30  C   UNL     1      35.267 -22.189 -17.917  0.00  0.00    +0.011 C 
ATOM     31  C   UNL     1      32.926 -22.770 -17.826  0.00  0.00    +0.011 C 
ATOM     32  C   UNL     1      34.213 -22.866 -17.304  0.00  0.00    +0.058 C 
ENDBRANCH  19  23
ENDBRANCH   1  19
TORSDOF 5
ENDMDL
MODEL 5
REMARK VINA RESULT:     -10.9      2.443      3.322
REMARK  Name = 6852168
REMARK  5 active torsions:
REMARK  status: ('A' for Active; 'I' for Inactive)
REMARK    1  A    between atoms: N_1  and  C_5
REMARK    2  A    between atoms: N_1  and  S_19
REMARK    3  A    between atoms: N_4  and  C_9
REMARK    4  A    between atoms: C_9  and  C_14
REMARK    5  A    between atoms: S_19  and  C_23
REMARK                            x       y       z     vdW  Elec       q    Type
REMARK                         _______ _______ _______ _____ _____    ______ ____
ROOT
ATOM      1  N   UNL     1      34.520 -17.129 -22.608  0.00  0.00    -0.172 NA
ATOM      2  H   UNL     1      34.531 -16.893 -21.616  0.00  0.00    +0.149 HD
ENDROOT
BRANCH   1   5
ATOM      3  O   UNL     1      34.890 -14.312 -21.541  0.00  0.00    -0.273 OA
ATOM      4  N   UNL     1      33.387 -14.260 -23.351  0.00  0.00    -0.272 N 
ATOM      5  C   UNL     1      35.008 -15.941 -23.331  0.00  0.00    +0.153 C 
ATOM      6  C   UNL     1      34.392 -15.846 -24.723  0.00  0.00    +0.048 C 
ATOM      7  C   UNL     1      33.103 -15.074 -24.510  0.00  0.00    +0.096 C 
ATOM      8  C   UNL     1      34.466 -14.735 -22.607  0.00  0.00    +0.242 C 
BRANCH   4   9
ATOM      9  C   UNL     1      32.517 -13.173 -22.959  0.00  0.00    +0.152 C 
ATOM     10  C   UNL     1      32.401 -13.038 -21.459  0.00  0.00    +0.031 C 
BRANCH   9  14
ATOM     11  O   UNL     1      31.274  -8.279 -22.886  0.00  0.00    -0.350 OA
ATOM     12  O   UNL     1      34.062 -12.078 -24.387  0.00  0.00    -0.273 OA
ATOM     13  N   UNL     1      32.670 -10.715 -23.124  0.00  0.00    -0.273 N 
ATOM     14  C   UNL     1      33.158 -11.945 -23.557  0.00  0.00    +0.244 C 
ATOM     15  C   UNL     1      31.690 -10.519 -22.051  0.00  0.00    +0.126 C 
ATOM     16  C   UNL     1      33.233  -9.474 -23.657  0.00  0.00    +0.126 C 
ATOM     17  C   UNL     1      30.644  -9.494 -22.473  0.00  0.00    +0.164 C 
ATOM     18  C   UNL     1      32.122  -8.499 -24.016  0.00  0.00    +0.164 C 
ENDBRANCH   9  14
ENDBRANCH   4   9
ENDBRANCH   1   5
BRANCH   1  19
ATOM     19  S   UNL     1      35.330 -18.618 -22.768  0.00  0.00    +0.061 S 
ATOM     20  O   UNL     1      36.709 -18.460 -22.349  0.00  0.00    -0.153 OA
ATOM     21  O   UNL     1      35.023 -19.187 -24.067  0.00  0.00    -0.153 OA
BRANCH  19  23
ATOM     22 CL   UNL     1      32.495 -23.678 -16.601  0.00  0.00    -0.082 Cl
ATOM     23  C   UNL     1      34.503 -19.610 -21.562  0.00  0.00    +0.122 C 
ATOM     24  C   UNL     1      35.256 -20.341 -20.658  0.00  0.00    +0.020 C 
ATOM     25  C   UNL     1      33.123 -19.639 -21.544  0.00  0.00    +0.020 C 
ATOM     26  C   UNL     1      34.614 -21.135 -19.693  0.00  0.00    +0.001 C 
ATOM     27  C   UNL     1      33.200 -21.175 -19.659  0.00  0.00    +0.001 C 
ATOM     28  C   UNL     1      32.469 -20.421 -20.593  0.00  0.00    +0.001 C 
ATOM     29  C   UNL     1      35.345 -21.888 -18.760  0.00  0.00    +0.001 C 
ATOM     30  C   UNL     1      32.558 -21.969 -18.695  0.00  0.00    +0.011 C 
ATOM     31  C   UNL     1      34.690 -22.671 -17.808  0.00  0.00    +0.011 C 
ATOM     32  C   UNL     1      33.300 -22.711 -17.776  0.00  0.00    +0.058 C 
ENDBRANCH  19  23
ENDBRANCH   1  19
TORSDOF 5
ENDMDL
MODEL 6
REMARK VINA RESULT:     -10.8      3.324      5.534
REMARK  Name = 6852168
REMARK  5 active torsions:
REMARK  status: ('A' for Active; 'I' for Inactive)
REMARK    1  A    between atoms: N_1  and  C_5
REMARK    2  A    between atoms: N_1  and  S_19
REMARK    3  A    between atoms: N_4  and  C_9
REMARK    4  A    between atoms: C_9  and  C_14
REMARK    5  A    between atoms: S_19  and  C_23
REMARK                            x       y       z     vdW  Elec       q    Type
REMARK                         _______ _______ _______ _____ _____    ______ ____
ROOT
ATOM      1  N   UNL     1      32.319 -14.219 -26.171  0.00  0.00    -0.172 NA
ATOM      2  H   UNL     1      32.357 -14.433 -25.175  0.00  0.00    +0.149 HD
ENDROOT
BRANCH   1   5
ATOM      3  O   UNL     1      33.928 -12.605 -24.166  0.00  0.00    -0.273 OA
ATOM      4  N   UNL     1      32.848 -11.134 -25.652  0.00  0.00    -0.272 N 
ATOM      5  C   UNL     1      33.406 -13.261 -26.440  0.00  0.00    +0.153 C 
ATOM      6  C   UNL     1      33.068 -12.355 -27.619  0.00  0.00    +0.048 C 
ATOM      7  C   UNL     1      32.319 -11.191 -26.995  0.00  0.00    +0.096 C 
ATOM      8  C   UNL     1      33.463 -12.323 -25.261  0.00  0.00    +0.242 C 
BRANCH   4   9
ATOM      9  C   UNL     1      32.598 -10.000 -24.789  0.00  0.00    +0.152 C 
ATOM     10  C   UNL     1      32.700 -10.357 -23.325  0.00  0.00    +0.031 C 
BRANCH   9  14
ATOM     11  O   UNL     1      32.570  -5.961 -27.820  0.00  0.00    -0.350 OA
ATOM     12  O   UNL     1      34.838  -9.226 -24.878  0.00  0.00    -0.273 OA
ATOM     13  N   UNL     1      33.229  -7.861 -25.846  0.00  0.00    -0.273 N 
ATOM     14  C   UNL     1      33.660  -8.999 -25.170  0.00  0.00    +0.244 C 
ATOM     15  C   UNL     1      31.829  -7.499 -26.095  0.00  0.00    +0.126 C 
ATOM     16  C   UNL     1      34.195  -6.841 -26.256  0.00  0.00    +0.126 C 
ATOM     17  C   UNL     1      31.656  -7.023 -27.532  0.00  0.00    +0.164 C 
ATOM     18  C   UNL     1      33.924  -6.399 -27.687  0.00  0.00    +0.164 C 
ENDBRANCH   9  14
ENDBRANCH   4   9
ENDBRANCH   1   5
BRANCH   1  19
ATOM     19  S   UNL     1      32.272 -15.710 -26.993  0.00  0.00    +0.061 S 
ATOM     20  O   UNL     1      33.176 -15.660 -28.126  0.00  0.00    -0.153 OA
ATOM     21  O   UNL     1      30.889 -16.104 -27.181  0.00  0.00    -0.153 OA
BRANCH  19  23
ATOM     22 CL   UNL     1      35.906 -19.950 -20.630  0.00  0.00    -0.082 Cl
ATOM     23  C   UNL     1      32.962 -16.807 -25.792  0.00  0.00    +0.122 C 
ATOM     24  C   UNL     1      33.584 -16.279 -24.673  0.00  0.00    +0.020 C 
ATOM     25  C   UNL     1      32.870 -18.170 -25.993  0.00  0.00    +0.020 C 
ATOM     26  C   UNL     1      34.137 -17.138 -23.709  0.00  0.00    +0.001 C 
ATOM     27  C   UNL     1      34.051 -18.538 -23.898  0.00  0.00    +0.001 C 
ATOM     28  C   UNL     1      33.413 -19.038 -25.046  0.00  0.00    +0.001 C 
ATOM     29  C   UNL     1      34.774 -16.638 -22.561  0.00  0.00    +0.001 C 
ATOM     30  C   UNL     1      34.605 -19.396 -22.934  0.00  0.00    +0.011 C 
ATOM     31  C   UNL     1      35.318 -17.506 -21.614  0.00  0.00    +0.011 C 
ATOM     32  C   UNL     1      35.234 -18.882 -21.801  0.00  0.00    +0.058 C 
ENDBRANCH  19  23
ENDBRANCH   1  19
TORSDOF 5
ENDMDL
MODEL 7
REMARK VINA RESULT:     -10.7      7.248     12.739
REMARK  Name = 6852168
REMARK  5 active torsions:
REMARK  status: ('A' for Active; 'I' for Inactive)
REMARK    1  A    between atoms: N_1  and  C_5
REMARK    2  A    between atoms: N_1  and  S_19
REMARK    3  A    between atoms: N_4  and  C_9
REMARK    4  A    between atoms: C_9  and  C_14
REMARK    5  A    between atoms: S_19  and  C_23
REMARK                            x       y       z     vdW  Elec       q    Type
REMARK                         _______ _______ _______ _____ _____    ______ ____
ROOT
ATOM      1  N   UNL     1      34.337 -23.641 -16.742  0.00  0.00    -0.172 NA
ATOM      2  H   UNL     1      35.267 -23.529 -17.146  0.00  0.00    +0.149 HD
ENDROOT
BRANCH   1   5
ATOM      3  O   UNL     1      36.663 -22.654 -15.060  0.00  0.00    -0.273 OA
ATOM      4  N   UNL     1      35.202 -23.901 -13.700  0.00  0.00    -0.272 N 
ATOM      5  C   UNL     1      34.291 -22.788 -15.541  0.00  0.00    +0.153 C 
ATOM      6  C   UNL     1      33.170 -23.214 -14.600  0.00  0.00    +0.048 C 
ATOM      7  C   UNL     1      33.805 -24.270 -13.714  0.00  0.00    +0.096 C 
ATOM      8  C   UNL     1      35.551 -23.065 -14.760  0.00  0.00    +0.242 C 
BRANCH   4   9
ATOM      9  C   UNL     1      36.130 -24.490 -12.760  0.00  0.00    +0.152 C 
ATOM     10  C   UNL     1      35.453 -24.933 -11.484  0.00  0.00    +0.031 C 
BRANCH   9  14
ATOM     11  O   UNL     1      40.705 -25.426 -14.680  0.00  0.00    -0.350 OA
ATOM     12  O   UNL     1      35.952 -26.555 -13.912  0.00  0.00    -0.273 OA
ATOM     13  N   UNL     1      38.090 -25.686 -13.663  0.00  0.00    -0.273 N 
ATOM     14  C   UNL     1      36.708 -25.673 -13.496  0.00  0.00    +0.244 C 
ATOM     15  C   UNL     1      39.028 -24.724 -13.073  0.00  0.00    +0.126 C 
ATOM     16  C   UNL     1      38.733 -26.795 -14.369  0.00  0.00    +0.126 C 
ATOM     17  C   UNL     1      40.055 -24.287 -14.109  0.00  0.00    +0.164 C 
ATOM     18  C   UNL     1      39.767 -26.268 -15.353  0.00  0.00    +0.164 C 
ENDBRANCH   9  14
ENDBRANCH   4   9
ENDBRANCH   1   5
BRANCH   1  19
ATOM     19  S   UNL     1      33.220 -23.399 -18.004  0.00  0.00    +0.061 S 
ATOM     20  O   UNL     1      31.995 -22.847 -17.459  0.00  0.00    -0.153 OA
ATOM     21  O   UNL     1      33.179 -24.589 -18.833  0.00  0.00    -0.153 OA
BRANCH  19  23
ATOM     22 CL   UNL     1      35.918 -17.165 -23.056  0.00  0.00    -0.082 Cl
ATOM     23  C   UNL     1      34.013 -22.137 -18.952  0.00  0.00    +0.122 C 
ATOM     24  C   UNL     1      33.269 -21.408 -19.864  0.00  0.00    +0.020 C 
ATOM     25  C   UNL     1      35.362 -21.902 -18.767  0.00  0.00    +0.020 C 
ATOM     26  C   UNL     1      33.885 -20.401 -20.625  0.00  0.00    +0.001 C 
ATOM     27  C   UNL     1      35.265 -20.146 -20.448  0.00  0.00    +0.001 C 
ATOM     28  C   UNL     1      35.989 -20.906 -19.514  0.00  0.00    +0.001 C 
ATOM     29  C   UNL     1      33.160 -19.642 -21.558  0.00  0.00    +0.001 C 
ATOM     30  C   UNL     1      35.881 -19.140 -21.209  0.00  0.00    +0.011 C 
ATOM     31  C   UNL     1      33.788 -18.645 -22.306  0.00  0.00    +0.011 C 
ATOM     32  C   UNL     1      35.146 -18.395 -22.132  0.00  0.00    +0.058 C 
ENDBRANCH  19  23
ENDBRANCH   1  19
TORSDOF 5
ENDMDL
MODEL 8
REMARK VINA RESULT:     -10.6      3.388      5.920
REMARK  Name = 6852168
REMARK  5 active torsions:
REMARK  status: ('A' for Active; 'I' for Inactive)
REMARK    1  A    between atoms: N_1  and  C_5
REMARK    2  A    between atoms: N_1  and  S_19
REMARK    3  A    between atoms: N_4  and  C_9
REMARK    4  A    between atoms: C_9  and  C_14
REMARK    5  A    between atoms: S_19  and  C_23
REMARK                            x       y       z     vdW  Elec       q    Type
REMARK                         _______ _______ _______ _____ _____    ______ ____
ROOT
ATOM      1  N   UNL     1      33.427 -13.682 -26.166  0.00  0.00    -0.172 NA
ATOM      2  H   UNL     1      33.963 -13.197 -26.885  0.00  0.00    +0.149 HD
ENDROOT
BRANCH   1   5
ATOM      3  O   UNL     1      33.130 -10.750 -26.890  0.00  0.00    -0.273 OA
ATOM      4  N   UNL     1      33.786 -10.926 -24.637  0.00  0.00    -0.272 N 
ATOM      5  C   UNL     1      32.541 -12.680 -25.548  0.00  0.00    +0.153 C 
ATOM      6  C   UNL     1      32.547 -12.797 -24.028  0.00  0.00    +0.048 C 
ATOM      7  C   UNL     1      33.701 -11.915 -23.588  0.00  0.00    +0.096 C 
ATOM      8  C   UNL     1      33.158 -11.330 -25.814  0.00  0.00    +0.242 C 
BRANCH   4   9
ATOM      9  C   UNL     1      34.587  -9.731 -24.486  0.00  0.00    +0.152 C 
ATOM     10  C   UNL     1      35.770  -9.707 -25.425  0.00  0.00    +0.031 C 
BRANCH   9  14
ATOM     11  O   UNL     1      30.708  -7.725 -21.949  0.00  0.00    -0.350 OA
ATOM     12  O   UNL     1      33.606  -8.132 -25.937  0.00  0.00    -0.273 OA
ATOM     13  N   UNL     1      32.834  -8.157 -23.747  0.00  0.00    -0.273 N 
ATOM     14  C   UNL     1      33.636  -8.601 -24.796  0.00  0.00    +0.244 C 
ATOM     15  C   UNL     1      32.934  -8.603 -22.353  0.00  0.00    +0.126 C 
ATOM     16  C   UNL     1      31.882  -7.068 -23.963  0.00  0.00    +0.126 C 
ATOM     17  C   UNL     1      31.546  -8.872 -21.786  0.00  0.00    +0.164 C 
ATOM     18  C   UNL     1      30.538  -7.407 -23.333  0.00  0.00    +0.164 C 
ENDBRANCH   9  14
ENDBRANCH   4   9
ENDBRANCH   1   5
BRANCH   1  19
ATOM     19  S   UNL     1      32.765 -15.069 -26.900  0.00  0.00    +0.061 S 
ATOM     20  O   UNL     1      33.463 -15.331 -28.144  0.00  0.00    -0.153 OA
ATOM     21  O   UNL     1      31.318 -14.969 -26.883  0.00  0.00    -0.153 OA
BRANCH  19  23
ATOM     22 CL   UNL     1      35.363 -20.223 -20.707  0.00  0.00    -0.082 Cl
ATOM     23  C   UNL     1      33.208 -16.334 -25.749  0.00  0.00    +0.122 C 
ATOM     24  C   UNL     1      33.867 -15.986 -24.582  0.00  0.00    +0.020 C 
ATOM     25  C   UNL     1      32.891 -17.647 -26.036  0.00  0.00    +0.020 C 
ATOM     26  C   UNL     1      34.226 -16.980 -23.657  0.00  0.00    +0.001 C 
ATOM     27  C   UNL     1      33.908 -18.330 -23.934  0.00  0.00    +0.001 C 
ATOM     28  C   UNL     1      33.239 -18.647 -25.128  0.00  0.00    +0.001 C 
ATOM     29  C   UNL     1      34.894 -16.662 -22.463  0.00  0.00    +0.001 C 
ATOM     30  C   UNL     1      34.267 -19.324 -23.009  0.00  0.00    +0.011 C 
ATOM     31  C   UNL     1      35.243 -17.663 -21.555  0.00  0.00    +0.011 C 
ATOM     32  C   UNL     1      34.931 -18.991 -21.828  0.00  0.00    +0.058 C 
ENDBRANCH  19  23
ENDBRANCH   1  19
TORSDOF 5
ENDMDL
MODEL 9
REMARK VINA RESULT:     -10.5      3.650      6.051
REMARK  Name = 6852168
REMARK  5 active torsions:
REMARK  status: ('A' for Active; 'I' for Inactive)
REMARK    1  A    between atoms: N_1  and  C_5
REMARK    2  A    between atoms: N_1  and  S_19
REMARK    3  A    between atoms: N_4  and  C_9
REMARK    4  A    between atoms: C_9  and  C_14
REMARK    5  A    between atoms: S_19  and  C_23
REMARK                            x       y       z     vdW  Elec       q    Type
REMARK                         _______ _______ _______ _____ _____    ______ ____
ROOT
ATOM      1  N   UNL     1      32.568 -13.658 -25.971  0.00  0.00    -0.172 NA
ATOM      2  H   UNL     1      32.561 -13.985 -25.005  0.00  0.00    +0.149 HD
ENDROOT
BRANCH   1   5
ATOM      3  O   UNL     1      34.232 -12.471 -23.727  0.00  0.00    -0.273 OA
ATOM      4  N   UNL     1      33.107 -10.738 -24.854  0.00  0.00    -0.272 N 
ATOM      5  C   UNL     1      33.645 -12.657 -26.071  0.00  0.00    +0.153 C 
ATOM      6  C   UNL     1      33.271 -11.534 -27.033  0.00  0.00    +0.048 C 
ATOM      7  C   UNL     1      32.539 -10.527 -26.165  0.00  0.00    +0.096 C 
ATOM      8  C   UNL     1      33.735 -11.976 -24.729  0.00  0.00    +0.242 C 
BRANCH   4   9
ATOM      9  C   UNL     1      32.881  -9.803 -23.773  0.00  0.00    +0.152 C 
ATOM     10  C   UNL     1      32.250  -8.515 -24.249  0.00  0.00    +0.031 C 
BRANCH   9  14
ATOM     11  O   UNL     1      31.552  -9.004 -18.968  0.00  0.00    -0.350 OA
ATOM     12  O   UNL     1      31.535 -11.652 -23.145  0.00  0.00    -0.273 OA
ATOM     13  N   UNL     1      31.637  -9.884 -21.643  0.00  0.00    -0.273 N 
ATOM     14  C   UNL     1      31.956 -10.535 -22.833  0.00  0.00    +0.244 C 
ATOM     15  C   UNL     1      32.014  -8.509 -21.298  0.00  0.00    +0.126 C 
ATOM     16  C   UNL     1      30.750 -10.525 -20.672  0.00  0.00    +0.126 C 
ATOM     17  C   UNL     1      32.519  -8.447 -19.862  0.00  0.00    +0.164 C 
ATOM     18  C   UNL     1      31.312 -10.382 -19.265  0.00  0.00    +0.164 C 
ENDBRANCH   9  14
ENDBRANCH   4   9
ENDBRANCH   1   5
BRANCH   1  19
ATOM     19  S   UNL     1      32.596 -15.045 -26.959  0.00  0.00    +0.061 S 
ATOM     20  O   UNL     1      33.644 -14.903 -27.952  0.00  0.00    -0.153 OA
ATOM     21  O   UNL     1      31.241 -15.362 -27.369  0.00  0.00    -0.153 OA
BRANCH  19  23
ATOM     22 CL   UNL     1      35.428 -20.111 -20.796  0.00  0.00    -0.082 Cl
ATOM     23  C   UNL     1      33.095 -16.295 -25.814  0.00  0.00    +0.122 C 
ATOM     24  C   UNL     1      33.745 -15.924 -24.650  0.00  0.00    +0.020 C 
ATOM     25  C   UNL     1      32.829 -17.619 -26.104  0.00  0.00    +0.020 C 
ATOM     26  C   UNL     1      34.148 -16.906 -23.730  0.00  0.00    +0.001 C 
ATOM     27  C   UNL     1      33.883 -18.267 -24.009  0.00  0.00    +0.001 C 
ATOM     28  C   UNL     1      33.221 -18.607 -25.202  0.00  0.00    +0.001 C 
ATOM     29  C   UNL     1      34.808 -16.566 -22.538  0.00  0.00    +0.001 C 
ATOM     30  C   UNL     1      34.286 -19.249 -23.090  0.00  0.00    +0.011 C 
ATOM     31  C   UNL     1      35.202 -17.554 -21.635  0.00  0.00    +0.011 C 
ATOM     32  C   UNL     1      34.941 -18.893 -21.911  0.00  0.00    +0.058 C 
ENDBRANCH  19  23
ENDBRANCH   1  19
TORSDOF 5
ENDMDL
