MODEL 1
REMARK VINA RESULT:     -11.4      0.000      0.000
REMARK  Name = 72696796
REMARK  9 active torsions:
REMARK  status: ('A' for Active; 'I' for Inactive)
REMARK    1  A    between atoms: N_2  and  C_29
REMARK    2  A    between atoms: C_10  and  C_12
REMARK    3  A    between atoms: C_13  and  C_16
REMARK    4  A    between atoms: N_15  and  C_18
REMARK    5  A    between atoms: C_18  and  C_20
REMARK    6  A    between atoms: C_29  and  O_30
REMARK    7  A    between atoms: O_30  and  P_31
REMARK    8  A    between atoms: P_31  and  O_33
REMARK    9  A    between atoms: P_31  and  O_35
REMARK                            x       y       z     vdW  Elec       q    Type
REMARK                         _______ _______ _______ _____ _____    ______ ____
ROOT
ATOM      1  O   UNL     1      30.501 -25.117 -13.039  0.00  0.00    -0.274 OA
ATOM      2  N   UNL     1      31.132 -24.299 -15.127  0.00  0.00    -0.217 N 
ATOM      3  N   UNL     1      31.838 -23.350 -17.223  0.00  0.00    -0.229 NA
ATOM      4  C   UNL     1      33.758 -24.031 -14.049  0.00  0.00    +0.039 C 
ATOM      5  C   UNL     1      33.427 -23.538 -15.422  0.00  0.00    +0.010 C 
ATOM      6  C   UNL     1      32.545 -23.903 -13.149  0.00  0.00    +0.090 C 
ATOM      7  C   UNL     1      32.144 -23.705 -15.947  0.00  0.00    +0.135 C 
ATOM      8  C   UNL     1      31.310 -24.531 -13.761  0.00  0.00    +0.233 C 
ATOM      9  C   UNL     1      34.416 -22.985 -16.241  0.00  0.00    +0.000 C 
ATOM     10  C   UNL     1      34.110 -22.603 -17.540  0.00  0.00    +0.019 C 
ATOM     11  C   UNL     1      32.817 -22.806 -17.979  0.00  0.00    +0.100 C 
ENDROOT
BRANCH  10  12
ATOM     12  C   UNL     1      35.109 -21.998 -18.401  0.00  0.00    +0.006 C 
ATOM     13  C   UNL     1      34.847 -21.264 -19.509  0.00  0.00    +0.058 C 
BRANCH  13  16
ATOM     14  O   UNL     1      37.043 -21.320 -20.376  0.00  0.00    -0.270 OA
ATOM     15  N   UNL     1      35.694 -19.549 -21.045  0.00  0.00    -0.267 N 
ATOM     16  C   UNL     1      35.966 -20.721 -20.334  0.00  0.00    +0.250 C 
ATOM     17  C   UNL     1      36.727 -18.973 -21.898  0.00  0.00    +0.116 C 
BRANCH  15  18
ATOM     18  C   UNL     1      34.416 -18.840 -21.039  0.00  0.00    +0.158 C 
BRANCH  18  20
ATOM     19  O   UNL     1      33.578 -19.027 -23.309  0.00  0.00    -0.456 OA
ATOM     20  C   UNL     1      34.119 -18.208 -22.369  0.00  0.00    +0.139 A 
ATOM     21  C   UNL     1      34.280 -16.936 -22.866  0.00  0.00    +0.013 A 
ATOM     22  C   UNL     1      33.807 -16.965 -24.204  0.00  0.00    +0.033 A 
ATOM     23  C   UNL     1      33.388 -18.273 -24.428  0.00  0.00    +0.145 A 
ATOM     24  C   UNL     1      34.835 -15.773 -22.147  0.00  0.00    +0.034 C 
ATOM     25  C   UNL     1      33.689 -16.033 -25.250  0.00  0.00    +0.003 C 
ATOM     26  C   UNL     1      32.851 -18.725 -25.632  0.00  0.00    +0.037 C 
ATOM     27  C   UNL     1      33.152 -16.459 -26.473  0.00  0.00    +0.000 C 
ATOM     28  C   UNL     1      32.742 -17.782 -26.658  0.00  0.00    +0.003 C 
ENDBRANCH  18  20
ENDBRANCH  15  18
ENDBRANCH  13  16
ENDBRANCH  10  12
BRANCH   2  29
ATOM     29  C   UNL     1      29.880 -24.670 -15.776  0.00  0.00    +0.257 C 
BRANCH  29  30
ATOM     30  O   UNL     1      28.848 -23.828 -15.298  0.00  0.00    -0.251 OA
BRANCH  30  31
ATOM     31  P   UNL     1      27.990 -22.974 -16.373  0.00  0.00    +0.475 P 
ATOM     32  O   UNL     1      26.954 -22.057 -15.792  0.00  0.00    -0.227 OA
BRANCH  31  33
ATOM     33  O   UNL     1      27.417 -24.108 -17.373  0.00  0.00    -0.303 OA
ATOM     34  H   UNL     1      28.042 -24.848 -17.415  0.00  0.00    +0.222 HD
ENDBRANCH  31  33
BRANCH  31  35
ATOM     35  O   UNL     1      29.121 -22.238 -17.266  0.00  0.00    -0.303 OA
ATOM     36  H   UNL     1      29.910 -22.082 -16.725  0.00  0.00    +0.222 HD
ENDBRANCH  31  35
ENDBRANCH  30  31
ENDBRANCH  29  30
ENDBRANCH   2  29
TORSDOF 9
ENDMDL
MODEL 2
REMARK VINA RESULT:     -11.2      7.608     12.453
REMARK  Name = 72696796
REMARK  9 active torsions:
REMARK  status: ('A' for Active; 'I' for Inactive)
REMARK    1  A    between atoms: N_2  and  C_29
REMARK    2  A    between atoms: C_10  and  C_12
REMARK    3  A    between atoms: C_13  and  C_16
REMARK    4  A    between atoms: N_15  and  C_18
REMARK    5  A    between atoms: C_18  and  C_20
REMARK    6  A    between atoms: C_29  and  O_30
REMARK    7  A    between atoms: O_30  and  P_31
REMARK    8  A    between atoms: P_31  and  O_33
REMARK    9  A    between atoms: P_31  and  O_35
REMARK                            x       y       z     vdW  Elec       q    Type
REMARK                         _______ _______ _______ _____ _____    ______ ____
ROOT
ATOM      1  O   UNL     1      31.552  -7.492 -19.442  0.00  0.00    -0.274 OA
ATOM      2  N   UNL     1      32.261  -8.652 -21.333  0.00  0.00    -0.217 N 
ATOM      3  N   UNL     1      33.044  -9.942 -23.208  0.00  0.00    -0.229 NA
ATOM      4  C   UNL     1      30.994 -10.943 -20.205  0.00  0.00    +0.039 C 
ATOM      5  C   UNL     1      31.798 -11.040 -21.464  0.00  0.00    +0.010 C 
ATOM      6  C   UNL     1      31.570  -9.868 -19.307  0.00  0.00    +0.090 C 
ATOM      7  C   UNL     1      32.386  -9.902 -22.020  0.00  0.00    +0.135 C 
ATOM      8  C   UNL     1      31.757  -8.553 -20.034  0.00  0.00    +0.233 C 
ATOM      9  C   UNL     1      31.899 -12.250 -22.157  0.00  0.00    +0.000 C 
ATOM     10  C   UNL     1      32.584 -12.306 -23.362  0.00  0.00    +0.019 C 
ATOM     11  C   UNL     1      33.133 -11.133 -23.841  0.00  0.00    +0.100 C 
ENDROOT
BRANCH  10  12
ATOM     12  C   UNL     1      32.731 -13.554 -24.087  0.00  0.00    +0.006 C 
ATOM     13  C   UNL     1      33.444 -14.626 -23.664  0.00  0.00    +0.058 C 
BRANCH  13  16
ATOM     14  O   UNL     1      32.938 -15.896 -25.589  0.00  0.00    -0.270 OA
ATOM     15  N   UNL     1      34.375 -16.864 -24.039  0.00  0.00    -0.267 N 
ATOM     16  C   UNL     1      33.547 -15.845 -24.518  0.00  0.00    +0.250 C 
ATOM     17  C   UNL     1      34.551 -18.075 -24.831  0.00  0.00    +0.116 C 
BRANCH  15  18
ATOM     18  C   UNL     1      35.133 -16.813 -22.790  0.00  0.00    +0.158 C 
BRANCH  18  20
ATOM     19  O   UNL     1      33.722 -18.404 -21.621  0.00  0.00    -0.456 OA
ATOM     20  C   UNL     1      34.987 -18.078 -21.993  0.00  0.00    +0.139 A 
ATOM     21  C   UNL     1      35.885 -19.016 -21.540  0.00  0.00    +0.013 A 
ATOM     22  C   UNL     1      35.127 -19.990 -20.838  0.00  0.00    +0.033 A 
ATOM     23  C   UNL     1      33.804 -19.567 -20.916  0.00  0.00    +0.145 A 
ATOM     24  C   UNL     1      37.346 -19.008 -21.745  0.00  0.00    +0.034 C 
ATOM     25  C   UNL     1      35.413 -21.179 -20.146  0.00  0.00    +0.003 C 
ATOM     26  C   UNL     1      32.731 -20.251 -20.349  0.00  0.00    +0.037 C 
ATOM     27  C   UNL     1      34.353 -21.890 -19.564  0.00  0.00    +0.000 C 
ATOM     28  C   UNL     1      33.037 -21.432 -19.665  0.00  0.00    +0.003 C 
ENDBRANCH  18  20
ENDBRANCH  15  18
ENDBRANCH  13  16
ENDBRANCH  10  12
BRANCH   2  29
ATOM     29  C   UNL     1      32.680  -7.452 -22.051  0.00  0.00    +0.257 C 
BRANCH  29  30
ATOM     30  O   UNL     1      31.544  -6.856 -22.648  0.00  0.00    -0.251 OA
BRANCH  30  31
ATOM     31  P   UNL     1      31.241  -5.297 -22.339  0.00  0.00    +0.475 P 
ATOM     32  O   UNL     1      31.433  -4.358 -23.494  0.00  0.00    -0.227 OA
BRANCH  31  33
ATOM     33  O   UNL     1      32.163  -4.989 -21.047  0.00  0.00    -0.303 OA
ATOM     34  H   UNL     1      33.008  -5.457 -21.134  0.00  0.00    +0.222 HD
ENDBRANCH  31  33
BRANCH  31  35
ATOM     35  O   UNL     1      29.744  -5.314 -21.722  0.00  0.00    -0.303 OA
ATOM     36  H   UNL     1      29.097  -5.345 -22.444  0.00  0.00    +0.222 HD
ENDBRANCH  31  35
ENDBRANCH  30  31
ENDBRANCH  29  30
ENDBRANCH   2  29
TORSDOF 9
ENDMDL
MODEL 3
REMARK VINA RESULT:     -11.1      2.881      5.104
REMARK  Name = 72696796
REMARK  9 active torsions:
REMARK  status: ('A' for Active; 'I' for Inactive)
REMARK    1  A    between atoms: N_2  and  C_29
REMARK    2  A    between atoms: C_10  and  C_12
REMARK    3  A    between atoms: C_13  and  C_16
REMARK    4  A    between atoms: N_15  and  C_18
REMARK    5  A    between atoms: C_18  and  C_20
REMARK    6  A    between atoms: C_29  and  O_30
REMARK    7  A    between atoms: O_30  and  P_31
REMARK    8  A    between atoms: P_31  and  O_33
REMARK    9  A    between atoms: P_31  and  O_35
REMARK                            x       y       z     vdW  Elec       q    Type
REMARK                         _______ _______ _______ _____ _____    ______ ____
ROOT
ATOM      1  O   UNL     1      35.560 -23.391 -16.144  0.00  0.00    -0.274 OA
ATOM      2  N   UNL     1      34.110 -22.555 -17.764  0.00  0.00    -0.217 N 
ATOM      3  N   UNL     1      32.668 -21.574 -19.422  0.00  0.00    -0.229 NA
ATOM      4  C   UNL     1      36.421 -21.501 -19.058  0.00  0.00    +0.039 C 
ATOM      5  C   UNL     1      35.044 -21.202 -19.562  0.00  0.00    +0.010 C 
ATOM      6  C   UNL     1      36.395 -21.664 -17.552  0.00  0.00    +0.090 C 
ATOM      7  C   UNL     1      33.923 -21.752 -18.935  0.00  0.00    +0.135 C 
ATOM      8  C   UNL     1      35.335 -22.646 -17.100  0.00  0.00    +0.233 C 
ATOM      9  C   UNL     1      34.855 -20.445 -20.722  0.00  0.00    +0.000 C 
ATOM     10  C   UNL     1      33.575 -20.241 -21.218  0.00  0.00    +0.019 C 
ATOM     11  C   UNL     1      32.524 -20.824 -20.538  0.00  0.00    +0.100 C 
ENDROOT
BRANCH  10  12
ATOM     12  C   UNL     1      33.347 -19.434 -22.402  0.00  0.00    +0.006 C 
ATOM     13  C   UNL     1      34.310 -18.994 -23.247  0.00  0.00    +0.058 C 
BRANCH  13  16
ATOM     14  O   UNL     1      33.308 -18.620 -25.352  0.00  0.00    -0.270 OA
ATOM     15  N   UNL     1      34.363 -16.805 -24.354  0.00  0.00    -0.267 N 
ATOM     16  C   UNL     1      33.952 -18.140 -24.417  0.00  0.00    +0.250 C 
ATOM     17  C   UNL     1      34.024 -15.900 -25.445  0.00  0.00    +0.116 C 
BRANCH  15  18
ATOM     18  C   UNL     1      35.097 -16.204 -23.242  0.00  0.00    +0.158 C 
BRANCH  18  20
ATOM     19  O   UNL     1      33.616 -14.282 -23.288  0.00  0.00    -0.456 OA
ATOM     20  C   UNL     1      34.270 -15.184 -22.511  0.00  0.00    +0.139 A 
ATOM     21  C   UNL     1      34.019 -14.953 -21.179  0.00  0.00    +0.013 A 
ATOM     22  C   UNL     1      33.150 -13.832 -21.123  0.00  0.00    +0.033 A 
ATOM     23  C   UNL     1      32.934 -13.456 -22.445  0.00  0.00    +0.145 A 
ATOM     24  C   UNL     1      34.549 -15.722 -20.036  0.00  0.00    +0.034 C 
ATOM     25  C   UNL     1      32.525 -13.093 -20.104  0.00  0.00    +0.003 C 
ATOM     26  C   UNL     1      32.129 -12.386 -22.831  0.00  0.00    +0.037 C 
ATOM     27  C   UNL     1      31.709 -12.011 -20.461  0.00  0.00    +0.000 C 
ATOM     28  C   UNL     1      31.517 -11.665 -21.801  0.00  0.00    +0.003 C 
ENDBRANCH  18  20
ENDBRANCH  15  18
ENDBRANCH  13  16
ENDBRANCH  10  12
BRANCH   2  29
ATOM     29  C   UNL     1      32.954 -23.300 -17.276  0.00  0.00    +0.257 C 
BRANCH  29  30
ATOM     30  O   UNL     1      32.536 -22.741 -16.045  0.00  0.00    -0.251 OA
BRANCH  30  31
ATOM     31  P   UNL     1      32.052 -23.742 -14.869  0.00  0.00    +0.475 P 
ATOM     32  O   UNL     1      30.807 -24.529 -15.161  0.00  0.00    -0.227 OA
BRANCH  31  33
ATOM     33  O   UNL     1      31.963 -22.778 -13.574  0.00  0.00    -0.303 OA
ATOM     34  H   UNL     1      32.858 -22.586 -13.252  0.00  0.00    +0.222 HD
ENDBRANCH  31  33
BRANCH  31  35
ATOM     35  O   UNL     1      33.364 -24.639 -14.567  0.00  0.00    -0.303 OA
ATOM     36  H   UNL     1      33.740 -24.385 -13.710  0.00  0.00    +0.222 HD
ENDBRANCH  31  35
ENDBRANCH  30  31
ENDBRANCH  29  30
ENDBRANCH   2  29
TORSDOF 9
ENDMDL
MODEL 4
REMARK VINA RESULT:     -11.1      7.169     12.979
REMARK  Name = 72696796
REMARK  9 active torsions:
REMARK  status: ('A' for Active; 'I' for Inactive)
REMARK    1  A    between atoms: N_2  and  C_29
REMARK    2  A    between atoms: C_10  and  C_12
REMARK    3  A    between atoms: C_13  and  C_16
REMARK    4  A    between atoms: N_15  and  C_18
REMARK    5  A    between atoms: C_18  and  C_20
REMARK    6  A    between atoms: C_29  and  O_30
REMARK    7  A    between atoms: O_30  and  P_31
REMARK    8  A    between atoms: P_31  and  O_33
REMARK    9  A    between atoms: P_31  and  O_35
REMARK                            x       y       z     vdW  Elec       q    Type
REMARK                         _______ _______ _______ _____ _____    ______ ____
ROOT
ATOM      1  O   UNL     1      32.826  -6.378 -24.279  0.00  0.00    -0.274 OA
ATOM      2  N   UNL     1      32.960  -8.635 -23.716  0.00  0.00    -0.217 N 
ATOM      3  N   UNL     1      32.998 -10.988 -23.216  0.00  0.00    -0.229 NA
ATOM      4  C   UNL     1      33.014  -9.165 -26.516  0.00  0.00    +0.039 C 
ATOM      5  C   UNL     1      32.954 -10.276 -25.516  0.00  0.00    +0.010 C 
ATOM      6  C   UNL     1      32.283  -7.950 -25.982  0.00  0.00    +0.090 C 
ATOM      7  C   UNL     1      32.960 -10.000 -24.147  0.00  0.00    +0.135 C 
ATOM      8  C   UNL     1      32.747  -7.568 -24.592  0.00  0.00    +0.233 C 
ATOM      9  C   UNL     1      32.985 -11.612 -25.928  0.00  0.00    +0.000 C 
ATOM     10  C   UNL     1      33.006 -12.630 -24.985  0.00  0.00    +0.019 C 
ATOM     11  C   UNL     1      33.013 -12.268 -23.652  0.00  0.00    +0.100 C 
ENDROOT
BRANCH  10  12
ATOM     12  C   UNL     1      33.007 -14.025 -25.384  0.00  0.00    +0.006 C 
ATOM     13  C   UNL     1      33.376 -15.064 -24.597  0.00  0.00    +0.058 C 
BRANCH  13  16
ATOM     14  O   UNL     1      32.787 -16.698 -26.196  0.00  0.00    -0.270 OA
ATOM     15  N   UNL     1      34.058 -17.411 -24.385  0.00  0.00    -0.267 N 
ATOM     16  C   UNL     1      33.365 -16.456 -25.135  0.00  0.00    +0.250 C 
ATOM     17  C   UNL     1      34.119 -18.787 -24.861  0.00  0.00    +0.116 C 
BRANCH  15  18
ATOM     18  C   UNL     1      34.780 -17.142 -23.143  0.00  0.00    +0.158 C 
BRANCH  18  20
ATOM     19  O   UNL     1      33.492 -18.719 -21.824  0.00  0.00    -0.456 OA
ATOM     20  C   UNL     1      34.732 -18.311 -22.202  0.00  0.00    +0.139 A 
ATOM     21  C   UNL     1      35.701 -19.090 -21.615  0.00  0.00    +0.013 A 
ATOM     22  C   UNL     1      35.018 -20.047 -20.818  0.00  0.00    +0.033 A 
ATOM     23  C   UNL     1      33.663 -19.776 -20.981  0.00  0.00    +0.145 A 
ATOM     24  C   UNL     1      37.161 -18.956 -21.782  0.00  0.00    +0.034 C 
ATOM     25  C   UNL     1      35.395 -21.109 -19.979  0.00  0.00    +0.003 C 
ATOM     26  C   UNL     1      32.643 -20.495 -20.361  0.00  0.00    +0.037 C 
ATOM     27  C   UNL     1      34.391 -21.852 -19.342  0.00  0.00    +0.000 C 
ATOM     28  C   UNL     1      33.040 -21.547 -19.531  0.00  0.00    +0.003 C 
ENDBRANCH  18  20
ENDBRANCH  15  18
ENDBRANCH  13  16
ENDBRANCH  10  12
BRANCH   2  29
ATOM     29  C   UNL     1      33.201  -8.383 -22.299  0.00  0.00    +0.257 C 
BRANCH  29  30
ATOM     30  O   UNL     1      31.987  -7.984 -21.692  0.00  0.00    -0.251 OA
BRANCH  30  31
ATOM     31  P   UNL     1      32.028  -6.790 -20.600  0.00  0.00    +0.475 P 
ATOM     32  O   UNL     1      30.764  -6.586 -19.817  0.00  0.00    -0.227 OA
BRANCH  31  33
ATOM     33  O   UNL     1      32.510  -5.513 -21.465  0.00  0.00    -0.303 OA
ATOM     34  H   UNL     1      32.040  -4.720 -21.161  0.00  0.00    +0.222 HD
ENDBRANCH  31  33
BRANCH  31  35
ATOM     35  O   UNL     1      33.330  -7.136 -19.704  0.00  0.00    -0.303 OA
ATOM     36  H   UNL     1      33.991  -7.586 -20.253  0.00  0.00    +0.222 HD
ENDBRANCH  31  35
ENDBRANCH  30  31
ENDBRANCH  29  30
ENDBRANCH   2  29
TORSDOF 9
ENDMDL
MODEL 5
REMARK VINA RESULT:     -10.9      7.279     12.366
REMARK  Name = 72696796
REMARK  9 active torsions:
REMARK  status: ('A' for Active; 'I' for Inactive)
REMARK    1  A    between atoms: N_2  and  C_29
REMARK    2  A    between atoms: C_10  and  C_12
REMARK    3  A    between atoms: C_13  and  C_16
REMARK    4  A    between atoms: N_15  and  C_18
REMARK    5  A    between atoms: C_18  and  C_20
REMARK    6  A    between atoms: C_29  and  O_30
REMARK    7  A    between atoms: O_30  and  P_31
REMARK    8  A    between atoms: P_31  and  O_33
REMARK    9  A    between atoms: P_31  and  O_35
REMARK                            x       y       z     vdW  Elec       q    Type
REMARK                         _______ _______ _______ _____ _____    ______ ____
ROOT
ATOM      1  O   UNL     1      31.441  -7.391 -19.742  0.00  0.00    -0.274 OA
ATOM      2  N   UNL     1      32.178  -8.696 -21.526  0.00  0.00    -0.217 N 
ATOM      3  N   UNL     1      32.989 -10.129 -23.281  0.00  0.00    -0.229 NA
ATOM      4  C   UNL     1      30.910 -10.896 -20.230  0.00  0.00    +0.039 C 
ATOM      5  C   UNL     1      31.729 -11.090 -21.467  0.00  0.00    +0.010 C 
ATOM      6  C   UNL     1      31.470  -9.748 -19.415  0.00  0.00    +0.090 C 
ATOM      7  C   UNL     1      32.317  -9.997 -22.107  0.00  0.00    +0.135 C 
ATOM      8  C   UNL     1      31.658  -8.495 -20.244  0.00  0.00    +0.233 C 
ATOM      9  C   UNL     1      31.844 -12.351 -22.059  0.00  0.00    +0.000 C 
ATOM     10  C   UNL     1      32.544 -12.500 -23.248  0.00  0.00    +0.019 C 
ATOM     11  C   UNL     1      33.092 -11.366 -23.814  0.00  0.00    +0.100 C 
ENDROOT
BRANCH  10  12
ATOM     12  C   UNL     1      32.706 -13.802 -23.867  0.00  0.00    +0.006 C 
ATOM     13  C   UNL     1      33.824 -14.564 -23.806  0.00  0.00    +0.058 C 
BRANCH  13  16
ATOM     14  O   UNL     1      33.462 -15.965 -25.672  0.00  0.00    -0.270 OA
ATOM     15  N   UNL     1      34.444 -16.938 -23.803  0.00  0.00    -0.267 N 
ATOM     16  C   UNL     1      33.880 -15.876 -24.516  0.00  0.00    +0.250 C 
ATOM     17  C   UNL     1      34.563 -18.244 -24.440  0.00  0.00    +0.116 C 
BRANCH  15  18
ATOM     18  C   UNL     1      34.978 -16.849 -22.446  0.00  0.00    +0.158 C 
BRANCH  18  20
ATOM     19  O   UNL     1      33.656 -18.561 -21.344  0.00  0.00    -0.456 OA
ATOM     20  C   UNL     1      34.899 -18.165 -21.725  0.00  0.00    +0.139 A 
ATOM     21  C   UNL     1      35.842 -19.094 -21.351  0.00  0.00    +0.013 A 
ATOM     22  C   UNL     1      35.138 -20.137 -20.693  0.00  0.00    +0.033 A 
ATOM     23  C   UNL     1      33.799 -19.761 -20.715  0.00  0.00    +0.145 A 
ATOM     24  C   UNL     1      37.296 -19.018 -21.589  0.00  0.00    +0.034 C 
ATOM     25  C   UNL     1      35.485 -21.354 -20.083  0.00  0.00    +0.003 C 
ATOM     26  C   UNL     1      32.767 -20.519 -20.166  0.00  0.00    +0.037 C 
ATOM     27  C   UNL     1      34.468 -22.139 -19.522  0.00  0.00    +0.000 C 
ATOM     28  C   UNL     1      33.133 -21.726 -19.564  0.00  0.00    +0.003 C 
ENDBRANCH  18  20
ENDBRANCH  15  18
ENDBRANCH  13  16
ENDBRANCH  10  12
BRANCH   2  29
ATOM     29  C   UNL     1      32.598  -7.556 -22.333  0.00  0.00    +0.257 C 
BRANCH  29  30
ATOM     30  O   UNL     1      31.476  -7.050 -23.031  0.00  0.00    -0.251 OA
BRANCH  30  31
ATOM     31  P   UNL     1      31.656  -6.646 -24.588  0.00  0.00    +0.475 P 
ATOM     32  O   UNL     1      32.422  -5.381 -24.844  0.00  0.00    -0.227 OA
BRANCH  31  33
ATOM     33  O   UNL     1      30.140  -6.654 -25.151  0.00  0.00    -0.303 OA
ATOM     34  H   UNL     1      29.555  -7.069 -24.498  0.00  0.00    +0.222 HD
ENDBRANCH  31  33
BRANCH  31  35
ATOM     35  O   UNL     1      32.299  -7.973 -25.256  0.00  0.00    -0.303 OA
ATOM     36  H   UNL     1      32.899  -8.396 -24.622  0.00  0.00    +0.222 HD
ENDBRANCH  31  35
ENDBRANCH  30  31
ENDBRANCH  29  30
ENDBRANCH   2  29
TORSDOF 9
ENDMDL
MODEL 6
REMARK VINA RESULT:     -10.7      1.228      2.031
REMARK  Name = 72696796
REMARK  9 active torsions:
REMARK  status: ('A' for Active; 'I' for Inactive)
REMARK    1  A    between atoms: N_2  and  C_29
REMARK    2  A    between atoms: C_10  and  C_12
REMARK    3  A    between atoms: C_13  and  C_16
REMARK    4  A    between atoms: N_15  and  C_18
REMARK    5  A    between atoms: C_18  and  C_20
REMARK    6  A    between atoms: C_29  and  O_30
REMARK    7  A    between atoms: O_30  and  P_31
REMARK    8  A    between atoms: P_31  and  O_33
REMARK    9  A    between atoms: P_31  and  O_35
REMARK                            x       y       z     vdW  Elec       q    Type
REMARK                         _______ _______ _______ _____ _____    ______ ____
ROOT
ATOM      1  O   UNL     1      31.297 -25.002 -14.064  0.00  0.00    -0.274 OA
ATOM      2  N   UNL     1      31.698 -23.884 -16.069  0.00  0.00    -0.217 N 
ATOM      3  N   UNL     1      32.178 -22.640 -18.071  0.00  0.00    -0.229 NA
ATOM      4  C   UNL     1      34.453 -23.894 -15.338  0.00  0.00    +0.039 C 
ATOM      5  C   UNL     1      33.975 -23.175 -16.560  0.00  0.00    +0.010 C 
ATOM      6  C   UNL     1      33.379 -23.866 -14.270  0.00  0.00    +0.090 C 
ATOM      7  C   UNL     1      32.626 -23.206 -16.921  0.00  0.00    +0.135 C 
ATOM      8  C   UNL     1      32.039 -24.339 -14.793  0.00  0.00    +0.233 C 
ATOM      9  C   UNL     1      34.880 -22.537 -17.414  0.00  0.00    +0.000 C 
ATOM     10  C   UNL     1      34.430 -21.939 -18.583  0.00  0.00    +0.019 C 
ATOM     11  C   UNL     1      33.080 -22.019 -18.864  0.00  0.00    +0.100 C 
ENDROOT
BRANCH  10  12
ATOM     12  C   UNL     1      35.342 -21.243 -19.472  0.00  0.00    +0.006 C 
ATOM     13  C   UNL     1      35.064 -20.097 -20.137  0.00  0.00    +0.058 C 
BRANCH  13  16
ATOM     14  O   UNL     1      37.269 -19.499 -20.734  0.00  0.00    -0.270 OA
ATOM     15  N   UNL     1      35.589 -18.971 -22.252  0.00  0.00    -0.267 N 
ATOM     16  C   UNL     1      36.078 -19.493 -21.051  0.00  0.00    +0.250 C 
ATOM     17  C   UNL     1      36.521 -18.392 -23.212  0.00  0.00    +0.116 C 
BRANCH  15  18
ATOM     18  C   UNL     1      34.188 -18.983 -22.665  0.00  0.00    +0.158 C 
BRANCH  18  20
ATOM     19  O   UNL     1      33.924 -16.622 -23.162  0.00  0.00    -0.456 OA
ATOM     20  C   UNL     1      33.884 -17.890 -23.650  0.00  0.00    +0.139 A 
ATOM     21  C   UNL     1      33.561 -17.887 -24.987  0.00  0.00    +0.013 A 
ATOM     22  C   UNL     1      33.389 -16.527 -25.355  0.00  0.00    +0.033 A 
ATOM     23  C   UNL     1      33.622 -15.790 -24.198  0.00  0.00    +0.145 A 
ATOM     24  C   UNL     1      33.423 -19.067 -25.862  0.00  0.00    +0.034 C 
ATOM     25  C   UNL     1      33.062 -15.838 -26.535  0.00  0.00    +0.003 C 
ATOM     26  C   UNL     1      33.553 -14.400 -24.130  0.00  0.00    +0.037 C 
ATOM     27  C   UNL     1      32.985 -14.439 -26.498  0.00  0.00    +0.000 C 
ATOM     28  C   UNL     1      33.227 -13.735 -25.316  0.00  0.00    +0.003 C 
ENDBRANCH  18  20
ENDBRANCH  15  18
ENDBRANCH  13  16
ENDBRANCH  10  12
BRANCH   2  29
ATOM     29  C   UNL     1      30.350 -24.098 -16.587  0.00  0.00    +0.257 C 
BRANCH  29  30
ATOM     30  O   UNL     1      29.556 -22.969 -16.277  0.00  0.00    -0.251 OA
BRANCH  30  31
ATOM     31  P   UNL     1      27.949 -23.153 -16.210  0.00  0.00    +0.475 P 
ATOM     32  O   UNL     1      27.189 -21.998 -15.627  0.00  0.00    -0.227 OA
BRANCH  31  33
ATOM     33  O   UNL     1      27.769 -24.556 -15.427  0.00  0.00    -0.303 OA
ATOM     34  H   UNL     1      27.111 -24.450 -14.721  0.00  0.00    +0.222 HD
ENDBRANCH  31  33
BRANCH  31  35
ATOM     35  O   UNL     1      27.544 -23.530 -17.731  0.00  0.00    -0.303 OA
ATOM     36  H   UNL     1      28.053 -24.303 -18.020  0.00  0.00    +0.222 HD
ENDBRANCH  31  35
ENDBRANCH  30  31
ENDBRANCH  29  30
ENDBRANCH   2  29
TORSDOF 9
ENDMDL
MODEL 7
REMARK VINA RESULT:     -10.7      7.480     10.492
REMARK  Name = 72696796
REMARK  9 active torsions:
REMARK  status: ('A' for Active; 'I' for Inactive)
REMARK    1  A    between atoms: N_2  and  C_29
REMARK    2  A    between atoms: C_10  and  C_12
REMARK    3  A    between atoms: C_13  and  C_16
REMARK    4  A    between atoms: N_15  and  C_18
REMARK    5  A    between atoms: C_18  and  C_20
REMARK    6  A    between atoms: C_29  and  O_30
REMARK    7  A    between atoms: O_30  and  P_31
REMARK    8  A    between atoms: P_31  and  O_33
REMARK    9  A    between atoms: P_31  and  O_35
REMARK                            x       y       z     vdW  Elec       q    Type
REMARK                         _______ _______ _______ _____ _____    ______ ____
ROOT
ATOM      1  O   UNL     1      35.301 -19.292 -24.334  0.00  0.00    -0.274 OA
ATOM      2  N   UNL     1      34.503 -17.108 -24.184  0.00  0.00    -0.217 N 
ATOM      3  N   UNL     1      33.601 -14.892 -23.930  0.00  0.00    -0.229 NA
ATOM      4  C   UNL     1      35.093 -17.255 -21.399  0.00  0.00    +0.039 C 
ATOM      5  C   UNL     1      34.400 -16.066 -21.985  0.00  0.00    +0.010 C 
ATOM      6  C   UNL     1      34.712 -18.505 -22.167  0.00  0.00    +0.090 C 
ATOM      7  C   UNL     1      34.146 -15.996 -23.357  0.00  0.00    +0.135 C 
ATOM      8  C   UNL     1      34.903 -18.340 -23.660  0.00  0.00    +0.233 C 
ATOM      9  C   UNL     1      34.076 -14.963 -21.189  0.00  0.00    +0.000 C 
ATOM     10  C   UNL     1      33.502 -13.837 -21.762  0.00  0.00    +0.019 C 
ATOM     11  C   UNL     1      33.288 -13.851 -23.127  0.00  0.00    +0.100 C 
ENDROOT
BRANCH  10  12
ATOM     12  C   UNL     1      33.127 -12.690 -20.956  0.00  0.00    +0.006 C 
ATOM     13  C   UNL     1      31.858 -12.274 -20.728  0.00  0.00    +0.058 C 
BRANCH  13  16
ATOM     14  O   UNL     1      31.862 -11.065 -18.700  0.00  0.00    -0.270 OA
ATOM     15  N   UNL     1      31.093  -9.948 -20.588  0.00  0.00    -0.267 N 
ATOM     16  C   UNL     1      31.602 -11.056 -19.905  0.00  0.00    +0.250 C 
ATOM     17  C   UNL     1      30.845  -8.710 -19.858  0.00  0.00    +0.116 C 
BRANCH  15  18
ATOM     18  C   UNL     1      30.809  -9.901 -22.021  0.00  0.00    +0.158 C 
BRANCH  18  20
ATOM     19  O   UNL     1      32.362 -10.677 -23.716  0.00  0.00    -0.456 OA
ATOM     20  C   UNL     1      32.055  -9.692 -22.833  0.00  0.00    +0.139 A 
ATOM     21  C   UNL     1      32.991  -8.685 -22.883  0.00  0.00    +0.013 A 
ATOM     22  C   UNL     1      33.943  -9.070 -23.863  0.00  0.00    +0.033 A 
ATOM     23  C   UNL     1      33.511 -10.302 -24.344  0.00  0.00    +0.145 A 
ATOM     24  C   UNL     1      32.999  -7.449 -22.076  0.00  0.00    +0.034 C 
ATOM     25  C   UNL     1      35.120  -8.516 -24.394  0.00  0.00    +0.003 C 
ATOM     26  C   UNL     1      34.174 -11.031 -25.330  0.00  0.00    +0.037 C 
ATOM     27  C   UNL     1      35.809  -9.226 -25.387  0.00  0.00    +0.000 C 
ATOM     28  C   UNL     1      35.342 -10.461 -25.844  0.00  0.00    +0.003 C 
ENDBRANCH  18  20
ENDBRANCH  15  18
ENDBRANCH  13  16
ENDBRANCH  10  12
BRANCH   2  29
ATOM     29  C   UNL     1      34.442 -16.911 -25.629  0.00  0.00    +0.257 C 
BRANCH  29  30
ATOM     30  O   UNL     1      33.476 -17.793 -26.170  0.00  0.00    -0.251 OA
BRANCH  30  31
ATOM     31  P   UNL     1      32.064 -17.178 -26.666  0.00  0.00    +0.475 P 
ATOM     32  O   UNL     1      31.710 -17.444 -28.100  0.00  0.00    -0.227 OA
BRANCH  31  33
ATOM     33  O   UNL     1      32.180 -15.615 -26.269  0.00  0.00    -0.303 OA
ATOM     34  H   UNL     1      31.634 -15.438 -25.487  0.00  0.00    +0.222 HD
ENDBRANCH  31  33
BRANCH  31  35
ATOM     35  O   UNL     1      30.999 -17.749 -25.589  0.00  0.00    -0.303 OA
ATOM     36  H   UNL     1      30.104 -17.690 -25.956  0.00  0.00    +0.222 HD
ENDBRANCH  31  35
ENDBRANCH  30  31
ENDBRANCH  29  30
ENDBRANCH   2  29
TORSDOF 9
ENDMDL
MODEL 8
REMARK VINA RESULT:     -10.6      8.618     12.840
REMARK  Name = 72696796
REMARK  9 active torsions:
REMARK  status: ('A' for Active; 'I' for Inactive)
REMARK    1  A    between atoms: N_2  and  C_29
REMARK    2  A    between atoms: C_10  and  C_12
REMARK    3  A    between atoms: C_13  and  C_16
REMARK    4  A    between atoms: N_15  and  C_18
REMARK    5  A    between atoms: C_18  and  C_20
REMARK    6  A    between atoms: C_29  and  O_30
REMARK    7  A    between atoms: O_30  and  P_31
REMARK    8  A    between atoms: P_31  and  O_33
REMARK    9  A    between atoms: P_31  and  O_35
REMARK                            x       y       z     vdW  Elec       q    Type
REMARK                         _______ _______ _______ _____ _____    ______ ____
ROOT
ATOM      1  O   UNL     1      32.765 -17.018 -26.686  0.00  0.00    -0.274 OA
ATOM      2  N   UNL     1      33.201 -15.155 -25.356  0.00  0.00    -0.217 N 
ATOM      3  N   UNL     1      33.720 -13.180 -24.083  0.00  0.00    -0.229 NA
ATOM      4  C   UNL     1      32.266 -13.578 -27.539  0.00  0.00    +0.039 C 
ATOM      5  C   UNL     1      32.848 -12.944 -26.315  0.00  0.00    +0.010 C 
ATOM      6  C   UNL     1      32.930 -14.916 -27.792  0.00  0.00    +0.090 C 
ATOM      7  C   UNL     1      33.273 -13.730 -25.242  0.00  0.00    +0.135 C 
ATOM      8  C   UNL     1      32.921 -15.801 -26.563  0.00  0.00    +0.233 C 
ATOM      9  C   UNL     1      32.893 -11.553 -26.183  0.00  0.00    +0.000 C 
ATOM     10  C   UNL     1      33.365 -10.981 -25.010  0.00  0.00    +0.019 C 
ATOM     11  C   UNL     1      33.762 -11.832 -23.998  0.00  0.00    +0.100 C 
ENDROOT
BRANCH  10  12
ATOM     12  C   UNL     1      33.452  -9.540 -24.857  0.00  0.00    +0.006 C 
ATOM     13  C   UNL     1      32.597  -8.643 -25.402  0.00  0.00    +0.058 C 
BRANCH  13  16
ATOM     14  O   UNL     1      33.819  -6.639 -25.660  0.00  0.00    -0.270 OA
ATOM     15  N   UNL     1      31.809  -6.501 -24.500  0.00  0.00    -0.267 N 
ATOM     16  C   UNL     1      32.811  -7.180 -25.199  0.00  0.00    +0.250 C 
ATOM     17  C   UNL     1      31.931  -5.064 -24.288  0.00  0.00    +0.116 C 
BRANCH  15  18
ATOM     18  C   UNL     1      30.590  -7.113 -23.975  0.00  0.00    +0.158 C 
BRANCH  18  20
ATOM     19  O   UNL     1      30.751  -9.271 -22.876  0.00  0.00    -0.456 OA
ATOM     20  C   UNL     1      30.857  -7.923 -22.738  0.00  0.00    +0.139 A 
ATOM     21  C   UNL     1      31.197  -7.590 -21.448  0.00  0.00    +0.013 A 
ATOM     22  C   UNL     1      31.311  -8.813 -20.736  0.00  0.00    +0.033 A 
ATOM     23  C   UNL     1      31.027  -9.815 -21.657  0.00  0.00    +0.145 A 
ATOM     24  C   UNL     1      31.404  -6.230 -20.914  0.00  0.00    +0.034 C 
ATOM     25  C   UNL     1      31.622  -9.182 -19.416  0.00  0.00    +0.003 C 
ATOM     26  C   UNL     1      31.030 -11.176 -21.357  0.00  0.00    +0.037 C 
ATOM     27  C   UNL     1      31.633 -10.544 -19.083  0.00  0.00    +0.000 C 
ATOM     28  C   UNL     1      31.341 -11.521 -20.039  0.00  0.00    +0.003 C 
ENDBRANCH  18  20
ENDBRANCH  15  18
ENDBRANCH  13  16
ENDBRANCH  10  12
BRANCH   2  29
ATOM     29  C   UNL     1      33.429 -15.933 -24.143  0.00  0.00    +0.257 C 
BRANCH  29  30
ATOM     30  O   UNL     1      34.578 -16.738 -24.325  0.00  0.00    -0.251 OA
BRANCH  30  31
ATOM     31  P   UNL     1      34.540 -18.267 -23.794  0.00  0.00    +0.475 P 
ATOM     32  O   UNL     1      33.541 -18.550 -22.710  0.00  0.00    -0.227 OA
BRANCH  31  33
ATOM     33  O   UNL     1      36.080 -18.561 -23.399  0.00  0.00    -0.303 OA
ATOM     34  H   UNL     1      36.164 -19.476 -23.087  0.00  0.00    +0.222 HD
ENDBRANCH  31  33
BRANCH  31  35
ATOM     35  O   UNL     1      34.337 -19.135 -25.144  0.00  0.00    -0.303 OA
ATOM     36  H   UNL     1      34.089 -20.043 -24.911  0.00  0.00    +0.222 HD
ENDBRANCH  31  35
ENDBRANCH  30  31
ENDBRANCH  29  30
ENDBRANCH   2  29
TORSDOF 9
ENDMDL
MODEL 9
REMARK VINA RESULT:     -10.3      9.226     13.042
REMARK  Name = 72696796
REMARK  9 active torsions:
REMARK  status: ('A' for Active; 'I' for Inactive)
REMARK    1  A    between atoms: N_2  and  C_29
REMARK    2  A    between atoms: C_10  and  C_12
REMARK    3  A    between atoms: C_13  and  C_16
REMARK    4  A    between atoms: N_15  and  C_18
REMARK    5  A    between atoms: C_18  and  C_20
REMARK    6  A    between atoms: C_29  and  O_30
REMARK    7  A    between atoms: O_30  and  P_31
REMARK    8  A    between atoms: P_31  and  O_33
REMARK    9  A    between atoms: P_31  and  O_35
REMARK                            x       y       z     vdW  Elec       q    Type
REMARK                         _______ _______ _______ _____ _____    ______ ____
ROOT
ATOM      1  O   UNL     1      33.942 -16.418 -24.032  0.00  0.00    -0.274 OA
ATOM      2  N   UNL     1      33.411 -14.557 -25.330  0.00  0.00    -0.217 N 
ATOM      3  N   UNL     1      32.785 -12.595 -26.574  0.00  0.00    -0.229 NA
ATOM      4  C   UNL     1      34.078 -12.978 -23.053  0.00  0.00    +0.039 C 
ATOM      5  C   UNL     1      33.509 -12.357 -24.289  0.00  0.00    +0.010 C 
ATOM      6  C   UNL     1      33.526 -14.378 -22.877  0.00  0.00    +0.090 C 
ATOM      7  C   UNL     1      33.217 -13.141 -25.407  0.00  0.00    +0.135 C 
ATOM      8  C   UNL     1      33.682 -15.216 -24.129  0.00  0.00    +0.233 C 
ATOM      9  C   UNL     1      33.345 -10.972 -24.384  0.00  0.00    +0.000 C 
ATOM     10  C   UNL     1      32.888 -10.405 -25.565  0.00  0.00    +0.019 C 
ATOM     11  C   UNL     1      32.626 -11.253 -26.622  0.00  0.00    +0.100 C 
ENDROOT
BRANCH  10  12
ATOM     12  C   UNL     1      32.679  -8.974 -25.681  0.00  0.00    +0.006 C 
ATOM     13  C   UNL     1      32.842  -8.075 -24.681  0.00  0.00    +0.058 C 
BRANCH  13  16
ATOM     14  O   UNL     1      33.441  -5.905 -25.393  0.00  0.00    -0.270 OA
ATOM     15  N   UNL     1      31.277  -6.188 -24.593  0.00  0.00    -0.267 N 
ATOM     16  C   UNL     1      32.563  -6.628 -24.916  0.00  0.00    +0.250 C 
ATOM     17  C   UNL     1      30.918  -4.794 -24.823  0.00  0.00    +0.116 C 
BRANCH  15  18
ATOM     18  C   UNL     1      30.209  -7.032 -24.060  0.00  0.00    +0.158 C 
BRANCH  18  20
ATOM     19  O   UNL     1      30.534  -9.114 -22.856  0.00  0.00    -0.456 OA
ATOM     20  C   UNL     1      30.638  -7.760 -22.817  0.00  0.00    +0.139 A 
ATOM     21  C   UNL     1      31.130  -7.343 -21.602  0.00  0.00    +0.013 A 
ATOM     22  C   UNL     1      31.347  -8.517 -20.834  0.00  0.00    +0.033 A 
ATOM     23  C   UNL     1      30.965  -9.578 -21.649  0.00  0.00    +0.145 A 
ATOM     24  C   UNL     1      31.381  -5.951 -21.185  0.00  0.00    +0.034 C 
ATOM     25  C   UNL     1      31.823  -8.799 -19.542  0.00  0.00    +0.003 C 
ATOM     26  C   UNL     1      31.023 -10.917 -21.267  0.00  0.00    +0.037 C 
ATOM     27  C   UNL     1      31.893 -10.137 -19.129  0.00  0.00    +0.000 C 
ATOM     28  C   UNL     1      31.499 -11.175 -19.978  0.00  0.00    +0.003 C 
ENDBRANCH  18  20
ENDBRANCH  15  18
ENDBRANCH  13  16
ENDBRANCH  10  12
BRANCH   2  29
ATOM     29  C   UNL     1      33.322 -15.311 -26.576  0.00  0.00    +0.257 C 
BRANCH  29  30
ATOM     30  O   UNL     1      32.024 -15.864 -26.685  0.00  0.00    -0.251 OA
BRANCH  30  31
ATOM     31  P   UNL     1      31.866 -17.474 -26.642  0.00  0.00    +0.475 P 
ATOM     32  O   UNL     1      30.952 -18.006 -25.577  0.00  0.00    -0.227 OA
BRANCH  31  33
ATOM     33  O   UNL     1      33.394 -17.994 -26.554  0.00  0.00    -0.303 OA
ATOM     34  H   UNL     1      33.686 -18.292 -27.430  0.00  0.00    +0.222 HD
ENDBRANCH  31  33
BRANCH  31  35
ATOM     35  O   UNL     1      31.437 -17.857 -28.154  0.00  0.00    -0.303 OA
ATOM     36  H   UNL     1      32.144 -17.600 -28.766  0.00  0.00    +0.222 HD
ENDBRANCH  31  35
ENDBRANCH  30  31
ENDBRANCH  29  30
ENDBRANCH   2  29
TORSDOF 9
ENDMDL
