MODEL 1
REMARK VINA RESULT:     -12.9      0.000      0.000
REMARK  Name = 54726191
REMARK  4 active torsions:
REMARK  status: ('A' for Active; 'I' for Inactive)
REMARK    1  A    between atoms: C_15  and  O_31
REMARK    2  A    between atoms: C_16  and  C_20
REMARK    3  A    between atoms: N_19  and  C_22
REMARK    4  A    between atoms: C_22  and  C_25
REMARK                            x       y       z     vdW  Elec       q    Type
REMARK                         _______ _______ _______ _____ _____    ______ ____
ROOT
ATOM      1  O   UNL     1      33.207 -11.482 -24.261  0.00  0.00    -0.336 OA
ATOM      2  O   UNL     1      32.801 -15.249 -27.040  0.00  0.00    -0.268 OA
ATOM      3  O   UNL     1      34.972 -18.868 -24.194  0.00  0.00    -0.283 OA
ATOM      4  N   UNL     1      33.221 -13.349 -25.784  0.00  0.00    -0.253 N 
ATOM      5  N   UNL     1      33.892 -15.006 -23.607  0.00  0.00    -0.275 N 
ATOM      6  C   UNL     1      33.770 -12.767 -24.555  0.00  0.00    +0.215 C 
ATOM      7  C   UNL     1      33.010 -12.458 -26.939  0.00  0.00    +0.080 C 
ATOM      8  C   UNL     1      32.497 -11.085 -26.502  0.00  0.00    +0.052 C 
ATOM      9  C   UNL     1      33.440 -13.645 -23.359  0.00  0.00    +0.147 C 
ATOM     10  C   UNL     1      33.307 -10.557 -25.335  0.00  0.00    +0.146 C 
ATOM     11  C   UNL     1      33.209 -14.735 -25.998  0.00  0.00    +0.267 C 
ATOM     12  C   UNL     1      33.750 -15.584 -24.871  0.00  0.00    +0.143 C 
ATOM     13  C   UNL     1      34.293 -12.343 -27.771  0.00  0.00    +0.022 C 
ATOM     14  C   UNL     1      34.378 -15.783 -22.564  0.00  0.00    +0.074 C 
ATOM     15  C   UNL     1      34.095 -16.865 -25.128  0.00  0.00    +0.191 C 
ATOM     16  C   UNL     1      34.756 -17.062 -22.673  0.00  0.00    +0.110 C 
ATOM     17  C   UNL     1      34.639 -17.702 -24.010  0.00  0.00    +0.236 C 
ENDROOT
BRANCH  16  20
ATOM     18  O   UNL     1      35.302 -17.182 -20.392  0.00  0.00    -0.270 OA
ATOM     19  N   UNL     1      35.640 -19.058 -21.735  0.00  0.00    -0.297 N 
ATOM     20  C   UNL     1      35.253 -17.751 -21.483  0.00  0.00    +0.251 C 
ATOM     21  H   UNL     1      35.553 -19.401 -22.654  0.00  0.00    +0.150 HD
BRANCH  19  22
ATOM     22  C   UNL     1      36.166 -19.943 -20.721  0.00  0.00    +0.119 C 
BRANCH  22  25
ATOM     23  F   UNL     1      36.682 -21.858 -18.703  0.00  0.00    -0.204 F 
ATOM     24  F   UNL     1      32.083 -22.777 -18.075  0.00  0.00    -0.204 F 
ATOM     25  C   UNL     1      35.079 -20.699 -20.015  0.00  0.00    +0.025 C 
ATOM     26  C   UNL     1      35.403 -21.631 -19.028  0.00  0.00    +0.140 C 
ATOM     27  C   UNL     1      33.744 -20.469 -20.346  0.00  0.00    +0.002 C 
ATOM     28  C   UNL     1      34.390 -22.332 -18.373  0.00  0.00    +0.059 C 
ATOM     29  C   UNL     1      32.732 -21.171 -19.690  0.00  0.00    +0.030 C 
ATOM     30  C   UNL     1      33.054 -22.103 -18.704  0.00  0.00    +0.142 C 
ENDBRANCH  22  25
ENDBRANCH  19  22
ENDBRANCH  16  20
BRANCH  15  31
ATOM     31  O   UNL     1      33.994 -17.460 -26.366  0.00  0.00    -0.502 OA
ATOM     32  H   UNL     1      33.296 -18.060 -26.542  0.00  0.00    +0.292 HD
ENDBRANCH  15  31
TORSDOF 4
ENDMDL
MODEL 2
REMARK VINA RESULT:     -12.3      4.275     10.181
REMARK  Name = 54726191
REMARK  4 active torsions:
REMARK  status: ('A' for Active; 'I' for Inactive)
REMARK    1  A    between atoms: C_15  and  O_31
REMARK    2  A    between atoms: C_16  and  C_20
REMARK    3  A    between atoms: N_19  and  C_22
REMARK    4  A    between atoms: C_22  and  C_25
REMARK                            x       y       z     vdW  Elec       q    Type
REMARK                         _______ _______ _______ _____ _____    ______ ____
ROOT
ATOM      1  O   UNL     1      37.064 -22.977 -15.443  0.00  0.00    -0.336 OA
ATOM      2  O   UNL     1      33.088 -23.768 -17.815  0.00  0.00    -0.268 OA
ATOM      3  O   UNL     1      33.238 -20.093 -21.335  0.00  0.00    -0.283 OA
ATOM      4  N   UNL     1      34.912 -23.229 -16.496  0.00  0.00    -0.253 N 
ATOM      5  N   UNL     1      35.807 -21.506 -18.536  0.00  0.00    -0.275 N 
ATOM      6  C   UNL     1      36.072 -22.359 -16.272  0.00  0.00    +0.215 C 
ATOM      7  C   UNL     1      34.404 -24.014 -15.356  0.00  0.00    +0.080 C 
ATOM      8  C   UNL     1      35.545 -24.546 -14.488  0.00  0.00    +0.052 C 
ATOM      9  C   UNL     1      36.767 -22.053 -17.588  0.00  0.00    +0.147 C 
ATOM     10  C   UNL     1      36.557 -23.454 -14.204  0.00  0.00    +0.146 C 
ATOM     11  C   UNL     1      34.096 -23.087 -17.626  0.00  0.00    +0.267 C 
ATOM     12  C   UNL     1      34.510 -22.020 -18.613  0.00  0.00    +0.143 C 
ATOM     13  C   UNL     1      33.408 -23.186 -14.535  0.00  0.00    +0.022 C 
ATOM     14  C   UNL     1      36.200 -20.533 -19.446  0.00  0.00    +0.074 C 
ATOM     15  C   UNL     1      33.609 -21.587 -19.523  0.00  0.00    +0.191 C 
ATOM     16  C   UNL     1      35.415 -20.015 -20.399  0.00  0.00    +0.110 C 
ATOM     17  C   UNL     1      34.022 -20.523 -20.494  0.00  0.00    +0.236 C 
ENDROOT
BRANCH  16  20
ATOM     18  O   UNL     1      37.184 -18.896 -21.466  0.00  0.00    -0.270 OA
ATOM     19  N   UNL     1      34.997 -18.187 -21.858  0.00  0.00    -0.297 N 
ATOM     20  C   UNL     1      35.969 -18.991 -21.284  0.00  0.00    +0.251 C 
ATOM     21  H   UNL     1      34.055 -18.363 -21.634  0.00  0.00    +0.150 HD
BRANCH  19  22
ATOM     22  C   UNL     1      35.294 -17.104 -22.768  0.00  0.00    +0.119 C 
BRANCH  22  25
ATOM     23  F   UNL     1      34.164 -14.759 -23.875  0.00  0.00    -0.204 F 
ATOM     24  F   UNL     1      31.933 -17.163 -27.285  0.00  0.00    -0.204 F 
ATOM     25  C   UNL     1      34.398 -17.119 -23.972  0.00  0.00    +0.025 C 
ATOM     26  C   UNL     1      33.874 -15.924 -24.467  0.00  0.00    +0.140 C 
ATOM     27  C   UNL     1      34.091 -18.328 -24.596  0.00  0.00    +0.002 C 
ATOM     28  C   UNL     1      33.041 -15.940 -25.587  0.00  0.00    +0.059 C 
ATOM     29  C   UNL     1      33.258 -18.343 -25.715  0.00  0.00    +0.030 C 
ATOM     30  C   UNL     1      32.732 -17.149 -26.211  0.00  0.00    +0.142 C 
ENDBRANCH  22  25
ENDBRANCH  19  22
ENDBRANCH  16  20
BRANCH  15  31
ATOM     31  O   UNL     1      32.315 -22.051 -19.611  0.00  0.00    -0.502 OA
ATOM     32  H   UNL     1      31.864 -22.330 -18.839  0.00  0.00    +0.292 HD
ENDBRANCH  15  31
TORSDOF 4
ENDMDL
MODEL 3
REMARK VINA RESULT:     -12.0      4.192     10.193
REMARK  Name = 54726191
REMARK  4 active torsions:
REMARK  status: ('A' for Active; 'I' for Inactive)
REMARK    1  A    between atoms: C_15  and  O_31
REMARK    2  A    between atoms: C_16  and  C_20
REMARK    3  A    between atoms: N_19  and  C_22
REMARK    4  A    between atoms: C_22  and  C_25
REMARK                            x       y       z     vdW  Elec       q    Type
REMARK                         _______ _______ _______ _____ _____    ______ ____
ROOT
ATOM      1  O   UNL     1      37.056 -23.006 -15.436  0.00  0.00    -0.336 OA
ATOM      2  O   UNL     1      33.047 -23.681 -17.791  0.00  0.00    -0.268 OA
ATOM      3  O   UNL     1      33.320 -20.054 -21.352  0.00  0.00    -0.283 OA
ATOM      4  N   UNL     1      34.893 -23.193 -16.481  0.00  0.00    -0.253 N 
ATOM      5  N   UNL     1      35.844 -21.526 -18.544  0.00  0.00    -0.275 N 
ATOM      6  C   UNL     1      36.084 -22.363 -16.270  0.00  0.00    +0.215 C 
ATOM      7  C   UNL     1      34.360 -23.946 -15.332  0.00  0.00    +0.080 C 
ATOM      8  C   UNL     1      35.484 -24.509 -14.460  0.00  0.00    +0.052 C 
ATOM      9  C   UNL     1      36.785 -22.096 -17.591  0.00  0.00    +0.147 C 
ATOM     10  C   UNL     1      36.535 -23.450 -14.191  0.00  0.00    +0.146 C 
ATOM     11  C   UNL     1      34.079 -23.034 -17.612  0.00  0.00    +0.267 C 
ATOM     12  C   UNL     1      34.529 -21.994 -18.612  0.00  0.00    +0.143 C 
ATOM     13  C   UNL     1      33.397 -23.074 -14.518  0.00  0.00    +0.022 C 
ATOM     14  C   UNL     1      36.268 -20.579 -19.466  0.00  0.00    +0.074 C 
ATOM     15  C   UNL     1      33.641 -21.540 -19.524  0.00  0.00    +0.191 C 
ATOM     16  C   UNL     1      35.500 -20.044 -20.422  0.00  0.00    +0.110 C 
ATOM     17  C   UNL     1      34.090 -20.503 -20.509  0.00  0.00    +0.236 C 
ENDROOT
BRANCH  16  20
ATOM     18  O   UNL     1      37.305 -18.860 -21.350  0.00  0.00    -0.270 OA
ATOM     19  N   UNL     1      35.144 -18.390 -22.090  0.00  0.00    -0.297 N 
ATOM     20  C   UNL     1      36.088 -19.050 -21.320  0.00  0.00    +0.251 C 
ATOM     21  H   UNL     1      34.197 -18.632 -21.975  0.00  0.00    +0.150 HD
BRANCH  19  22
ATOM     22  C   UNL     1      35.477 -17.363 -23.052  0.00  0.00    +0.119 C 
BRANCH  22  25
ATOM     23  F   UNL     1      34.240 -15.856 -25.102  0.00  0.00    -0.204 F 
ATOM     24  F   UNL     1      32.691 -12.571 -22.070  0.00  0.00    -0.204 F 
ATOM     25  C   UNL     1      34.735 -16.086 -22.792  0.00  0.00    +0.025 C 
ATOM     26  C   UNL     1      34.147 -15.391 -23.849  0.00  0.00    +0.140 C 
ATOM     27  C   UNL     1      34.632 -15.594 -21.490  0.00  0.00    +0.002 C 
ATOM     28  C   UNL     1      33.456 -14.203 -23.605  0.00  0.00    +0.059 C 
ATOM     29  C   UNL     1      33.941 -14.406 -21.247  0.00  0.00    +0.030 C 
ATOM     30  C   UNL     1      33.354 -13.710 -22.303  0.00  0.00    +0.142 C 
ENDBRANCH  22  25
ENDBRANCH  19  22
ENDBRANCH  16  20
BRANCH  15  31
ATOM     31  O   UNL     1      32.332 -21.958 -19.604  0.00  0.00    -0.502 OA
ATOM     32  H   UNL     1      31.744 -21.545 -20.205  0.00  0.00    +0.292 HD
ENDBRANCH  15  31
TORSDOF 4
ENDMDL
MODEL 4
REMARK VINA RESULT:     -11.6      6.184     12.182
REMARK  Name = 54726191
REMARK  4 active torsions:
REMARK  status: ('A' for Active; 'I' for Inactive)
REMARK    1  A    between atoms: C_15  and  O_31
REMARK    2  A    between atoms: C_16  and  C_20
REMARK    3  A    between atoms: N_19  and  C_22
REMARK    4  A    between atoms: C_22  and  C_25
REMARK                            x       y       z     vdW  Elec       q    Type
REMARK                         _______ _______ _______ _____ _____    ______ ____
ROOT
ATOM      1  O   UNL     1      37.605 -24.480 -13.638  0.00  0.00    -0.336 OA
ATOM      2  O   UNL     1      32.996 -24.790 -12.785  0.00  0.00    -0.268 OA
ATOM      3  O   UNL     1      31.026 -22.769 -17.022  0.00  0.00    -0.283 OA
ATOM      4  N   UNL     1      35.259 -24.412 -13.093  0.00  0.00    -0.253 N 
ATOM      5  N   UNL     1      34.738 -23.847 -15.804  0.00  0.00    -0.275 N 
ATOM      6  C   UNL     1      36.330 -23.913 -13.963  0.00  0.00    +0.215 C 
ATOM      7  C   UNL     1      35.549 -24.568 -11.657  0.00  0.00    +0.080 C 
ATOM      8  C   UNL     1      36.966 -25.090 -11.423  0.00  0.00    +0.052 C 
ATOM      9  C   UNL     1      36.063 -24.301 -15.408  0.00  0.00    +0.147 C 
ATOM     10  C   UNL     1      37.965 -24.328 -12.271  0.00  0.00    +0.146 C 
ATOM     11  C   UNL     1      33.921 -24.425 -13.511  0.00  0.00    +0.267 C 
ATOM     12  C   UNL     1      33.661 -23.938 -14.918  0.00  0.00    +0.143 C 
ATOM     13  C   UNL     1      35.303 -23.249 -10.914  0.00  0.00    +0.022 C 
ATOM     14  C   UNL     1      34.506 -23.412 -17.101  0.00  0.00    +0.074 C 
ATOM     15  C   UNL     1      32.402 -23.591 -15.265  0.00  0.00    +0.191 C 
ATOM     16  C   UNL     1      33.313 -23.039 -17.582  0.00  0.00    +0.110 C 
ATOM     17  C   UNL     1      32.150 -23.102 -16.660  0.00  0.00    +0.236 C 
ENDROOT
BRANCH  16  20
ATOM     18  O   UNL     1      33.432 -23.379 -19.903  0.00  0.00    -0.270 OA
ATOM     19  N   UNL     1      32.893 -21.258 -19.097  0.00  0.00    -0.297 N 
ATOM     20  C   UNL     1      33.224 -22.598 -18.973  0.00  0.00    +0.251 C 
ATOM     21  H   UNL     1      32.751 -20.735 -18.276  0.00  0.00    +0.150 HD
BRANCH  19  22
ATOM     22  C   UNL     1      32.746 -20.588 -20.370  0.00  0.00    +0.119 C 
BRANCH  22  25
ATOM     23  F   UNL     1      32.965 -19.050 -22.734  0.00  0.00    -0.204 F 
ATOM     24  F   UNL     1      37.647 -18.558 -22.257  0.00  0.00    -0.204 F 
ATOM     25  C   UNL     1      34.052 -20.047 -20.874  0.00  0.00    +0.025 C 
ATOM     26  C   UNL     1      34.090 -19.294 -22.049  0.00  0.00    +0.140 C 
ATOM     27  C   UNL     1      35.228 -20.295 -20.166  0.00  0.00    +0.002 C 
ATOM     28  C   UNL     1      35.305 -18.792 -22.516  0.00  0.00    +0.059 C 
ATOM     29  C   UNL     1      36.443 -19.792 -20.634  0.00  0.00    +0.030 C 
ATOM     30  C   UNL     1      36.482 -19.041 -21.809  0.00  0.00    +0.142 C 
ENDBRANCH  22  25
ENDBRANCH  19  22
ENDBRANCH  16  20
BRANCH  15  31
ATOM     31  O   UNL     1      31.322 -23.642 -14.413  0.00  0.00    -0.502 OA
ATOM     32  H   UNL     1      30.974 -22.851 -14.050  0.00  0.00    +0.292 HD
ENDBRANCH  15  31
TORSDOF 4
ENDMDL
MODEL 5
REMARK VINA RESULT:     -10.9      3.366      5.781
REMARK  Name = 54726191
REMARK  4 active torsions:
REMARK  status: ('A' for Active; 'I' for Inactive)
REMARK    1  A    between atoms: C_15  and  O_31
REMARK    2  A    between atoms: C_16  and  C_20
REMARK    3  A    between atoms: N_19  and  C_22
REMARK    4  A    between atoms: C_22  and  C_25
REMARK                            x       y       z     vdW  Elec       q    Type
REMARK                         _______ _______ _______ _____ _____    ______ ____
ROOT
ATOM      1  O   UNL     1      31.265 -10.984 -19.671  0.00  0.00    -0.336 OA
ATOM      2  O   UNL     1      31.842  -8.527 -23.633  0.00  0.00    -0.268 OA
ATOM      3  O   UNL     1      33.824 -12.036 -26.743  0.00  0.00    -0.283 OA
ATOM      4  N   UNL     1      31.789  -9.663 -21.616  0.00  0.00    -0.253 N 
ATOM      5  N   UNL     1      32.212 -12.066 -23.024  0.00  0.00    -0.275 N 
ATOM      6  C   UNL     1      32.019 -10.915 -20.887  0.00  0.00    +0.215 C 
ATOM      7  C   UNL     1      31.704  -8.414 -20.838  0.00  0.00    +0.080 C 
ATOM      8  C   UNL     1      30.961  -8.624 -19.519  0.00  0.00    +0.052 C 
ATOM      9  C   UNL     1      31.567 -12.103 -21.720  0.00  0.00    +0.147 C 
ATOM     10  C   UNL     1      31.463  -9.869 -18.813  0.00  0.00    +0.146 C 
ATOM     11  C   UNL     1      31.978  -9.575 -23.003  0.00  0.00    +0.267 C 
ATOM     12  C   UNL     1      32.386 -10.854 -23.698  0.00  0.00    +0.143 C 
ATOM     13  C   UNL     1      33.102  -7.825 -20.612  0.00  0.00    +0.022 C 
ATOM     14  C   UNL     1      32.574 -13.246 -23.660  0.00  0.00    +0.074 C 
ATOM     15  C   UNL     1      32.919 -10.780 -24.938  0.00  0.00    +0.191 C 
ATOM     16  C   UNL     1      33.110 -13.323 -24.884  0.00  0.00    +0.110 C 
ATOM     17  C   UNL     1      33.329 -12.050 -25.620  0.00  0.00    +0.236 C 
ENDROOT
BRANCH  16  20
ATOM     18  O   UNL     1      33.138 -14.954 -26.574  0.00  0.00    -0.270 OA
ATOM     19  N   UNL     1      34.114 -15.444 -24.514  0.00  0.00    -0.297 N 
ATOM     20  C   UNL     1      33.444 -14.641 -25.423  0.00  0.00    +0.251 C 
ATOM     21  H   UNL     1      34.302 -15.079 -23.619  0.00  0.00    +0.150 HD
BRANCH  19  22
ATOM     22  C   UNL     1      34.550 -16.790 -24.810  0.00  0.00    +0.119 C 
BRANCH  22  25
ATOM     23  F   UNL     1      34.307 -19.609 -24.829  0.00  0.00    -0.204 F 
ATOM     24  F   UNL     1      34.999 -19.931 -20.159  0.00  0.00    -0.204 F 
ATOM     25  C   UNL     1      34.669 -17.628 -23.571  0.00  0.00    +0.025 C 
ATOM     26  C   UNL     1      34.539 -19.015 -23.650  0.00  0.00    +0.140 C 
ATOM     27  C   UNL     1      34.912 -17.019 -22.340  0.00  0.00    +0.002 C 
ATOM     28  C   UNL     1      34.650 -19.793 -22.497  0.00  0.00    +0.059 C 
ATOM     29  C   UNL     1      35.023 -17.797 -21.187  0.00  0.00    +0.030 C 
ATOM     30  C   UNL     1      34.892 -19.184 -21.265  0.00  0.00    +0.142 C 
ENDBRANCH  22  25
ENDBRANCH  19  22
ENDBRANCH  16  20
BRANCH  15  31
ATOM     31  O   UNL     1      33.129  -9.604 -25.621  0.00  0.00    -0.502 OA
ATOM     32  H   UNL     1      33.895  -9.499 -26.149  0.00  0.00    +0.292 HD
ENDBRANCH  15  31
TORSDOF 4
ENDMDL
MODEL 6
REMARK VINA RESULT:     -10.9      4.962      7.821
REMARK  Name = 54726191
REMARK  4 active torsions:
REMARK  status: ('A' for Active; 'I' for Inactive)
REMARK    1  A    between atoms: C_15  and  O_31
REMARK    2  A    between atoms: C_16  and  C_20
REMARK    3  A    between atoms: N_19  and  C_22
REMARK    4  A    between atoms: C_22  and  C_25
REMARK                            x       y       z     vdW  Elec       q    Type
REMARK                         _______ _______ _______ _____ _____    ______ ____
ROOT
ATOM      1  O   UNL     1      32.674  -5.459 -25.013  0.00  0.00    -0.336 OA
ATOM      2  O   UNL     1      32.605  -8.483 -21.420  0.00  0.00    -0.268 OA
ATOM      3  O   UNL     1      32.497 -12.960 -23.842  0.00  0.00    -0.283 OA
ATOM      4  N   UNL     1      32.388  -6.993 -23.178  0.00  0.00    -0.253 N 
ATOM      5  N   UNL     1      32.983  -9.094 -24.958  0.00  0.00    -0.275 N 
ATOM      6  C   UNL     1      32.290  -6.783 -24.627  0.00  0.00    +0.215 C 
ATOM      7  C   UNL     1      31.941  -5.906 -22.289  0.00  0.00    +0.080 C 
ATOM      8  C   UNL     1      32.323  -4.533 -22.845  0.00  0.00    +0.052 C 
ATOM      9  C   UNL     1      33.235  -7.718 -25.363  0.00  0.00    +0.147 C 
ATOM     10  C   UNL     1      31.976  -4.435 -24.317  0.00  0.00    +0.146 C 
ATOM     11  C   UNL     1      32.570  -8.271 -22.632  0.00  0.00    +0.267 C 
ATOM     12  C   UNL     1      32.702  -9.403 -23.624  0.00  0.00    +0.143 C 
ATOM     13  C   UNL     1      30.433  -6.010 -22.028  0.00  0.00    +0.022 C 
ATOM     14  C   UNL     1      33.118 -10.128 -25.873  0.00  0.00    +0.074 C 
ATOM     15  C   UNL     1      32.528 -10.672 -23.193  0.00  0.00    +0.191 C 
ATOM     16  C   UNL     1      32.974 -11.428 -25.587  0.00  0.00    +0.110 C 
ATOM     17  C   UNL     1      32.652 -11.791 -24.182  0.00  0.00    +0.236 C 
ENDROOT
BRANCH  16  20
ATOM     18  O   UNL     1      34.016 -12.267 -27.518  0.00  0.00    -0.270 OA
ATOM     19  N   UNL     1      32.236 -13.453 -26.588  0.00  0.00    -0.297 N 
ATOM     20  C   UNL     1      33.142 -12.406 -26.661  0.00  0.00    +0.251 C 
ATOM     21  H   UNL     1      31.582 -13.452 -25.853  0.00  0.00    +0.150 HD
BRANCH  19  22
ATOM     22  C   UNL     1      32.200 -14.543 -27.537  0.00  0.00    +0.119 C 
BRANCH  22  25
ATOM     23  F   UNL     1      30.510 -16.811 -27.501  0.00  0.00    -0.204 F 
ATOM     24  F   UNL     1      33.694 -19.434 -25.183  0.00  0.00    -0.204 F 
ATOM     25  C   UNL     1      32.597 -15.847 -26.909  0.00  0.00    +0.025 C 
ATOM     26  C   UNL     1      31.715 -16.928 -26.927  0.00  0.00    +0.140 C 
ATOM     27  C   UNL     1      33.850 -15.978 -26.310  0.00  0.00    +0.002 C 
ATOM     28  C   UNL     1      32.086 -18.140 -26.343  0.00  0.00    +0.059 C 
ATOM     29  C   UNL     1      34.220 -17.190 -25.726  0.00  0.00    +0.030 C 
ATOM     30  C   UNL     1      33.338 -18.271 -25.742  0.00  0.00    +0.142 C 
ENDBRANCH  22  25
ENDBRANCH  19  22
ENDBRANCH  16  20
BRANCH  15  31
ATOM     31  O   UNL     1      32.224 -11.013 -21.894  0.00  0.00    -0.502 OA
ATOM     32  H   UNL     1      32.256 -10.363 -21.219  0.00  0.00    +0.292 HD
ENDBRANCH  15  31
TORSDOF 4
ENDMDL
MODEL 7
REMARK VINA RESULT:     -10.7      5.513     10.381
REMARK  Name = 54726191
REMARK  4 active torsions:
REMARK  status: ('A' for Active; 'I' for Inactive)
REMARK    1  A    between atoms: C_15  and  O_31
REMARK    2  A    between atoms: C_16  and  C_20
REMARK    3  A    between atoms: N_19  and  C_22
REMARK    4  A    between atoms: C_22  and  C_25
REMARK                            x       y       z     vdW  Elec       q    Type
REMARK                         _______ _______ _______ _____ _____    ______ ____
ROOT
ATOM      1  O   UNL     1      34.186 -17.251 -23.580  0.00  0.00    -0.336 OA
ATOM      2  O   UNL     1      33.130 -15.623 -27.858  0.00  0.00    -0.268 OA
ATOM      3  O   UNL     1      32.114 -10.732 -26.879  0.00  0.00    -0.283 OA
ATOM      4  N   UNL     1      33.406 -16.482 -25.726  0.00  0.00    -0.253 N 
ATOM      5  N   UNL     1      33.601 -13.845 -24.751  0.00  0.00    -0.275 N 
ATOM      6  C   UNL     1      33.465 -16.230 -24.281  0.00  0.00    +0.215 C 
ATOM      7  C   UNL     1      33.174 -17.864 -26.180  0.00  0.00    +0.080 C 
ATOM      8  C   UNL     1      33.915 -18.875 -25.304  0.00  0.00    +0.052 C 
ATOM      9  C   UNL     1      34.206 -14.934 -23.999  0.00  0.00    +0.147 C 
ATOM     10  C   UNL     1      33.708 -18.565 -23.834  0.00  0.00    +0.146 C 
ATOM     11  C   UNL     1      33.234 -15.438 -26.646  0.00  0.00    +0.267 C 
ATOM     12  C   UNL     1      33.159 -14.046 -26.062  0.00  0.00    +0.143 C 
ATOM     13  C   UNL     1      31.671 -18.164 -26.240  0.00  0.00    +0.022 C 
ATOM     14  C   UNL     1      33.546 -12.567 -24.212  0.00  0.00    +0.074 C 
ATOM     15  C   UNL     1      32.652 -13.048 -26.820  0.00  0.00    +0.191 C 
ATOM     16  C   UNL     1      33.071 -11.488 -24.846  0.00  0.00    +0.110 C 
ATOM     17  C   UNL     1      32.572 -11.670 -26.234  0.00  0.00    +0.236 C 
ENDROOT
BRANCH  16  20
ATOM     18  O   UNL     1      32.618 -10.102 -23.005  0.00  0.00    -0.270 OA
ATOM     19  N   UNL     1      33.626  -9.178 -24.894  0.00  0.00    -0.297 N 
ATOM     20  C   UNL     1      33.073 -10.205 -24.145  0.00  0.00    +0.251 C 
ATOM     21  H   UNL     1      33.957  -9.387 -25.797  0.00  0.00    +0.150 HD
BRANCH  19  22
ATOM     22  C   UNL     1      33.740  -7.818 -24.420  0.00  0.00    +0.119 C 
BRANCH  22  25
ATOM     23  F   UNL     1      32.644  -5.837 -22.723  0.00  0.00    -0.204 F 
ATOM     24  F   UNL     1      29.263  -4.711 -25.836  0.00  0.00    -0.204 F 
ATOM     25  C   UNL     1      32.547  -6.989 -24.796  0.00  0.00    +0.025 C 
ATOM     26  C   UNL     1      32.056  -6.028 -23.911  0.00  0.00    +0.140 C 
ATOM     27  C   UNL     1      31.929  -7.180 -26.032  0.00  0.00    +0.002 C 
ATOM     28  C   UNL     1      30.947  -5.259 -24.263  0.00  0.00    +0.059 C 
ATOM     29  C   UNL     1      30.819  -6.410 -26.383  0.00  0.00    +0.030 C 
ATOM     30  C   UNL     1      30.328  -5.450 -25.498  0.00  0.00    +0.142 C 
ENDBRANCH  22  25
ENDBRANCH  19  22
ENDBRANCH  16  20
BRANCH  15  31
ATOM     31  O   UNL     1      32.183 -13.213 -28.104  0.00  0.00    -0.502 OA
ATOM     32  H   UNL     1      31.561 -12.607 -28.457  0.00  0.00    +0.292 HD
ENDBRANCH  15  31
TORSDOF 4
ENDMDL
MODEL 8
REMARK VINA RESULT:     -10.6      5.028      9.324
REMARK  Name = 54726191
REMARK  4 active torsions:
REMARK  status: ('A' for Active; 'I' for Inactive)
REMARK    1  A    between atoms: C_15  and  O_31
REMARK    2  A    between atoms: C_16  and  C_20
REMARK    3  A    between atoms: N_19  and  C_22
REMARK    4  A    between atoms: C_22  and  C_25
REMARK                            x       y       z     vdW  Elec       q    Type
REMARK                         _______ _______ _______ _____ _____    ______ ____
ROOT
ATOM      1  O   UNL     1      34.311 -17.173 -23.599  0.00  0.00    -0.336 OA
ATOM      2  O   UNL     1      32.829 -15.819 -27.847  0.00  0.00    -0.268 OA
ATOM      3  O   UNL     1      32.129 -10.825 -27.151  0.00  0.00    -0.283 OA
ATOM      4  N   UNL     1      33.318 -16.529 -25.698  0.00  0.00    -0.253 N 
ATOM      5  N   UNL     1      33.729 -13.840 -24.965  0.00  0.00    -0.275 N 
ATOM      6  C   UNL     1      33.554 -16.174 -24.294  0.00  0.00    +0.215 C 
ATOM      7  C   UNL     1      32.979 -17.928 -26.011  0.00  0.00    +0.080 C 
ATOM      8  C   UNL     1      33.776 -18.906 -25.147  0.00  0.00    +0.052 C 
ATOM      9  C   UNL     1      34.374 -14.898 -24.201  0.00  0.00    +0.147 C 
ATOM     10  C   UNL     1      33.754 -18.478 -23.693  0.00  0.00    +0.146 C 
ATOM     11  C   UNL     1      33.081 -15.549 -26.672  0.00  0.00    +0.267 C 
ATOM     12  C   UNL     1      33.130 -14.115 -26.197  0.00  0.00    +0.143 C 
ATOM     13  C   UNL     1      31.469 -18.158 -25.877  0.00  0.00    +0.022 C 
ATOM     14  C   UNL     1      33.788 -12.524 -24.526  0.00  0.00    +0.074 C 
ATOM     15  C   UNL     1      32.578 -13.153 -26.969  0.00  0.00    +0.191 C 
ATOM     16  C   UNL     1      33.286 -11.473 -25.186  0.00  0.00    +0.110 C 
ATOM     17  C   UNL     1      32.622 -11.734 -26.489  0.00  0.00    +0.236 C 
ENDROOT
BRANCH  16  20
ATOM     18  O   UNL     1      34.452  -9.809 -24.007  0.00  0.00    -0.270 OA
ATOM     19  N   UNL     1      32.296  -9.353 -24.773  0.00  0.00    -0.297 N 
ATOM     20  C   UNL     1      33.421 -10.143 -24.594  0.00  0.00    +0.251 C 
ATOM     21  H   UNL     1      31.532  -9.735 -25.261  0.00  0.00    +0.150 HD
BRANCH  19  22
ATOM     22  C   UNL     1      32.187  -8.000 -24.278  0.00  0.00    +0.119 C 
BRANCH  22  25
ATOM     23  F   UNL     1      32.754  -5.741 -22.670  0.00  0.00    -0.204 F 
ATOM     24  F   UNL     1      31.190  -7.857 -18.738  0.00  0.00    -0.204 F 
ATOM     25  C   UNL     1      31.922  -7.960 -22.801  0.00  0.00    +0.025 C 
ATOM     26  C   UNL     1      32.225  -6.813 -22.066  0.00  0.00    +0.140 C 
ATOM     27  C   UNL     1      31.370  -9.072 -22.163  0.00  0.00    +0.002 C 
ATOM     28  C   UNL     1      31.978  -6.779 -20.694  0.00  0.00    +0.059 C 
ATOM     29  C   UNL     1      31.123  -9.037 -20.790  0.00  0.00    +0.030 C 
ATOM     30  C   UNL     1      31.428  -7.891 -20.055  0.00  0.00    +0.142 C 
ENDBRANCH  22  25
ENDBRANCH  19  22
ENDBRANCH  16  20
BRANCH  15  31
ATOM     31  O   UNL     1      31.956 -13.390 -28.174  0.00  0.00    -0.502 OA
ATOM     32  H   UNL     1      32.380 -13.151 -28.975  0.00  0.00    +0.292 HD
ENDBRANCH  15  31
TORSDOF 4
ENDMDL
MODEL 9
REMARK VINA RESULT:     -10.4      5.328     10.296
REMARK  Name = 54726191
REMARK  4 active torsions:
REMARK  status: ('A' for Active; 'I' for Inactive)
REMARK    1  A    between atoms: C_15  and  O_31
REMARK    2  A    between atoms: C_16  and  C_20
REMARK    3  A    between atoms: N_19  and  C_22
REMARK    4  A    between atoms: C_22  and  C_25
REMARK                            x       y       z     vdW  Elec       q    Type
REMARK                         _______ _______ _______ _____ _____    ______ ____
ROOT
ATOM      1  O   UNL     1      34.625 -17.739 -22.559  0.00  0.00    -0.336 OA
ATOM      2  O   UNL     1      33.755 -16.497 -27.005  0.00  0.00    -0.268 OA
ATOM      3  O   UNL     1      32.328 -11.641 -26.460  0.00  0.00    -0.283 OA
ATOM      4  N   UNL     1      33.943 -17.182 -24.801  0.00  0.00    -0.253 N 
ATOM      5  N   UNL     1      33.881 -14.477 -24.016  0.00  0.00    -0.275 N 
ATOM      6  C   UNL     1      33.884 -16.827 -23.379  0.00  0.00    +0.215 C 
ATOM      7  C   UNL     1      33.841 -18.606 -25.165  0.00  0.00    +0.080 C 
ATOM      8  C   UNL     1      34.590 -19.494 -24.171  0.00  0.00    +0.052 C 
ATOM      9  C   UNL     1      34.509 -15.462 -23.147  0.00  0.00    +0.147 C 
ATOM     10  C   UNL     1      34.260 -19.100 -22.745  0.00  0.00    +0.146 C 
ATOM     11  C   UNL     1      33.761 -16.221 -25.806  0.00  0.00    +0.267 C 
ATOM     12  C   UNL     1      33.547 -14.801 -25.333  0.00  0.00    +0.143 C 
ATOM     13  C   UNL     1      32.372 -19.023 -25.300  0.00  0.00    +0.022 C 
ATOM     14  C   UNL     1      33.698 -13.173 -23.577  0.00  0.00    +0.074 C 
ATOM     15  C   UNL     1      33.024 -13.899 -26.194  0.00  0.00    +0.191 C 
ATOM     16  C   UNL     1      33.193 -12.179 -24.319  0.00  0.00    +0.110 C 
ATOM     17  C   UNL     1      32.806 -12.495 -25.719  0.00  0.00    +0.236 C 
ENDROOT
BRANCH  16  20
ATOM     18  O   UNL     1      32.252 -10.650 -22.805  0.00  0.00    -0.270 OA
ATOM     19  N   UNL     1      33.903  -9.912 -24.278  0.00  0.00    -0.297 N 
ATOM     20  C   UNL     1      33.055 -10.854 -23.717  0.00  0.00    +0.251 C 
ATOM     21  H   UNL     1      34.502 -10.199 -25.005  0.00  0.00    +0.150 HD
BRANCH  19  22
ATOM     22  C   UNL     1      33.952  -8.531 -23.854  0.00  0.00    +0.119 C 
BRANCH  22  25
ATOM     23  F   UNL     1      32.293  -6.248 -24.052  0.00  0.00    -0.204 F 
ATOM     24  F   UNL     1      34.133  -4.988 -28.226  0.00  0.00    -0.204 F 
ATOM     25  C   UNL     1      33.999  -7.586 -25.019  0.00  0.00    +0.025 C 
ATOM     26  C   UNL     1      33.152  -6.477 -25.054  0.00  0.00    +0.140 C 
ATOM     27  C   UNL     1      34.891  -7.817 -26.066  0.00  0.00    +0.002 C 
ATOM     28  C   UNL     1      33.198  -5.600 -26.138  0.00  0.00    +0.059 C 
ATOM     29  C   UNL     1      34.936  -6.939 -27.150  0.00  0.00    +0.030 C 
ATOM     30  C   UNL     1      34.089  -5.831 -27.186  0.00  0.00    +0.142 C 
ENDBRANCH  22  25
ENDBRANCH  19  22
ENDBRANCH  16  20
BRANCH  15  31
ATOM     31  O   UNL     1      32.658 -14.188 -27.489  0.00  0.00    -0.502 OA
ATOM     32  H   UNL     1      31.970 -13.704 -27.901  0.00  0.00    +0.292 HD
ENDBRANCH  15  31
TORSDOF 4
ENDMDL
