MODEL 1
REMARK VINA RESULT:     -13.0      0.000      0.000
REMARK  Name = 118161062
REMARK  4 active torsions:
REMARK  status: ('A' for Active; 'I' for Inactive)
REMARK    1  A    between atoms: N_1  and  C_26
REMARK    2  A    between atoms: C_7  and  C_15
REMARK    3  A    between atoms: C_21  and  N_28
REMARK    4  A    between atoms: N_27  and  C_35
REMARK                            x       y       z     vdW  Elec       q    Type
REMARK                         _______ _______ _______ _____ _____    ______ ____
ROOT
ATOM      1  N   UNL     1      35.762 -22.919 -16.738  0.00  0.00    -0.286 N 
ATOM      2  N   UNL     1      34.372 -23.818 -13.428  0.00  0.00    -0.260 N 
ATOM      3  N   UNL     1      33.577 -23.358 -16.039  0.00  0.00    -0.384 NA
ATOM      4  N   UNL     1      36.513 -23.435 -13.918  0.00  0.00    -0.224 NA
ATOM      5  C   UNL     1      34.860 -23.251 -15.755  0.00  0.00    +0.216 C 
ATOM      6  C   UNL     1      35.291 -23.492 -14.391  0.00  0.00    +0.180 C 
ATOM      7  C   UNL     1      32.671 -23.698 -15.035  0.00  0.00    +0.162 C 
ATOM      8  C   UNL     1      33.035 -23.920 -13.752  0.00  0.00    +0.159 C 
ATOM      9  C   UNL     1      35.055 -23.978 -12.255  0.00  0.00    +0.088 C 
ATOM     10  C   UNL     1      36.374 -23.737 -12.584  0.00  0.00    +0.117 C 
ATOM     11  H   UNL     1      36.672 -23.278 -16.631  0.00  0.00    +0.155 HD
ENDROOT
BRANCH   7  15
ATOM     12  N   UNL     1      30.495 -24.701 -14.766  0.00  0.00    -0.386 NA
ATOM     13  N   UNL     1      29.418 -23.042 -16.755  0.00  0.00    -0.257 NA
ATOM     14  N   UNL     1      28.343 -25.700 -14.495  0.00  0.00    -0.335 N 
ATOM     15  C   UNL     1      31.243 -23.788 -15.417  0.00  0.00    +0.178 C 
ATOM     16  C   UNL     1      30.714 -22.973 -16.393  0.00  0.00    +0.128 C 
ATOM     17  C   UNL     1      29.199 -24.770 -15.128  0.00  0.00    +0.179 C 
ATOM     18  C   UNL     1      28.669 -23.955 -16.104  0.00  0.00    +0.199 C 
ATOM     19  H   UNL     1      28.695 -26.295 -13.794  0.00  0.00    +0.144 HD
ATOM     20  H   UNL     1      27.396 -25.753 -14.756  0.00  0.00    +0.144 HD
ENDBRANCH   7  15
BRANCH   1  26
ATOM     21  C   UNL     1      35.093 -20.555 -20.145  0.00  0.00    +0.048 C 
ATOM     22  C   UNL     1      34.065 -21.346 -19.632  0.00  0.00    +0.016 C 
ATOM     23  C   UNL     1      36.343 -20.550 -19.526  0.00  0.00    +0.016 C 
ATOM     24  C   UNL     1      34.286 -22.130 -18.500  0.00  0.00    +0.016 C 
ATOM     25  C   UNL     1      36.565 -21.334 -18.395  0.00  0.00    +0.016 C 
ATOM     26  C   UNL     1      35.537 -22.125 -17.881  0.00  0.00    +0.050 C 
BRANCH  21  28
ATOM     27  N   UNL     1      34.375 -17.962 -23.432  0.00  0.00    +0.394 N 
ATOM     28  N   UNL     1      34.870 -19.769 -21.280  0.00  0.00    -0.312 N 
ATOM     29  C   UNL     1      35.752 -18.303 -23.054  0.00  0.00    -0.055 C 
ATOM     30  C   UNL     1      33.498 -19.119 -23.221  0.00  0.00    -0.055 C 
ATOM     31  C   UNL     1      35.830 -18.698 -21.578  0.00  0.00    +0.068 C 
ATOM     32  C   UNL     1      33.499 -19.543 -21.751  0.00  0.00    +0.068 C 
ATOM     33  H   UNL     1      34.052 -17.185 -22.856  0.00  0.00    -0.079 HD
BRANCH  27  35
ATOM     34  O   UNL     1      32.553 -16.965 -25.844  0.00  0.00    -0.358 OA
ATOM     35  C   UNL     1      34.341 -17.577 -24.854  0.00  0.00    +0.002 C 
ATOM     36  C   UNL     1      33.145 -18.250 -25.527  0.00  0.00    +0.124 C 
ATOM     37  C   UNL     1      33.524 -16.293 -25.002  0.00  0.00    +0.124 C 
ENDBRANCH  27  35
ENDBRANCH  21  28
ENDBRANCH   1  26
TORSDOF 4
ENDMDL
MODEL 2
REMARK VINA RESULT:     -11.3      4.420     11.607
REMARK  Name = 118161062
REMARK  4 active torsions:
REMARK  status: ('A' for Active; 'I' for Inactive)
REMARK    1  A    between atoms: N_1  and  C_26
REMARK    2  A    between atoms: C_7  and  C_15
REMARK    3  A    between atoms: C_21  and  N_28
REMARK    4  A    between atoms: N_27  and  C_35
REMARK                            x       y       z     vdW  Elec       q    Type
REMARK                         _______ _______ _______ _____ _____    ______ ____
ROOT
ATOM      1  N   UNL     1      34.480 -16.193 -24.683  0.00  0.00    -0.286 N 
ATOM      2  N   UNL     1      32.789 -13.209 -26.073  0.00  0.00    -0.260 N 
ATOM      3  N   UNL     1      33.413 -14.391 -23.648  0.00  0.00    -0.384 NA
ATOM      4  N   UNL     1      33.769 -14.847 -27.226  0.00  0.00    -0.224 NA
ATOM      5  C   UNL     1      33.795 -15.004 -24.752  0.00  0.00    +0.216 C 
ATOM      6  C   UNL     1      33.476 -14.394 -26.029  0.00  0.00    +0.180 C 
ATOM      7  C   UNL     1      32.721 -13.183 -23.731  0.00  0.00    +0.162 C 
ATOM      8  C   UNL     1      32.400 -12.591 -24.903  0.00  0.00    +0.159 C 
ATOM      9  C   UNL     1      32.629 -12.883 -27.390  0.00  0.00    +0.088 C 
ATOM     10  C   UNL     1      33.242 -13.908 -28.081  0.00  0.00    +0.117 C 
ATOM     11  H   UNL     1      35.112 -16.374 -25.415  0.00  0.00    +0.155 HD
ENDROOT
BRANCH   7  15
ATOM     12  N   UNL     1      31.932 -11.261 -22.508  0.00  0.00    -0.386 NA
ATOM     13  N   UNL     1      31.945 -12.708 -20.105  0.00  0.00    -0.257 NA
ATOM     14  N   UNL     1      31.152  -9.352 -21.303  0.00  0.00    -0.335 N 
ATOM     15  C   UNL     1      32.309 -12.553 -22.455  0.00  0.00    +0.178 C 
ATOM     16  C   UNL     1      32.314 -13.265 -21.276  0.00  0.00    +0.128 C 
ATOM     17  C   UNL     1      31.561 -10.704 -21.338  0.00  0.00    +0.179 C 
ATOM     18  C   UNL     1      31.567 -11.415 -20.157  0.00  0.00    +0.199 C 
ATOM     19  H   UNL     1      31.138  -8.821 -22.132  0.00  0.00    +0.144 HD
ATOM     20  H   UNL     1      30.880  -8.942 -20.450  0.00  0.00    +0.144 HD
ENDBRANCH   7  15
BRANCH   1  26
ATOM     21  C   UNL     1      34.186 -19.149 -21.713  0.00  0.00    +0.048 C 
ATOM     22  C   UNL     1      33.639 -19.373 -22.976  0.00  0.00    +0.016 C 
ATOM     23  C   UNL     1      34.831 -17.943 -21.436  0.00  0.00    +0.016 C 
ATOM     24  C   UNL     1      33.737 -18.392 -23.963  0.00  0.00    +0.016 C 
ATOM     25  C   UNL     1      34.929 -16.963 -22.423  0.00  0.00    +0.016 C 
ATOM     26  C   UNL     1      34.382 -17.186 -23.686  0.00  0.00    +0.050 C 
BRANCH  21  28
ATOM     27  N   UNL     1      33.871 -21.944 -18.529  0.00  0.00    +0.394 N 
ATOM     28  N   UNL     1      34.087 -20.133 -20.723  0.00  0.00    -0.312 N 
ATOM     29  C   UNL     1      32.690 -21.620 -19.340  0.00  0.00    -0.055 C 
ATOM     30  C   UNL     1      35.071 -21.943 -19.372  0.00  0.00    -0.055 C 
ATOM     31  C   UNL     1      32.829 -20.234 -19.973  0.00  0.00    +0.068 C 
ATOM     32  C   UNL     1      35.291 -20.568 -20.007  0.00  0.00    +0.068 C 
ATOM     33  H   UNL     1      33.975 -21.244 -17.794  0.00  0.00    -0.079 HD
BRANCH  27  35
ATOM     34  O   UNL     1      32.997 -23.566 -15.933  0.00  0.00    -0.358 OA
ATOM     35  C   UNL     1      33.698 -23.277 -17.928  0.00  0.00    +0.002 C 
ATOM     36  C   UNL     1      34.291 -23.274 -16.519  0.00  0.00    +0.124 C 
ATOM     37  C   UNL     1      32.349 -23.328 -17.209  0.00  0.00    +0.124 C 
ENDBRANCH  27  35
ENDBRANCH  21  28
ENDBRANCH   1  26
TORSDOF 4
ENDMDL
MODEL 3
REMARK VINA RESULT:     -10.9      8.086     15.150
REMARK  Name = 118161062
REMARK  4 active torsions:
REMARK  status: ('A' for Active; 'I' for Inactive)
REMARK    1  A    between atoms: N_1  and  C_26
REMARK    2  A    between atoms: C_7  and  C_15
REMARK    3  A    between atoms: C_21  and  N_28
REMARK    4  A    between atoms: N_27  and  C_35
REMARK                            x       y       z     vdW  Elec       q    Type
REMARK                         _______ _______ _______ _____ _____    ______ ____
ROOT
ATOM      1  N   UNL     1      32.805  -9.119 -26.240  0.00  0.00    -0.286 N 
ATOM      2  N   UNL     1      30.705  -6.112 -25.745  0.00  0.00    -0.260 N 
ATOM      3  N   UNL     1      32.121  -8.004 -24.304  0.00  0.00    -0.384 NA
ATOM      4  N   UNL     1      31.265  -7.044 -27.692  0.00  0.00    -0.224 NA
ATOM      5  C   UNL     1      32.120  -8.101 -25.619  0.00  0.00    +0.216 C 
ATOM      6  C   UNL     1      31.384  -7.115 -26.387  0.00  0.00    +0.180 C 
ATOM      7  C   UNL     1      31.425  -6.966 -23.685  0.00  0.00    +0.162 C 
ATOM      8  C   UNL     1      30.722  -6.035 -24.368  0.00  0.00    +0.159 C 
ATOM      9  C   UNL     1      30.109  -5.347 -26.708  0.00  0.00    +0.088 C 
ATOM     10  C   UNL     1      30.470  -5.942 -27.900  0.00  0.00    +0.117 C 
ATOM     11  H   UNL     1      33.158  -8.921 -27.137  0.00  0.00    +0.155 HD
ENDROOT
BRANCH   7  15
ATOM     12  N   UNL     1      32.026  -7.968 -21.576  0.00  0.00    -0.386 NA
ATOM     13  N   UNL     1      30.937  -5.800 -20.168  0.00  0.00    -0.257 NA
ATOM     14  N   UNL     1      32.622  -8.967 -19.491  0.00  0.00    -0.335 N 
ATOM     15  C   UNL     1      31.455  -6.922 -22.205  0.00  0.00    +0.178 C 
ATOM     16  C   UNL     1      30.921  -5.857 -21.514  0.00  0.00    +0.128 C 
ATOM     17  C   UNL     1      32.043  -7.911 -20.230  0.00  0.00    +0.179 C 
ATOM     18  C   UNL     1      31.508  -6.846 -19.538  0.00  0.00    +0.199 C 
ATOM     19  H   UNL     1      33.012  -9.740 -19.960  0.00  0.00    +0.144 HD
ATOM     20  H   UNL     1      32.637  -8.929 -18.508  0.00  0.00    +0.144 HD
ENDBRANCH   7  15
BRANCH   1  26
ATOM     21  C   UNL     1      33.571 -12.975 -24.760  0.00  0.00    +0.048 C 
ATOM     22  C   UNL     1      33.913 -11.855 -24.001  0.00  0.00    +0.016 C 
ATOM     23  C   UNL     1      32.975 -12.813 -26.011  0.00  0.00    +0.016 C 
ATOM     24  C   UNL     1      33.658 -10.575 -24.491  0.00  0.00    +0.016 C 
ATOM     25  C   UNL     1      32.720 -11.532 -26.501  0.00  0.00    +0.016 C 
ATOM     26  C   UNL     1      33.061 -10.413 -25.742  0.00  0.00    +0.050 C 
BRANCH  21  28
ATOM     27  N   UNL     1      34.090 -16.902 -23.226  0.00  0.00    +0.394 N 
ATOM     28  N   UNL     1      33.827 -14.259 -24.267  0.00  0.00    -0.312 N 
ATOM     29  C   UNL     1      34.102 -16.674 -24.676  0.00  0.00    -0.055 C 
ATOM     30  C   UNL     1      34.718 -15.769 -22.537  0.00  0.00    -0.055 C 
ATOM     31  C   UNL     1      33.324 -15.406 -25.034  0.00  0.00    +0.068 C 
ATOM     32  C   UNL     1      33.962 -14.470 -22.822  0.00  0.00    +0.068 C 
ATOM     33  H   UNL     1      33.125 -16.995 -22.909  0.00  0.00    -0.079 HD
BRANCH  27  35
ATOM     34  O   UNL     1      34.643 -19.176 -21.068  0.00  0.00    -0.358 OA
ATOM     35  C   UNL     1      34.838 -18.134 -22.920  0.00  0.00    +0.002 C 
ATOM     36  C   UNL     1      35.418 -18.032 -21.509  0.00  0.00    +0.124 C 
ATOM     37  C   UNL     1      33.881 -19.155 -22.302  0.00  0.00    +0.124 C 
ENDBRANCH  27  35
ENDBRANCH  21  28
ENDBRANCH   1  26
TORSDOF 4
ENDMDL
MODEL 4
REMARK VINA RESULT:     -10.2      1.197      2.034
REMARK  Name = 118161062
REMARK  4 active torsions:
REMARK  status: ('A' for Active; 'I' for Inactive)
REMARK    1  A    between atoms: N_1  and  C_26
REMARK    2  A    between atoms: C_7  and  C_15
REMARK    3  A    between atoms: C_21  and  N_28
REMARK    4  A    between atoms: N_27  and  C_35
REMARK                            x       y       z     vdW  Elec       q    Type
REMARK                         _______ _______ _______ _____ _____    ______ ____
ROOT
ATOM      1  N   UNL     1      36.136 -23.157 -15.812  0.00  0.00    -0.286 N 
ATOM      2  N   UNL     1      34.504 -23.986 -12.595  0.00  0.00    -0.260 N 
ATOM      3  N   UNL     1      33.912 -23.636 -15.277  0.00  0.00    -0.384 NA
ATOM      4  N   UNL     1      36.667 -23.557 -12.923  0.00  0.00    -0.224 NA
ATOM      5  C   UNL     1      35.165 -23.483 -14.894  0.00  0.00    +0.216 C 
ATOM      6  C   UNL     1      35.489 -23.665 -13.492  0.00  0.00    +0.180 C 
ATOM      7  C   UNL     1      32.937 -23.969 -14.337  0.00  0.00    +0.162 C 
ATOM      8  C   UNL     1      33.201 -24.138 -13.023  0.00  0.00    +0.159 C 
ATOM      9  C   UNL     1      35.093 -24.087 -11.366  0.00  0.00    +0.088 C 
ATOM     10  C   UNL     1      36.427 -23.819 -11.595  0.00  0.00    +0.117 C 
ATOM     11  H   UNL     1      37.043 -23.486 -15.619  0.00  0.00    +0.155 HD
ENDROOT
BRANCH   7  15
ATOM     12  N   UNL     1      31.119 -23.197 -15.720  0.00  0.00    -0.386 NA
ATOM     13  N   UNL     1      29.472 -25.284 -14.826  0.00  0.00    -0.257 NA
ATOM     14  N   UNL     1      29.323 -22.425 -17.091  0.00  0.00    -0.335 N 
ATOM     15  C   UNL     1      31.548 -24.113 -14.830  0.00  0.00    +0.178 C 
ATOM     16  C   UNL     1      30.740 -25.139 -14.391  0.00  0.00    +0.128 C 
ATOM     17  C   UNL     1      29.853 -23.343 -16.156  0.00  0.00    +0.179 C 
ATOM     18  C   UNL     1      29.044 -24.369 -15.718  0.00  0.00    +0.199 C 
ATOM     19  H   UNL     1      29.879 -21.683 -17.421  0.00  0.00    +0.144 HD
ATOM     20  H   UNL     1      28.398 -22.529 -17.412  0.00  0.00    +0.144 HD
ENDBRANCH   7  15
BRANCH   1  26
ATOM     21  C   UNL     1      35.681 -20.921 -19.338  0.00  0.00    +0.048 C 
ATOM     22  C   UNL     1      36.791 -20.713 -18.519  0.00  0.00    +0.016 C 
ATOM     23  C   UNL     1      34.722 -21.871 -18.986  0.00  0.00    +0.016 C 
ATOM     24  C   UNL     1      36.943 -21.457 -17.348  0.00  0.00    +0.016 C 
ATOM     25  C   UNL     1      34.874 -22.614 -17.815  0.00  0.00    +0.016 C 
ATOM     26  C   UNL     1      35.984 -22.408 -16.996  0.00  0.00    +0.050 C 
BRANCH  21  28
ATOM     27  N   UNL     1      35.278 -18.875 -23.039  0.00  0.00    +0.394 N 
ATOM     28  N   UNL     1      35.529 -20.175 -20.512  0.00  0.00    -0.312 N 
ATOM     29  C   UNL     1      34.082 -19.339 -22.324  0.00  0.00    -0.055 C 
ATOM     30  C   UNL     1      36.295 -18.434 -22.078  0.00  0.00    -0.055 C 
ATOM     31  C   UNL     1      34.419 -20.519 -21.410  0.00  0.00    +0.068 C 
ATOM     32  C   UNL     1      36.707 -19.583 -21.155  0.00  0.00    +0.068 C 
ATOM     33  H   UNL     1      35.653 -19.641 -23.598  0.00  0.00    -0.079 HD
BRANCH  27  35
ATOM     34  O   UNL     1      33.882 -16.019 -23.208  0.00  0.00    -0.358 OA
ATOM     35  C   UNL     1      34.914 -17.747 -23.915  0.00  0.00    +0.002 C 
ATOM     36  C   UNL     1      33.467 -17.341 -23.635  0.00  0.00    +0.124 C 
ATOM     37  C   UNL     1      35.271 -16.437 -23.212  0.00  0.00    +0.124 C 
ENDBRANCH  27  35
ENDBRANCH  21  28
ENDBRANCH   1  26
TORSDOF 4
ENDMDL
