MODEL 1
REMARK VINA RESULT:     -12.8      0.000      0.000
REMARK  Name = 24864821
REMARK  5 active torsions:
REMARK  status: ('A' for Active; 'I' for Inactive)
REMARK    1  A    between atoms: C_5  and  C_16
REMARK    2  A    between atoms: C_7  and  C_10
REMARK    3  A    between atoms: C_16  and  O_17
REMARK    4  A    between atoms: O_17  and  C_20
REMARK    5  A    between atoms: C_25  and  O_28
REMARK                            x       y       z     vdW  Elec       q    Type
REMARK                         _______ _______ _______ _____ _____    ______ ____
ROOT
ATOM      1  N   UNL     1      35.913 -23.172 -15.651  0.00  0.00    -0.191 N 
ATOM      2  N   UNL     1      34.581 -22.937 -15.744  0.00  0.00    -0.163 NA
ATOM      3  N   UNL     1      38.076 -23.022 -15.976  0.00  0.00    -0.128 NA
ATOM      4  N   UNL     1      37.847 -24.018 -15.048  0.00  0.00    -0.127 NA
ATOM      5  C   UNL     1      36.910 -22.528 -16.326  0.00  0.00    +0.208 A 
ATOM      6  C   UNL     1      36.548 -24.100 -14.859  0.00  0.00    +0.186 A 
ATOM      7  C   UNL     1      33.858 -23.700 -14.973  0.00  0.00    +0.101 C 
ATOM      8  C   UNL     1      35.739 -24.922 -14.050  0.00  0.00    +0.042 C 
ATOM      9  C   UNL     1      34.410 -24.763 -14.073  0.00  0.00    +0.024 C 
ENDROOT
BRANCH   7  10
ATOM     10  C   UNL     1      32.380 -23.536 -14.981  0.00  0.00    +0.019 C 
ATOM     11  C   UNL     1      31.661 -23.634 -13.790  0.00  0.00    +0.002 C 
ATOM     12  C   UNL     1      31.714 -23.283 -16.179  0.00  0.00    +0.002 C 
ATOM     13  C   UNL     1      30.275 -23.478 -13.798  0.00  0.00    +0.000 C 
ATOM     14  C   UNL     1      30.328 -23.127 -16.187  0.00  0.00    +0.000 C 
ATOM     15  C   UNL     1      29.607 -23.225 -14.997  0.00  0.00    +0.000 C 
ENDBRANCH   7  10
BRANCH   5  16
ATOM     16  C   UNL     1      36.654 -21.424 -17.309  0.00  0.00    +0.272 C 
BRANCH  16  17
ATOM     17  O   UNL     1      36.345 -21.995 -18.579  0.00  0.00    -0.467 OA
BRANCH  17  20
ATOM     18  N   UNL     1      32.769 -20.839 -20.330  0.00  0.00    -0.248 NA
ATOM     19  C   UNL     1      35.154 -20.571 -20.121  0.00  0.00    +0.030 C 
ATOM     20  C   UNL     1      35.181 -21.598 -19.168  0.00  0.00    +0.138 C 
ATOM     21  C   UNL     1      33.910 -20.218 -20.684  0.00  0.00    +0.066 C 
ATOM     22  C   UNL     1      36.325 -19.901 -20.514  0.00  0.00    +0.059 C 
ATOM     23  C   UNL     1      33.884 -19.197 -21.630  0.00  0.00    +0.109 C 
ATOM     24  C   UNL     1      34.006 -22.240 -18.801  0.00  0.00    +0.057 C 
ATOM     25  C   UNL     1      35.049 -18.532 -22.021  0.00  0.00    +0.118 C 
ATOM     26  C   UNL     1      36.271 -18.884 -21.462  0.00  0.00    +0.011 C 
ATOM     27  C   UNL     1      32.837 -21.826 -19.408  0.00  0.00    +0.102 C 
BRANCH  25  28
ATOM     28  O   UNL     1      34.985 -17.540 -22.951  0.00  0.00    -0.476 OA
ATOM     29  C   UNL     1      34.304 -17.836 -24.170  0.00  0.00    +0.252 C 
ENDBRANCH  25  28
ENDBRANCH  17  20
ENDBRANCH  16  17
ENDBRANCH   5  16
TORSDOF 5
ENDMDL
MODEL 2
REMARK VINA RESULT:     -11.8      4.521     11.282
REMARK  Name = 24864821
REMARK  5 active torsions:
REMARK  status: ('A' for Active; 'I' for Inactive)
REMARK    1  A    between atoms: C_5  and  C_16
REMARK    2  A    between atoms: C_7  and  C_10
REMARK    3  A    between atoms: C_16  and  O_17
REMARK    4  A    between atoms: O_17  and  C_20
REMARK    5  A    between atoms: C_25  and  O_28
REMARK                            x       y       z     vdW  Elec       q    Type
REMARK                         _______ _______ _______ _____ _____    ______ ____
ROOT
ATOM      1  N   UNL     1      33.357 -16.176 -25.480  0.00  0.00    -0.191 N 
ATOM      2  N   UNL     1      33.472 -14.886 -25.076  0.00  0.00    -0.163 NA
ATOM      3  N   UNL     1      33.499 -18.362 -25.511  0.00  0.00    -0.128 NA
ATOM      4  N   UNL     1      32.862 -17.956 -26.666  0.00  0.00    -0.127 NA
ATOM      5  C   UNL     1      33.788 -17.286 -24.815  0.00  0.00    +0.208 A 
ATOM      6  C   UNL     1      32.781 -16.643 -26.638  0.00  0.00    +0.186 A 
ATOM      7  C   UNL     1      32.960 -14.026 -25.910  0.00  0.00    +0.101 C 
ATOM      8  C   UNL     1      32.252 -15.689 -27.529  0.00  0.00    +0.042 C 
ATOM      9  C   UNL     1      32.318 -14.389 -27.215  0.00  0.00    +0.024 C 
ENDROOT
BRANCH   7  10
ATOM     10  C   UNL     1      33.019 -12.578 -25.578  0.00  0.00    +0.019 C 
ATOM     11  C   UNL     1      32.678 -11.627 -26.539  0.00  0.00    +0.002 C 
ATOM     12  C   UNL     1      33.415 -12.172 -24.303  0.00  0.00    +0.002 C 
ATOM     13  C   UNL     1      32.732 -10.269 -26.225  0.00  0.00    +0.000 C 
ATOM     14  C   UNL     1      33.469 -10.814 -23.990  0.00  0.00    +0.000 C 
ATOM     15  C   UNL     1      33.128  -9.861 -24.951  0.00  0.00    +0.000 C 
ENDBRANCH   7  10
BRANCH   5  16
ATOM     16  C   UNL     1      34.483 -17.229 -23.486  0.00  0.00    +0.272 C 
BRANCH  16  17
ATOM     17  O   UNL     1      33.851 -18.143 -22.592  0.00  0.00    -0.467 OA
BRANCH  17  20
ATOM     18  N   UNL     1      36.388 -20.338 -20.155  0.00  0.00    -0.248 NA
ATOM     19  C   UNL     1      34.157 -19.872 -20.935  0.00  0.00    +0.030 C 
ATOM     20  C   UNL     1      34.666 -18.877 -21.782  0.00  0.00    +0.138 C 
ATOM     21  C   UNL     1      35.065 -20.587 -20.128  0.00  0.00    +0.066 C 
ATOM     22  C   UNL     1      32.782 -20.159 -20.882  0.00  0.00    +0.059 C 
ATOM     23  C   UNL     1      34.558 -21.575 -19.288  0.00  0.00    +0.109 C 
ATOM     24  C   UNL     1      36.029 -18.618 -21.811  0.00  0.00    +0.057 C 
ATOM     25  C   UNL     1      33.192 -21.860 -19.234  0.00  0.00    +0.118 C 
ATOM     26  C   UNL     1      32.302 -21.151 -20.032  0.00  0.00    +0.011 C 
ATOM     27  C   UNL     1      36.840 -19.371 -20.985  0.00  0.00    +0.102 C 
BRANCH  25  28
ATOM     28  O   UNL     1      32.733 -22.834 -18.402  0.00  0.00    -0.476 OA
ATOM     29  C   UNL     1      33.522 -23.126 -17.248  0.00  0.00    +0.252 C 
ENDBRANCH  25  28
ENDBRANCH  17  20
ENDBRANCH  16  17
ENDBRANCH   5  16
TORSDOF 5
ENDMDL
MODEL 3
REMARK VINA RESULT:     -11.2      3.632      9.954
REMARK  Name = 24864821
REMARK  5 active torsions:
REMARK  status: ('A' for Active; 'I' for Inactive)
REMARK    1  A    between atoms: C_5  and  C_16
REMARK    2  A    between atoms: C_7  and  C_10
REMARK    3  A    between atoms: C_16  and  O_17
REMARK    4  A    between atoms: O_17  and  C_20
REMARK    5  A    between atoms: C_25  and  O_28
REMARK                            x       y       z     vdW  Elec       q    Type
REMARK                         _______ _______ _______ _____ _____    ______ ____
ROOT
ATOM      1  N   UNL     1      34.436 -15.833 -22.322  0.00  0.00    -0.191 N 
ATOM      2  N   UNL     1      34.135 -15.607 -23.625  0.00  0.00    -0.163 NA
ATOM      3  N   UNL     1      35.156 -16.807 -20.495  0.00  0.00    -0.128 NA
ATOM      4  N   UNL     1      34.659 -15.566 -20.154  0.00  0.00    -0.127 NA
ATOM      5  C   UNL     1      35.014 -16.950 -21.794  0.00  0.00    +0.208 A 
ATOM      6  C   UNL     1      34.230 -14.989 -21.255  0.00  0.00    +0.186 A 
ATOM      7  C   UNL     1      33.593 -14.442 -23.845  0.00  0.00    +0.101 C 
ATOM      8  C   UNL     1      33.627 -13.744 -21.522  0.00  0.00    +0.042 C 
ATOM      9  C   UNL     1      33.294 -13.431 -22.781  0.00  0.00    +0.024 C 
ENDROOT
BRANCH   7  10
ATOM     10  C   UNL     1      33.221 -14.074 -25.237  0.00  0.00    +0.019 C 
ATOM     11  C   UNL     1      33.290 -15.027 -26.252  0.00  0.00    +0.002 C 
ATOM     12  C   UNL     1      32.801 -12.776 -25.526  0.00  0.00    +0.002 C 
ATOM     13  C   UNL     1      32.938 -14.682 -27.557  0.00  0.00    +0.000 C 
ATOM     14  C   UNL     1      32.450 -12.431 -26.830  0.00  0.00    +0.000 C 
ATOM     15  C   UNL     1      32.519 -13.383 -27.847  0.00  0.00    +0.000 C 
ENDBRANCH   7  10
BRANCH   5  16
ATOM     16  C   UNL     1      35.411 -18.138 -22.621  0.00  0.00    +0.272 C 
BRANCH  16  17
ATOM     17  O   UNL     1      35.688 -19.236 -21.755  0.00  0.00    -0.467 OA
BRANCH  17  20
ATOM     18  N   UNL     1      32.389 -21.067 -20.035  0.00  0.00    -0.248 NA
ATOM     19  C   UNL     1      34.770 -20.697 -20.068  0.00  0.00    +0.030 C 
ATOM     20  C   UNL     1      34.618 -19.849 -21.173  0.00  0.00    +0.138 C 
ATOM     21  C   UNL     1      33.613 -21.293 -19.523  0.00  0.00    +0.066 C 
ATOM     22  C   UNL     1      36.032 -20.956 -19.507  0.00  0.00    +0.059 C 
ATOM     23  C   UNL     1      33.765 -22.136 -18.425  0.00  0.00    +0.109 C 
ATOM     24  C   UNL     1      33.357 -19.614 -21.703  0.00  0.00    +0.057 C 
ATOM     25  C   UNL     1      35.020 -22.393 -17.868  0.00  0.00    +0.118 C 
ATOM     26  C   UNL     1      36.155 -21.803 -18.410  0.00  0.00    +0.011 C 
ATOM     27  C   UNL     1      32.284 -20.242 -21.102  0.00  0.00    +0.102 C 
BRANCH  25  28
ATOM     28  O   UNL     1      35.129 -23.222 -16.793  0.00  0.00    -0.476 OA
ATOM     29  C   UNL     1      33.927 -23.536 -16.091  0.00  0.00    +0.252 C 
ENDBRANCH  25  28
ENDBRANCH  17  20
ENDBRANCH  16  17
ENDBRANCH   5  16
TORSDOF 5
ENDMDL
MODEL 4
REMARK VINA RESULT:     -11.2      8.664     12.734
REMARK  Name = 24864821
REMARK  5 active torsions:
REMARK  status: ('A' for Active; 'I' for Inactive)
REMARK    1  A    between atoms: C_5  and  C_16
REMARK    2  A    between atoms: C_7  and  C_10
REMARK    3  A    between atoms: C_16  and  O_17
REMARK    4  A    between atoms: O_17  and  C_20
REMARK    5  A    between atoms: C_25  and  O_28
REMARK                            x       y       z     vdW  Elec       q    Type
REMARK                         _______ _______ _______ _____ _____    ______ ____
ROOT
ATOM      1  N   UNL     1      33.119 -13.553 -25.878  0.00  0.00    -0.191 N 
ATOM      2  N   UNL     1      33.564 -14.423 -24.938  0.00  0.00    -0.163 NA
ATOM      3  N   UNL     1      32.574 -11.686 -26.887  0.00  0.00    -0.128 NA
ATOM      4  N   UNL     1      32.310 -12.733 -27.746  0.00  0.00    -0.127 NA
ATOM      5  C   UNL     1      33.057 -12.194 -25.776  0.00  0.00    +0.208 A 
ATOM      6  C   UNL     1      32.640 -13.848 -27.133  0.00  0.00    +0.186 A 
ATOM      7  C   UNL     1      33.519 -15.671 -25.312  0.00  0.00    +0.101 C 
ATOM      8  C   UNL     1      32.585 -15.207 -27.503  0.00  0.00    +0.042 C 
ATOM      9  C   UNL     1      33.005 -16.140 -26.639  0.00  0.00    +0.024 C 
ENDROOT
BRANCH   7  10
ATOM     10  C   UNL     1      33.985 -16.722 -24.369  0.00  0.00    +0.019 C 
ATOM     11  C   UNL     1      34.628 -16.362 -23.186  0.00  0.00    +0.002 C 
ATOM     12  C   UNL     1      33.776 -18.069 -24.668  0.00  0.00    +0.002 C 
ATOM     13  C   UNL     1      35.063 -17.348 -22.301  0.00  0.00    +0.000 C 
ATOM     14  C   UNL     1      34.211 -19.055 -23.784  0.00  0.00    +0.000 C 
ATOM     15  C   UNL     1      34.856 -18.696 -22.599  0.00  0.00    +0.000 C 
ENDBRANCH   7  10
BRANCH   5  16
ATOM     16  C   UNL     1      33.490 -11.443 -24.551  0.00  0.00    +0.272 C 
BRANCH  16  17
ATOM     17  O   UNL     1      32.368 -10.748 -24.011  0.00  0.00    -0.467 OA
BRANCH  17  20
ATOM     18  N   UNL     1      31.477 -11.510 -20.034  0.00  0.00    -0.248 NA
ATOM     19  C   UNL     1      31.921  -9.920 -21.788  0.00  0.00    +0.030 C 
ATOM     20  C   UNL     1      32.075 -10.975 -22.698  0.00  0.00    +0.138 C 
ATOM     21  C   UNL     1      31.618 -10.238 -20.448  0.00  0.00    +0.066 C 
ATOM     22  C   UNL     1      32.061  -8.579 -22.185  0.00  0.00    +0.059 C 
ATOM     23  C   UNL     1      31.466  -9.189 -19.545  0.00  0.00    +0.109 C 
ATOM     24  C   UNL     1      31.931 -12.288 -22.275  0.00  0.00    +0.057 C 
ATOM     25  C   UNL     1      31.605  -7.856 -19.939  0.00  0.00    +0.118 C 
ATOM     26  C   UNL     1      31.903  -7.551 -21.262  0.00  0.00    +0.011 C 
ATOM     27  C   UNL     1      31.634 -12.500 -20.943  0.00  0.00    +0.102 C 
BRANCH  25  28
ATOM     28  O   UNL     1      31.446  -6.858 -19.028  0.00  0.00    -0.476 OA
ATOM     29  C   UNL     1      32.287  -5.713 -19.167  0.00  0.00    +0.252 C 
ENDBRANCH  25  28
ENDBRANCH  17  20
ENDBRANCH  16  17
ENDBRANCH   5  16
TORSDOF 5
ENDMDL
MODEL 5
REMARK VINA RESULT:     -11.1      6.837     11.425
REMARK  Name = 24864821
REMARK  5 active torsions:
REMARK  status: ('A' for Active; 'I' for Inactive)
REMARK    1  A    between atoms: C_5  and  C_16
REMARK    2  A    between atoms: C_7  and  C_10
REMARK    3  A    between atoms: C_16  and  O_17
REMARK    4  A    between atoms: O_17  and  C_20
REMARK    5  A    between atoms: C_25  and  O_28
REMARK                            x       y       z     vdW  Elec       q    Type
REMARK                         _______ _______ _______ _____ _____    ______ ____
ROOT
ATOM      1  N   UNL     1      33.690 -16.059 -24.747  0.00  0.00    -0.191 N 
ATOM      2  N   UNL     1      34.060 -16.659 -23.588  0.00  0.00    -0.163 NA
ATOM      3  N   UNL     1      33.106 -14.521 -26.195  0.00  0.00    -0.128 NA
ATOM      4  N   UNL     1      33.148 -15.735 -26.850  0.00  0.00    -0.127 NA
ATOM      5  C   UNL     1      33.432 -14.734 -24.940  0.00  0.00    +0.208 A 
ATOM      6  C   UNL     1      33.500 -16.651 -25.974  0.00  0.00    +0.186 A 
ATOM      7  C   UNL     1      34.249 -17.944 -23.698  0.00  0.00    +0.101 C 
ATOM      8  C   UNL     1      33.695 -18.044 -26.058  0.00  0.00    +0.042 C 
ATOM      9  C   UNL     1      34.062 -18.723 -24.964  0.00  0.00    +0.024 C 
ENDROOT
BRANCH   7  10
ATOM     10  C   UNL     1      34.662 -18.715 -22.496  0.00  0.00    +0.019 C 
ATOM     11  C   UNL     1      33.729 -19.492 -21.811  0.00  0.00    +0.002 C 
ATOM     12  C   UNL     1      35.985 -18.663 -22.055  0.00  0.00    +0.002 C 
ATOM     13  C   UNL     1      34.117 -20.217 -20.685  0.00  0.00    +0.000 C 
ATOM     14  C   UNL     1      36.373 -19.388 -20.929  0.00  0.00    +0.000 C 
ATOM     15  C   UNL     1      35.440 -20.165 -20.243  0.00  0.00    +0.000 C 
ENDBRANCH   7  10
BRANCH   5  16
ATOM     16  C   UNL     1      33.524 -13.712 -23.845  0.00  0.00    +0.272 C 
BRANCH  16  17
ATOM     17  O   UNL     1      32.705 -12.594 -24.182  0.00  0.00    -0.467 OA
BRANCH  17  20
ATOM     18  N   UNL     1      34.520  -8.869 -24.031  0.00  0.00    -0.248 NA
ATOM     19  C   UNL     1      32.791 -10.362 -23.267  0.00  0.00    +0.030 C 
ATOM     20  C   UNL     1      33.286 -11.361 -24.116  0.00  0.00    +0.138 C 
ATOM     21  C   UNL     1      33.447  -9.114 -23.257  0.00  0.00    +0.066 C 
ATOM     22  C   UNL     1      31.672 -10.582 -22.445  0.00  0.00    +0.059 C 
ATOM     23  C   UNL     1      32.954  -8.121 -22.414  0.00  0.00    +0.109 C 
ATOM     24  C   UNL     1      34.392 -11.112 -24.916  0.00  0.00    +0.057 C 
ATOM     25  C   UNL     1      31.842  -8.340 -21.596  0.00  0.00    +0.118 C 
ATOM     26  C   UNL     1      31.200  -9.573 -21.612  0.00  0.00    +0.011 C 
ATOM     27  C   UNL     1      34.968  -9.859 -24.836  0.00  0.00    +0.102 C 
BRANCH  25  28
ATOM     28  O   UNL     1      31.390  -7.347 -20.784  0.00  0.00    -0.476 OA
ATOM     29  C   UNL     1      32.368  -6.626 -20.033  0.00  0.00    +0.252 C 
ENDBRANCH  25  28
ENDBRANCH  17  20
ENDBRANCH  16  17
ENDBRANCH   5  16
TORSDOF 5
ENDMDL
MODEL 6
REMARK VINA RESULT:     -11.1      6.715     11.078
REMARK  Name = 24864821
REMARK  5 active torsions:
REMARK  status: ('A' for Active; 'I' for Inactive)
REMARK    1  A    between atoms: C_5  and  C_16
REMARK    2  A    between atoms: C_7  and  C_10
REMARK    3  A    between atoms: C_16  and  O_17
REMARK    4  A    between atoms: O_17  and  C_20
REMARK    5  A    between atoms: C_25  and  O_28
REMARK                            x       y       z     vdW  Elec       q    Type
REMARK                         _______ _______ _______ _____ _____    ______ ____
ROOT
ATOM      1  N   UNL     1      33.683 -15.902 -24.564  0.00  0.00    -0.191 N 
ATOM      2  N   UNL     1      34.129 -16.542 -23.454  0.00  0.00    -0.163 NA
ATOM      3  N   UNL     1      33.046 -14.309 -25.927  0.00  0.00    -0.128 NA
ATOM      4  N   UNL     1      32.963 -15.511 -26.601  0.00  0.00    -0.127 NA
ATOM      5  C   UNL     1      33.477 -14.562 -24.712  0.00  0.00    +0.208 A 
ATOM      6  C   UNL     1      33.348 -16.460 -25.776  0.00  0.00    +0.186 A 
ATOM      7  C   UNL     1      34.241 -17.833 -23.601  0.00  0.00    +0.101 C 
ATOM      8  C   UNL     1      33.462 -17.859 -25.899  0.00  0.00    +0.042 C 
ATOM      9  C   UNL     1      33.896 -18.577 -24.855  0.00  0.00    +0.024 C 
ENDROOT
BRANCH   7  10
ATOM     10  C   UNL     1      34.725 -18.647 -22.455  0.00  0.00    +0.019 C 
ATOM     11  C   UNL     1      36.071 -18.611 -22.093  0.00  0.00    +0.002 C 
ATOM     12  C   UNL     1      33.832 -19.446 -21.741  0.00  0.00    +0.002 C 
ATOM     13  C   UNL     1      36.524 -19.374 -21.017  0.00  0.00    +0.000 C 
ATOM     14  C   UNL     1      34.285 -20.208 -20.665  0.00  0.00    +0.000 C 
ATOM     15  C   UNL     1      35.631 -20.173 -20.303  0.00  0.00    +0.000 C 
ENDBRANCH   7  10
BRANCH   5  16
ATOM     16  C   UNL     1      33.724 -13.568 -23.615  0.00  0.00    +0.272 C 
BRANCH  16  17
ATOM     17  O   UNL     1      32.701 -12.575 -23.649  0.00  0.00    -0.467 OA
BRANCH  17  20
ATOM     18  N   UNL     1      31.318 -11.254 -19.970  0.00  0.00    -0.248 NA
ATOM     19  C   UNL     1      31.932 -10.766 -22.248  0.00  0.00    +0.030 C 
ATOM     20  C   UNL     1      32.245 -12.118 -22.447  0.00  0.00    +0.138 C 
ATOM     21  C   UNL     1      31.466 -10.373 -20.976  0.00  0.00    +0.066 C 
ATOM     22  C   UNL     1      32.074  -9.818 -23.275  0.00  0.00    +0.059 C 
ATOM     23  C   UNL     1      31.156  -9.030 -20.779  0.00  0.00    +0.109 C 
ATOM     24  C   UNL     1      32.093 -13.029 -21.412  0.00  0.00    +0.057 C 
ATOM     25  C   UNL     1      31.297  -8.088 -21.800  0.00  0.00    +0.118 C 
ATOM     26  C   UNL     1      31.757  -8.482 -23.050  0.00  0.00    +0.011 C 
ATOM     27  C   UNL     1      31.630 -12.550 -20.203  0.00  0.00    +0.102 C 
BRANCH  25  28
ATOM     28  O   UNL     1      30.982  -6.784 -21.570  0.00  0.00    -0.476 OA
ATOM     29  C   UNL     1      31.452  -6.208 -20.351  0.00  0.00    +0.252 C 
ENDBRANCH  25  28
ENDBRANCH  17  20
ENDBRANCH  16  17
ENDBRANCH   5  16
TORSDOF 5
ENDMDL
MODEL 7
REMARK VINA RESULT:     -11.1      6.090     11.697
REMARK  Name = 24864821
REMARK  5 active torsions:
REMARK  status: ('A' for Active; 'I' for Inactive)
REMARK    1  A    between atoms: C_5  and  C_16
REMARK    2  A    between atoms: C_7  and  C_10
REMARK    3  A    between atoms: C_16  and  O_17
REMARK    4  A    between atoms: O_17  and  C_20
REMARK    5  A    between atoms: C_25  and  O_28
REMARK                            x       y       z     vdW  Elec       q    Type
REMARK                         _______ _______ _______ _____ _____    ______ ____
ROOT
ATOM      1  N   UNL     1      33.108 -12.968 -25.874  0.00  0.00    -0.191 N 
ATOM      2  N   UNL     1      32.662 -12.962 -24.592  0.00  0.00    -0.163 NA
ATOM      3  N   UNL     1      33.674 -13.667 -27.872  0.00  0.00    -0.128 NA
ATOM      4  N   UNL     1      33.896 -12.307 -27.813  0.00  0.00    -0.127 NA
ATOM      5  C   UNL     1      33.203 -14.045 -26.705  0.00  0.00    +0.208 A 
ATOM      6  C   UNL     1      33.553 -11.896 -26.611  0.00  0.00    +0.186 A 
ATOM      7  C   UNL     1      32.671 -11.782 -24.038  0.00  0.00    +0.101 C 
ATOM      8  C   UNL     1      33.569 -10.637 -25.980  0.00  0.00    +0.042 C 
ATOM      9  C   UNL     1      33.145 -10.531 -24.713  0.00  0.00    +0.024 C 
ENDROOT
BRANCH   7  10
ATOM     10  C   UNL     1      32.201 -11.643 -22.635  0.00  0.00    +0.019 C 
ATOM     11  C   UNL     1      31.792 -10.399 -22.156  0.00  0.00    +0.002 C 
ATOM     12  C   UNL     1      32.167 -12.758 -21.798  0.00  0.00    +0.002 C 
ATOM     13  C   UNL     1      31.349 -10.270 -20.840  0.00  0.00    +0.000 C 
ATOM     14  C   UNL     1      31.724 -12.629 -20.482  0.00  0.00    +0.000 C 
ATOM     15  C   UNL     1      31.315 -11.385 -20.001  0.00  0.00    +0.000 C 
ENDBRANCH   7  10
BRANCH   5  16
ATOM     16  C   UNL     1      32.813 -15.435 -26.294  0.00  0.00    +0.272 C 
BRANCH  16  17
ATOM     17  O   UNL     1      33.515 -15.782 -25.103  0.00  0.00    -0.467 OA
BRANCH  17  20
ATOM     18  N   UNL     1      34.388 -19.807 -24.622  0.00  0.00    -0.248 NA
ATOM     19  C   UNL     1      34.356 -17.573 -23.721  0.00  0.00    +0.030 C 
ATOM     20  C   UNL     1      33.810 -17.102 -24.922  0.00  0.00    +0.138 C 
ATOM     21  C   UNL     1      34.633 -18.952 -23.612  0.00  0.00    +0.066 C 
ATOM     22  C   UNL     1      34.626 -16.709 -22.645  0.00  0.00    +0.059 C 
ATOM     23  C   UNL     1      35.176 -19.419 -22.418  0.00  0.00    +0.109 C 
ATOM     24  C   UNL     1      33.556 -17.981 -25.965  0.00  0.00    +0.057 C 
ATOM     25  C   UNL     1      35.443 -18.561 -21.350  0.00  0.00    +0.118 C 
ATOM     26  C   UNL     1      35.168 -17.203 -21.463  0.00  0.00    +0.011 C 
ATOM     27  C   UNL     1      33.860 -19.313 -25.766  0.00  0.00    +0.102 C 
BRANCH  25  28
ATOM     28  O   UNL     1      35.972 -19.055 -20.197  0.00  0.00    -0.476 OA
ATOM     29  C   UNL     1      36.054 -20.475 -20.076  0.00  0.00    +0.252 C 
ENDBRANCH  25  28
ENDBRANCH  17  20
ENDBRANCH  16  17
ENDBRANCH   5  16
TORSDOF 5
ENDMDL
MODEL 8
REMARK VINA RESULT:     -11.0      6.406     10.735
REMARK  Name = 24864821
REMARK  5 active torsions:
REMARK  status: ('A' for Active; 'I' for Inactive)
REMARK    1  A    between atoms: C_5  and  C_16
REMARK    2  A    between atoms: C_7  and  C_10
REMARK    3  A    between atoms: C_16  and  O_17
REMARK    4  A    between atoms: O_17  and  C_20
REMARK    5  A    between atoms: C_25  and  O_28
REMARK                            x       y       z     vdW  Elec       q    Type
REMARK                         _______ _______ _______ _____ _____    ______ ____
ROOT
ATOM      1  N   UNL     1      33.737 -16.762 -24.526  0.00  0.00    -0.191 N 
ATOM      2  N   UNL     1      33.842 -17.370 -23.318  0.00  0.00    -0.163 NA
ATOM      3  N   UNL     1      33.538 -15.208 -26.058  0.00  0.00    -0.128 NA
ATOM      4  N   UNL     1      33.622 -16.431 -26.693  0.00  0.00    -0.127 NA
ATOM      5  C   UNL     1      33.607 -15.425 -24.764  0.00  0.00    +0.208 A 
ATOM      6  C   UNL     1      33.742 -17.357 -25.766  0.00  0.00    +0.186 A 
ATOM      7  C   UNL     1      33.965 -18.666 -23.389  0.00  0.00    +0.101 C 
ATOM      8  C   UNL     1      33.858 -18.760 -25.811  0.00  0.00    +0.042 C 
ATOM      9  C   UNL     1      33.969 -19.447 -24.667  0.00  0.00    +0.024 C 
ENDROOT
BRANCH   7  10
ATOM     10  C   UNL     1      34.094 -19.447 -22.131  0.00  0.00    +0.019 C 
ATOM     11  C   UNL     1      32.951 -19.871 -21.454  0.00  0.00    +0.002 C 
ATOM     12  C   UNL     1      35.358 -19.757 -21.629  0.00  0.00    +0.002 C 
ATOM     13  C   UNL     1      33.072 -20.605 -20.274  0.00  0.00    +0.000 C 
ATOM     14  C   UNL     1      35.479 -20.491 -20.450  0.00  0.00    +0.000 C 
ATOM     15  C   UNL     1      34.337 -20.915 -19.771  0.00  0.00    +0.000 C 
ENDBRANCH   7  10
BRANCH   5  16
ATOM     16  C   UNL     1      33.558 -14.398 -23.671  0.00  0.00    +0.272 C 
BRANCH  16  17
ATOM     17  O   UNL     1      33.674 -13.099 -24.249  0.00  0.00    -0.467 OA
BRANCH  17  20
ATOM     18  N   UNL     1      31.662 -10.055 -22.281  0.00  0.00    -0.248 NA
ATOM     19  C   UNL     1      33.178 -10.748 -24.020  0.00  0.00    +0.030 C 
ATOM     20  C   UNL     1      33.023 -12.082 -23.617  0.00  0.00    +0.138 C 
ATOM     21  C   UNL     1      32.470  -9.754 -23.315  0.00  0.00    +0.066 C 
ATOM     22  C   UNL     1      34.013 -10.397 -25.095  0.00  0.00    +0.059 C 
ATOM     23  C   UNL     1      32.625  -8.429 -23.716  0.00  0.00    +0.109 C 
ATOM     24  C   UNL     1      32.191 -12.395 -22.551  0.00  0.00    +0.057 C 
ATOM     25  C   UNL     1      33.455  -8.080 -24.784  0.00  0.00    +0.118 C 
ATOM     26  C   UNL     1      34.150  -9.066 -25.475  0.00  0.00    +0.011 C 
ATOM     27  C   UNL     1      31.539 -11.353 -21.922  0.00  0.00    +0.102 C 
BRANCH  25  28
ATOM     28  O   UNL     1      33.580  -6.775 -25.149  0.00  0.00    -0.476 OA
ATOM     29  C   UNL     1      33.933  -6.512 -26.507  0.00  0.00    +0.252 C 
ENDBRANCH  25  28
ENDBRANCH  17  20
ENDBRANCH  16  17
ENDBRANCH   5  16
TORSDOF 5
ENDMDL
MODEL 9
REMARK VINA RESULT:     -10.9      6.992     12.591
REMARK  Name = 24864821
REMARK  5 active torsions:
REMARK  status: ('A' for Active; 'I' for Inactive)
REMARK    1  A    between atoms: C_5  and  C_16
REMARK    2  A    between atoms: C_7  and  C_10
REMARK    3  A    between atoms: C_16  and  O_17
REMARK    4  A    between atoms: O_17  and  C_20
REMARK    5  A    between atoms: C_25  and  O_28
REMARK                            x       y       z     vdW  Elec       q    Type
REMARK                         _______ _______ _______ _____ _____    ______ ____
ROOT
ATOM      1  N   UNL     1      32.927 -11.745 -24.924  0.00  0.00    -0.191 N 
ATOM      2  N   UNL     1      32.766 -11.176 -23.703  0.00  0.00    -0.163 NA
ATOM      3  N   UNL     1      33.213 -13.249 -26.493  0.00  0.00    -0.128 NA
ATOM      4  N   UNL     1      33.124 -12.010 -27.094  0.00  0.00    -0.127 NA
ATOM      5  C   UNL     1      33.094 -13.072 -25.197  0.00  0.00    +0.208 A 
ATOM      6  C   UNL     1      32.952 -11.115 -26.146  0.00  0.00    +0.186 A 
ATOM      7  C   UNL     1      32.617  -9.882 -23.742  0.00  0.00    +0.101 C 
ATOM      8  C   UNL     1      32.807  -9.714 -26.155  0.00  0.00    +0.042 C 
ATOM      9  C   UNL     1      32.641  -9.063 -24.996  0.00  0.00    +0.024 C 
ENDROOT
BRANCH   7  10
ATOM     10  C   UNL     1      32.428  -9.141 -22.467  0.00  0.00    +0.019 C 
ATOM     11  C   UNL     1      31.584  -9.653 -21.482  0.00  0.00    +0.002 C 
ATOM     12  C   UNL     1      33.097  -7.936 -22.255  0.00  0.00    +0.002 C 
ATOM     13  C   UNL     1      31.408  -8.959 -20.285  0.00  0.00    +0.000 C 
ATOM     14  C   UNL     1      32.921  -7.242 -21.059  0.00  0.00    +0.000 C 
ATOM     15  C   UNL     1      32.077  -7.752 -20.073  0.00  0.00    +0.000 C 
ENDBRANCH   7  10
BRANCH   5  16
ATOM     16  C   UNL     1      33.127 -14.130 -24.133  0.00  0.00    +0.272 C 
BRANCH  16  17
ATOM     17  O   UNL     1      34.351 -14.854 -24.235  0.00  0.00    -0.467 OA
BRANCH  17  20
ATOM     18  N   UNL     1      34.050 -18.949 -24.811  0.00  0.00    -0.248 NA
ATOM     19  C   UNL     1      34.493 -17.091 -23.342  0.00  0.00    +0.030 C 
ATOM     20  C   UNL     1      34.258 -16.204 -24.401  0.00  0.00    +0.138 C 
ATOM     21  C   UNL     1      34.376 -18.474 -23.594  0.00  0.00    +0.066 C 
ATOM     22  C   UNL     1      34.836 -16.631 -22.059  0.00  0.00    +0.059 C 
ATOM     23  C   UNL     1      34.610 -19.354 -22.541  0.00  0.00    +0.109 C 
ATOM     24  C   UNL     1      33.921 -16.691 -25.656  0.00  0.00    +0.057 C 
ATOM     25  C   UNL     1      34.951 -18.897 -21.266  0.00  0.00    +0.118 C 
ATOM     26  C   UNL     1      35.064 -17.533 -21.025  0.00  0.00    +0.011 C 
ATOM     27  C   UNL     1      33.831 -18.060 -25.807  0.00  0.00    +0.102 C 
BRANCH  25  28
ATOM     28  O   UNL     1      35.170 -19.788 -20.261  0.00  0.00    -0.476 OA
ATOM     29  C   UNL     1      34.226 -20.849 -20.116  0.00  0.00    +0.252 C 
ENDBRANCH  25  28
ENDBRANCH  17  20
ENDBRANCH  16  17
ENDBRANCH   5  16
TORSDOF 5
ENDMDL
