MODEL 1
REMARK VINA RESULT:     -12.4      0.000      0.000
REMARK  Name = 10361208
REMARK  3 active torsions:
REMARK  status: ('A' for Active; 'I' for Inactive)
REMARK    1  A    between atoms: N_1  and  C_12
REMARK    2  A    between atoms: C_10  and  C_18
REMARK    3  A    between atoms: C_21  and  C_27
REMARK                            x       y       z     vdW  Elec       q    Type
REMARK                         _______ _______ _______ _____ _____    ______ ____
ROOT
ATOM      1  N   UNL     1      34.660 -24.659 -14.092  0.00  0.00    -0.318 N 
ATOM      2  N   UNL     1      33.643 -23.586 -15.851  0.00  0.00    -0.147 NA
ATOM      3  N   UNL     1      32.456 -23.251 -16.415  0.00  0.00    -0.190 N 
ATOM      4  N   UNL     1      30.302 -23.047 -16.784  0.00  0.00    -0.127 NA
ATOM      5  N   UNL     1      30.982 -22.410 -17.803  0.00  0.00    -0.127 NA
ATOM      6  C   UNL     1      33.547 -24.274 -14.736  0.00  0.00    +0.149 C 
ATOM      7  C   UNL     1      32.220 -24.657 -14.136  0.00  0.00    +0.039 C 
ATOM      8  C   UNL     1      31.195 -23.546 -15.957  0.00  0.00    +0.187 A 
ATOM      9  C   UNL     1      31.098 -24.284 -14.762  0.00  0.00    +0.044 C 
ATOM     10  C   UNL     1      32.268 -22.544 -17.566  0.00  0.00    +0.187 A 
ATOM     11  H   UNL     1      34.566 -25.188 -13.266  0.00  0.00    +0.148 HD
ENDROOT
BRANCH   1  12
ATOM     12  C   UNL     1      35.994 -24.332 -14.560  0.00  0.00    +0.070 C 
ATOM     13  C   UNL     1      36.774 -23.608 -13.458  0.00  0.00    +0.020 C 
ATOM     14  C   UNL     1      36.716 -25.602 -15.020  0.00  0.00    +0.020 C 
ATOM     15  C   UNL     1      37.159 -24.532 -12.301  0.00  0.00    +0.002 C 
ATOM     16  C   UNL     1      37.100 -26.518 -13.857  0.00  0.00    +0.002 C 
ATOM     17  C   UNL     1      37.898 -25.772 -12.792  0.00  0.00    +0.000 C 
ENDBRANCH   1  12
BRANCH  10  18
ATOM     18  C   UNL     1      33.342 -22.028 -18.382  0.00  0.00    +0.038 C 
ATOM     19  C   UNL     1      33.061 -21.168 -19.443  0.00  0.00    +0.007 C 
ATOM     20  C   UNL     1      34.659 -22.392 -18.108  0.00  0.00    +0.003 C 
ATOM     21  C   UNL     1      34.099 -20.671 -20.231  0.00  0.00    +0.072 C 
ATOM     22  C   UNL     1      35.698 -21.896 -18.896  0.00  0.00    +0.000 C 
ATOM     23  C   UNL     1      35.417 -21.035 -19.958  0.00  0.00    +0.004 C 
BRANCH  21  27
ATOM     24  F   UNL     1      34.110 -18.445 -21.106  0.00  0.00    -0.166 F 
ATOM     25  F   UNL     1      34.478 -20.056 -22.511  0.00  0.00    -0.166 F 
ATOM     26  F   UNL     1      32.479 -19.752 -21.709  0.00  0.00    -0.166 F 
ATOM     27  C   UNL     1      33.801 -19.750 -21.365  0.00  0.00    +0.419 C 
ENDBRANCH  21  27
ENDBRANCH  10  18
TORSDOF 3
ENDMDL
MODEL 2
REMARK VINA RESULT:     -12.2      3.206      5.169
REMARK  Name = 10361208
REMARK  3 active torsions:
REMARK  status: ('A' for Active; 'I' for Inactive)
REMARK    1  A    between atoms: N_1  and  C_12
REMARK    2  A    between atoms: C_10  and  C_18
REMARK    3  A    between atoms: C_21  and  C_27
REMARK                            x       y       z     vdW  Elec       q    Type
REMARK                         _______ _______ _______ _____ _____    ______ ____
ROOT
ATOM      1  N   UNL     1      36.579 -22.961 -14.609  0.00  0.00    -0.318 N 
ATOM      2  N   UNL     1      34.651 -22.919 -15.858  0.00  0.00    -0.147 NA
ATOM      3  N   UNL     1      34.115 -22.633 -17.071  0.00  0.00    -0.190 N 
ATOM      4  N   UNL     1      33.899 -22.010 -19.165  0.00  0.00    -0.127 NA
ATOM      5  N   UNL     1      32.659 -22.387 -18.691  0.00  0.00    -0.127 NA
ATOM      6  C   UNL     1      35.944 -22.712 -15.766  0.00  0.00    +0.149 C 
ATOM      7  C   UNL     1      36.764 -22.198 -16.920  0.00  0.00    +0.039 C 
ATOM      8  C   UNL     1      34.766 -22.162 -18.186  0.00  0.00    +0.187 A 
ATOM      9  C   UNL     1      36.151 -21.941 -18.081  0.00  0.00    +0.044 C 
ATOM     10  C   UNL     1      32.807 -22.755 -17.438  0.00  0.00    +0.187 A 
ATOM     11  H   UNL     1      37.547 -22.784 -14.556  0.00  0.00    +0.148 HD
ENDROOT
BRANCH   1  12
ATOM     12  C   UNL     1      35.902 -23.479 -13.436  0.00  0.00    +0.070 C 
ATOM     13  C   UNL     1      35.530 -24.950 -13.649  0.00  0.00    +0.020 C 
ATOM     14  C   UNL     1      36.783 -23.295 -12.196  0.00  0.00    +0.020 C 
ATOM     15  C   UNL     1      36.747 -25.875 -13.636  0.00  0.00    +0.002 C 
ATOM     16  C   UNL     1      37.996 -24.227 -12.189  0.00  0.00    +0.002 C 
ATOM     17  C   UNL     1      37.587 -25.685 -12.378  0.00  0.00    +0.000 C 
ENDBRANCH   1  12
BRANCH  10  18
ATOM     18  C   UNL     1      31.763 -23.226 -16.560  0.00  0.00    +0.038 C 
ATOM     19  C   UNL     1      30.426 -23.105 -16.937  0.00  0.00    +0.007 C 
ATOM     20  C   UNL     1      32.093 -23.799 -15.332  0.00  0.00    +0.003 C 
ATOM     21  C   UNL     1      29.418 -23.559 -16.088  0.00  0.00    +0.072 C 
ATOM     22  C   UNL     1      31.085 -24.252 -14.481  0.00  0.00    +0.000 C 
ATOM     23  C   UNL     1      29.747 -24.132 -14.859  0.00  0.00    +0.004 C 
BRANCH  21  27
ATOM     24  F   UNL     1      27.149 -23.149 -15.451  0.00  0.00    -0.166 F 
ATOM     25  F   UNL     1      27.763 -22.448 -17.409  0.00  0.00    -0.166 F 
ATOM     26  F   UNL     1      27.499 -24.577 -17.055  0.00  0.00    -0.166 F 
ATOM     27  C   UNL     1      27.988 -23.433 -16.491  0.00  0.00    +0.419 C 
ENDBRANCH  21  27
ENDBRANCH  10  18
TORSDOF 3
ENDMDL
MODEL 3
REMARK VINA RESULT:     -11.5      8.893     13.479
REMARK  Name = 10361208
REMARK  3 active torsions:
REMARK  status: ('A' for Active; 'I' for Inactive)
REMARK    1  A    between atoms: N_1  and  C_12
REMARK    2  A    between atoms: C_10  and  C_18
REMARK    3  A    between atoms: C_21  and  C_27
REMARK                            x       y       z     vdW  Elec       q    Type
REMARK                         _______ _______ _______ _____ _____    ______ ____
ROOT
ATOM      1  N   UNL     1      32.927 -10.974 -25.390  0.00  0.00    -0.318 N 
ATOM      2  N   UNL     1      33.212 -13.254 -25.375  0.00  0.00    -0.147 NA
ATOM      3  N   UNL     1      33.099 -14.395 -26.098  0.00  0.00    -0.190 N 
ATOM      4  N   UNL     1      32.695 -15.799 -27.737  0.00  0.00    -0.127 NA
ATOM      5  N   UNL     1      33.164 -16.515 -26.655  0.00  0.00    -0.127 NA
ATOM      6  C   UNL     1      32.855 -12.162 -26.011  0.00  0.00    +0.149 C 
ATOM      7  C   UNL     1      32.359 -12.183 -27.433  0.00  0.00    +0.039 C 
ATOM      8  C   UNL     1      32.661 -14.529 -27.393  0.00  0.00    +0.187 A 
ATOM      9  C   UNL     1      32.279 -13.356 -28.071  0.00  0.00    +0.044 C 
ATOM     10  C   UNL     1      33.399 -15.660 -25.684  0.00  0.00    +0.187 A 
ATOM     11  H   UNL     1      32.639 -10.169 -25.879  0.00  0.00    +0.148 HD
ENDROOT
BRANCH   1  12
ATOM     12  C   UNL     1      33.409 -10.825 -24.030  0.00  0.00    +0.070 C 
ATOM     13  C   UNL     1      34.707 -10.011 -24.018  0.00  0.00    +0.020 C 
ATOM     14  C   UNL     1      32.329 -10.176 -23.158  0.00  0.00    +0.020 C 
ATOM     15  C   UNL     1      34.481  -8.533 -24.343  0.00  0.00    +0.002 C 
ATOM     16  C   UNL     1      32.112  -8.698 -23.487  0.00  0.00    +0.002 C 
ATOM     17  C   UNL     1      33.420  -7.913 -23.441  0.00  0.00    +0.000 C 
ENDBRANCH   1  12
BRANCH  10  18
ATOM     18  C   UNL     1      33.901 -15.982 -24.370  0.00  0.00    +0.038 C 
ATOM     19  C   UNL     1      34.159 -17.308 -24.026  0.00  0.00    +0.007 C 
ATOM     20  C   UNL     1      34.127 -14.964 -23.443  0.00  0.00    +0.003 C 
ATOM     21  C   UNL     1      34.644 -17.617 -22.756  0.00  0.00    +0.072 C 
ATOM     22  C   UNL     1      34.611 -15.273 -22.172  0.00  0.00    +0.000 C 
ATOM     23  C   UNL     1      34.869 -16.601 -21.828  0.00  0.00    +0.004 C 
BRANCH  21  27
ATOM     24  F   UNL     1      36.130 -19.215 -21.776  0.00  0.00    -0.166 F 
ATOM     25  F   UNL     1      34.004 -19.567 -21.527  0.00  0.00    -0.166 F 
ATOM     26  F   UNL     1      34.933 -19.867 -23.470  0.00  0.00    -0.166 F 
ATOM     27  C   UNL     1      34.922 -19.036 -22.387  0.00  0.00    +0.419 C 
ENDBRANCH  21  27
ENDBRANCH  10  18
TORSDOF 3
ENDMDL
MODEL 4
REMARK VINA RESULT:     -11.3      4.375      7.371
REMARK  Name = 10361208
REMARK  3 active torsions:
REMARK  status: ('A' for Active; 'I' for Inactive)
REMARK    1  A    between atoms: N_1  and  C_12
REMARK    2  A    between atoms: C_10  and  C_18
REMARK    3  A    between atoms: C_21  and  C_27
REMARK                            x       y       z     vdW  Elec       q    Type
REMARK                         _______ _______ _______ _____ _____    ______ ____
ROOT
ATOM      1  N   UNL     1      31.089 -23.114 -17.240  0.00  0.00    -0.318 N 
ATOM      2  N   UNL     1      33.337 -23.012 -16.778  0.00  0.00    -0.147 NA
ATOM      3  N   UNL     1      34.549 -22.601 -17.228  0.00  0.00    -0.190 N 
ATOM      4  N   UNL     1      36.127 -21.728 -18.480  0.00  0.00    -0.127 NA
ATOM      5  N   UNL     1      36.706 -22.225 -17.330  0.00  0.00    -0.127 NA
ATOM      6  C   UNL     1      32.334 -22.751 -17.586  0.00  0.00    +0.149 C 
ATOM      7  C   UNL     1      32.522 -22.051 -18.905  0.00  0.00    +0.039 C 
ATOM      8  C   UNL     1      34.833 -21.957 -18.408  0.00  0.00    +0.187 A 
ATOM      9  C   UNL     1      33.755 -21.681 -19.269  0.00  0.00    +0.044 C 
ATOM     10  C   UNL     1      35.749 -22.744 -16.595  0.00  0.00    +0.187 A 
ATOM     11  H   UNL     1      30.353 -22.924 -17.867  0.00  0.00    +0.148 HD
ENDROOT
BRANCH   1  12
ATOM     12  C   UNL     1      30.780 -23.775 -15.986  0.00  0.00    +0.070 C 
ATOM     13  C   UNL     1      30.254 -22.756 -14.971  0.00  0.00    +0.020 C 
ATOM     14  C   UNL     1      29.774 -24.907 -16.221  0.00  0.00    +0.020 C 
ATOM     15  C   UNL     1      28.852 -22.250 -15.312  0.00  0.00    +0.002 C 
ATOM     16  C   UNL     1      28.374 -24.393 -16.559  0.00  0.00    +0.002 C 
ATOM     17  C   UNL     1      27.872 -23.401 -15.514  0.00  0.00    +0.000 C 
ENDBRANCH   1  12
BRANCH  10  18
ATOM     18  C   UNL     1      35.911 -23.374 -15.306  0.00  0.00    +0.038 C 
ATOM     19  C   UNL     1      37.008 -24.202 -15.068  0.00  0.00    +0.007 C 
ATOM     20  C   UNL     1      34.970 -23.155 -14.301  0.00  0.00    +0.003 C 
ATOM     21  C   UNL     1      37.163 -24.811 -13.823  0.00  0.00    +0.072 C 
ATOM     22  C   UNL     1      35.125 -23.764 -13.056  0.00  0.00    +0.000 C 
ATOM     23  C   UNL     1      36.223 -24.592 -12.817  0.00  0.00    +0.004 C 
BRANCH  21  27
ATOM     24  F   UNL     1      38.634 -26.527 -14.608  0.00  0.00    -0.166 F 
ATOM     25  F   UNL     1      39.491 -25.013 -13.312  0.00  0.00    -0.166 F 
ATOM     26  F   UNL     1      38.151 -26.513 -12.487  0.00  0.00    -0.166 F 
ATOM     27  C   UNL     1      38.336 -25.696 -13.566  0.00  0.00    +0.419 C 
ENDBRANCH  21  27
ENDBRANCH  10  18
TORSDOF 3
ENDMDL
MODEL 5
REMARK VINA RESULT:     -11.2      9.674     13.397
REMARK  Name = 10361208
REMARK  3 active torsions:
REMARK  status: ('A' for Active; 'I' for Inactive)
REMARK    1  A    between atoms: N_1  and  C_12
REMARK    2  A    between atoms: C_10  and  C_18
REMARK    3  A    between atoms: C_21  and  C_27
REMARK                            x       y       z     vdW  Elec       q    Type
REMARK                         _______ _______ _______ _____ _____    ______ ____
ROOT
ATOM      1  N   UNL     1      33.118 -11.276 -25.438  0.00  0.00    -0.318 N 
ATOM      2  N   UNL     1      33.329 -13.564 -25.463  0.00  0.00    -0.147 NA
ATOM      3  N   UNL     1      33.112 -14.695 -26.179  0.00  0.00    -0.190 N 
ATOM      4  N   UNL     1      32.515 -16.070 -27.783  0.00  0.00    -0.127 NA
ATOM      5  N   UNL     1      33.056 -16.810 -26.752  0.00  0.00    -0.127 NA
ATOM      6  C   UNL     1      32.951 -12.456 -26.058  0.00  0.00    +0.149 C 
ATOM      7  C   UNL     1      32.328 -12.448 -27.428  0.00  0.00    +0.039 C 
ATOM      8  C   UNL     1      32.554 -14.803 -27.430  0.00  0.00    +0.187 A 
ATOM      9  C   UNL     1      32.151 -13.612 -28.063  0.00  0.00    +0.044 C 
ATOM     10  C   UNL     1      33.407 -15.972 -25.802  0.00  0.00    +0.187 A 
ATOM     11  H   UNL     1      32.814 -10.458 -25.895  0.00  0.00    +0.148 HD
ENDROOT
BRANCH   1  12
ATOM     12  C   UNL     1      33.726 -11.155 -24.127  0.00  0.00    +0.070 C 
ATOM     13  C   UNL     1      34.878 -10.145 -24.173  0.00  0.00    +0.020 C 
ATOM     14  C   UNL     1      32.669 -10.756 -23.092  0.00  0.00    +0.020 C 
ATOM     15  C   UNL     1      34.394  -8.703 -24.335  0.00  0.00    +0.002 C 
ATOM     16  C   UNL     1      32.194  -9.312 -23.258  0.00  0.00    +0.002 C 
ATOM     17  C   UNL     1      33.364  -8.333 -23.274  0.00  0.00    +0.000 C 
ENDBRANCH   1  12
BRANCH  10  18
ATOM     18  C   UNL     1      34.016 -16.321 -24.541  0.00  0.00    +0.038 C 
ATOM     19  C   UNL     1      33.918 -15.453 -23.454  0.00  0.00    +0.007 C 
ATOM     20  C   UNL     1      34.703 -17.528 -24.410  0.00  0.00    +0.003 C 
ATOM     21  C   UNL     1      34.507 -15.791 -22.236  0.00  0.00    +0.072 C 
ATOM     22  C   UNL     1      35.293 -17.866 -23.192  0.00  0.00    +0.000 C 
ATOM     23  C   UNL     1      35.195 -16.997 -22.105  0.00  0.00    +0.004 C 
BRANCH  21  27
ATOM     24  F   UNL     1      35.345 -13.876 -21.073  0.00  0.00    -0.166 F 
ATOM     25  F   UNL     1      33.204 -14.212 -20.999  0.00  0.00    -0.166 F 
ATOM     26  F   UNL     1      34.543 -15.505 -19.876  0.00  0.00    -0.166 F 
ATOM     27  C   UNL     1      34.402 -14.863 -21.073  0.00  0.00    +0.419 C 
ENDBRANCH  21  27
ENDBRANCH  10  18
TORSDOF 3
ENDMDL
MODEL 6
REMARK VINA RESULT:     -11.2      3.838      5.614
REMARK  Name = 10361208
REMARK  3 active torsions:
REMARK  status: ('A' for Active; 'I' for Inactive)
REMARK    1  A    between atoms: N_1  and  C_12
REMARK    2  A    between atoms: C_10  and  C_18
REMARK    3  A    between atoms: C_21  and  C_27
REMARK                            x       y       z     vdW  Elec       q    Type
REMARK                         _______ _______ _______ _____ _____    ______ ____
ROOT
ATOM      1  N   UNL     1      36.457 -23.055 -14.953  0.00  0.00    -0.318 N 
ATOM      2  N   UNL     1      34.529 -22.831 -16.181  0.00  0.00    -0.147 NA
ATOM      3  N   UNL     1      34.008 -22.476 -17.383  0.00  0.00    -0.190 N 
ATOM      4  N   UNL     1      33.826 -21.793 -19.461  0.00  0.00    -0.127 NA
ATOM      5  N   UNL     1      32.563 -22.079 -18.983  0.00  0.00    -0.127 NA
ATOM      6  C   UNL     1      35.835 -22.731 -16.098  0.00  0.00    +0.149 C 
ATOM      7  C   UNL     1      36.684 -22.260 -17.249  0.00  0.00    +0.039 C 
ATOM      8  C   UNL     1      34.685 -22.035 -18.494  0.00  0.00    +0.187 A 
ATOM      9  C   UNL     1      36.085 -21.930 -18.399  0.00  0.00    +0.044 C 
ATOM     10  C   UNL     1      32.691 -22.485 -17.740  0.00  0.00    +0.187 A 
ATOM     11  H   UNL     1      37.436 -22.958 -14.905  0.00  0.00    +0.148 HD
ENDROOT
BRANCH   1  12
ATOM     12  C   UNL     1      35.749 -23.542 -13.784  0.00  0.00    +0.070 C 
ATOM     13  C   UNL     1      35.445 -25.035 -13.937  0.00  0.00    +0.020 C 
ATOM     14  C   UNL     1      36.568 -23.261 -12.519  0.00  0.00    +0.020 C 
ATOM     15  C   UNL     1      36.696 -25.908 -13.826  0.00  0.00    +0.002 C 
ATOM     16  C   UNL     1      37.814 -24.140 -12.414  0.00  0.00    +0.002 C 
ATOM     17  C   UNL     1      37.472 -25.621 -12.545  0.00  0.00    +0.000 C 
ENDBRANCH   1  12
BRANCH  10  18
ATOM     18  C   UNL     1      31.620 -22.888 -16.861  0.00  0.00    +0.038 C 
ATOM     19  C   UNL     1      31.908 -23.380 -15.588  0.00  0.00    +0.007 C 
ATOM     20  C   UNL     1      30.296 -22.786 -17.286  0.00  0.00    +0.003 C 
ATOM     21  C   UNL     1      30.872 -23.770 -14.741  0.00  0.00    +0.072 C 
ATOM     22  C   UNL     1      29.259 -23.176 -16.438  0.00  0.00    +0.000 C 
ATOM     23  C   UNL     1      29.548 -23.668 -15.165  0.00  0.00    +0.004 C 
BRANCH  21  27
ATOM     24  F   UNL     1      30.069 -24.649 -12.666  0.00  0.00    -0.166 F 
ATOM     25  F   UNL     1      31.967 -25.411 -13.387  0.00  0.00    -0.166 F 
ATOM     26  F   UNL     1      31.839 -23.387 -12.602  0.00  0.00    -0.166 F 
ATOM     27  C   UNL     1      31.179 -24.295 -13.379  0.00  0.00    +0.419 C 
ENDBRANCH  21  27
ENDBRANCH  10  18
TORSDOF 3
ENDMDL
MODEL 7
REMARK VINA RESULT:     -11.1      1.876      2.381
REMARK  Name = 10361208
REMARK  3 active torsions:
REMARK  status: ('A' for Active; 'I' for Inactive)
REMARK    1  A    between atoms: N_1  and  C_12
REMARK    2  A    between atoms: C_10  and  C_18
REMARK    3  A    between atoms: C_21  and  C_27
REMARK                            x       y       z     vdW  Elec       q    Type
REMARK                         _______ _______ _______ _____ _____    ______ ____
ROOT
ATOM      1  N   UNL     1      34.535 -24.671 -13.790  0.00  0.00    -0.318 N 
ATOM      2  N   UNL     1      33.273 -23.729 -15.463  0.00  0.00    -0.147 NA
ATOM      3  N   UNL     1      32.015 -23.508 -15.920  0.00  0.00    -0.190 N 
ATOM      4  N   UNL     1      29.827 -23.496 -16.090  0.00  0.00    -0.127 NA
ATOM      5  N   UNL     1      30.353 -22.828 -17.176  0.00  0.00    -0.127 NA
ATOM      6  C   UNL     1      33.339 -24.396 -14.334  0.00  0.00    +0.149 C 
ATOM      7  C   UNL     1      32.110 -24.876 -13.608  0.00  0.00    +0.039 C 
ATOM      8  C   UNL     1      30.832 -23.898 -15.341  0.00  0.00    +0.187 A 
ATOM      9  C   UNL     1      30.908 -24.614 -14.132  0.00  0.00    +0.044 C 
ATOM     10  C   UNL     1      31.662 -22.846 -17.059  0.00  0.00    +0.187 A 
ATOM     11  H   UNL     1      34.564 -25.187 -12.952  0.00  0.00    +0.148 HD
ENDROOT
BRANCH   1  12
ATOM     12  C   UNL     1      35.787 -24.243 -14.385  0.00  0.00    +0.070 C 
ATOM     13  C   UNL     1      36.662 -23.557 -13.331  0.00  0.00    +0.020 C 
ATOM     14  C   UNL     1      36.504 -25.439 -15.020  0.00  0.00    +0.020 C 
ATOM     15  C   UNL     1      37.224 -24.536 -12.300  0.00  0.00    +0.002 C 
ATOM     16  C   UNL     1      37.065 -26.411 -13.982  0.00  0.00    +0.002 C 
ATOM     17  C   UNL     1      37.952 -25.699 -12.965  0.00  0.00    +0.000 C 
ENDBRANCH   1  12
BRANCH  10  18
ATOM     18  C   UNL     1      32.608 -22.261 -17.979  0.00  0.00    +0.038 C 
ATOM     19  C   UNL     1      33.972 -22.291 -17.691  0.00  0.00    +0.007 C 
ATOM     20  C   UNL     1      32.156 -21.663 -19.155  0.00  0.00    +0.003 C 
ATOM     21  C   UNL     1      34.885 -21.725 -18.579  0.00  0.00    +0.072 C 
ATOM     22  C   UNL     1      33.069 -21.096 -20.044  0.00  0.00    +0.000 C 
ATOM     23  C   UNL     1      34.434 -21.127 -19.756  0.00  0.00    +0.004 C 
BRANCH  21  27
ATOM     24  F   UNL     1      36.832 -20.573 -17.803  0.00  0.00    -0.166 F 
ATOM     25  F   UNL     1      36.684 -22.684 -17.329  0.00  0.00    -0.166 F 
ATOM     26  F   UNL     1      37.103 -22.057 -19.369  0.00  0.00    -0.166 F 
ATOM     27  C   UNL     1      36.344 -21.758 -18.274  0.00  0.00    +0.419 C 
ENDBRANCH  21  27
ENDBRANCH  10  18
TORSDOF 3
ENDMDL
MODEL 8
REMARK VINA RESULT:     -10.1     12.334     15.353
REMARK  Name = 10361208
REMARK  3 active torsions:
REMARK  status: ('A' for Active; 'I' for Inactive)
REMARK    1  A    between atoms: N_1  and  C_12
REMARK    2  A    between atoms: C_10  and  C_18
REMARK    3  A    between atoms: C_21  and  C_27
REMARK                            x       y       z     vdW  Elec       q    Type
REMARK                         _______ _______ _______ _____ _____    ______ ____
ROOT
ATOM      1  N   UNL     1      30.998  -8.171 -21.427  0.00  0.00    -0.318 N 
ATOM      2  N   UNL     1      31.875 -10.144 -22.212  0.00  0.00    -0.147 NA
ATOM      3  N   UNL     1      32.128 -11.445 -21.921  0.00  0.00    -0.190 N 
ATOM      4  N   UNL     1      32.248 -13.363 -20.860  0.00  0.00    -0.127 NA
ATOM      5  N   UNL     1      32.797 -13.523 -22.116  0.00  0.00    -0.127 NA
ATOM      6  C   UNL     1      31.294  -9.468 -21.247  0.00  0.00    +0.149 C 
ATOM      7  C   UNL     1      30.939 -10.093 -19.924  0.00  0.00    +0.039 C 
ATOM      8  C   UNL     1      31.848 -12.114 -20.754  0.00  0.00    +0.187 A 
ATOM      9  C   UNL     1      31.227 -11.384 -19.723  0.00  0.00    +0.044 C 
ATOM     10  C   UNL     1      32.718 -12.366 -22.735  0.00  0.00    +0.187 A 
ATOM     11  H   UNL     1      30.577  -7.678 -20.685  0.00  0.00    +0.148 HD
ENDROOT
BRANCH   1  12
ATOM     12  C   UNL     1      31.271  -7.465 -22.664  0.00  0.00    +0.070 C 
ATOM     13  C   UNL     1      30.070  -6.595 -23.049  0.00  0.00    +0.020 C 
ATOM     14  C   UNL     1      32.549  -6.632 -22.523  0.00  0.00    +0.020 C 
ATOM     15  C   UNL     1      29.899  -5.385 -22.130  0.00  0.00    +0.002 C 
ATOM     16  C   UNL     1      32.367  -5.422 -21.605  0.00  0.00    +0.002 C 
ATOM     17  C   UNL     1      31.180  -4.564 -22.032  0.00  0.00    +0.000 C 
ENDBRANCH   1  12
BRANCH  10  18
ATOM     18  C   UNL     1      33.175 -12.084 -24.075  0.00  0.00    +0.038 C 
ATOM     19  C   UNL     1      34.055 -11.027 -24.304  0.00  0.00    +0.007 C 
ATOM     20  C   UNL     1      32.734 -12.869 -25.140  0.00  0.00    +0.003 C 
ATOM     21  C   UNL     1      34.496 -10.755 -25.598  0.00  0.00    +0.072 C 
ATOM     22  C   UNL     1      33.174 -12.597 -26.436  0.00  0.00    +0.000 C 
ATOM     23  C   UNL     1      34.056 -11.539 -26.665  0.00  0.00    +0.004 C 
BRANCH  21  27
ATOM     24  F   UNL     1      35.225  -8.983 -27.031  0.00  0.00    -0.166 F 
ATOM     25  F   UNL     1      35.382  -8.648 -24.894  0.00  0.00    -0.166 F 
ATOM     26  F   UNL     1      36.743 -10.029 -25.877  0.00  0.00    -0.166 F 
ATOM     27  C   UNL     1      35.439  -9.626 -25.845  0.00  0.00    +0.419 C 
ENDBRANCH  21  27
ENDBRANCH  10  18
TORSDOF 3
ENDMDL
MODEL 9
REMARK VINA RESULT:     -10.0      6.647     10.001
REMARK  Name = 10361208
REMARK  3 active torsions:
REMARK  status: ('A' for Active; 'I' for Inactive)
REMARK    1  A    between atoms: N_1  and  C_12
REMARK    2  A    between atoms: C_10  and  C_18
REMARK    3  A    between atoms: C_21  and  C_27
REMARK                            x       y       z     vdW  Elec       q    Type
REMARK                         _______ _______ _______ _____ _____    ______ ____
ROOT
ATOM      1  N   UNL     1      35.094 -17.088 -21.302  0.00  0.00    -0.318 N 
ATOM      2  N   UNL     1      34.085 -15.711 -22.840  0.00  0.00    -0.147 NA
ATOM      3  N   UNL     1      33.597 -14.466 -23.069  0.00  0.00    -0.190 N 
ATOM      4  N   UNL     1      33.016 -12.367 -22.796  0.00  0.00    -0.127 NA
ATOM      5  N   UNL     1      32.674 -12.752 -24.076  0.00  0.00    -0.127 NA
ATOM      6  C   UNL     1      34.583 -15.893 -21.638  0.00  0.00    +0.149 C 
ATOM      7  C   UNL     1      34.609 -14.801 -20.602  0.00  0.00    +0.039 C 
ATOM      8  C   UNL     1      33.570 -13.402 -22.201  0.00  0.00    +0.187 A 
ATOM      9  C   UNL     1      34.104 -13.602 -20.915  0.00  0.00    +0.044 C 
ATOM     10  C   UNL     1      33.028 -14.009 -24.222  0.00  0.00    +0.187 A 
ATOM     11  H   UNL     1      35.448 -17.209 -20.391  0.00  0.00    +0.148 HD
ENDROOT
BRANCH   1  12
ATOM     12  C   UNL     1      35.145 -18.209 -22.222  0.00  0.00    +0.070 C 
ATOM     13  C   UNL     1      36.421 -19.024 -21.987  0.00  0.00    +0.020 C 
ATOM     14  C   UNL     1      33.888 -19.073 -22.068  0.00  0.00    +0.020 C 
ATOM     15  C   UNL     1      36.388 -19.808 -20.674  0.00  0.00    +0.002 C 
ATOM     16  C   UNL     1      33.866 -19.856 -20.755  0.00  0.00    +0.002 C 
ATOM     17  C   UNL     1      35.139 -20.675 -20.566  0.00  0.00    +0.000 C 
ENDBRANCH   1  12
BRANCH  10  18
ATOM     18  C   UNL     1      32.855 -14.811 -25.409  0.00  0.00    +0.038 C 
ATOM     19  C   UNL     1      32.650 -16.186 -25.300  0.00  0.00    +0.007 C 
ATOM     20  C   UNL     1      32.895 -14.209 -26.667  0.00  0.00    +0.003 C 
ATOM     21  C   UNL     1      32.484 -16.959 -26.448  0.00  0.00    +0.072 C 
ATOM     22  C   UNL     1      32.730 -14.982 -27.816  0.00  0.00    +0.000 C 
ATOM     23  C   UNL     1      32.524 -16.359 -27.706  0.00  0.00    +0.004 C 
BRANCH  21  27
ATOM     24  F   UNL     1      33.412 -19.144 -26.149  0.00  0.00    -0.166 F 
ATOM     25  F   UNL     1      31.454 -18.781 -25.290  0.00  0.00    -0.166 F 
ATOM     26  F   UNL     1      31.675 -18.961 -27.445  0.00  0.00    -0.166 F 
ATOM     27  C   UNL     1      32.262 -18.430 -26.333  0.00  0.00    +0.419 C 
ENDBRANCH  21  27
ENDBRANCH  10  18
TORSDOF 3
ENDMDL
