MODEL 1
REMARK VINA RESULT:     -12.7      0.000      0.000
REMARK  Name = 23586146
REMARK  5 active torsions:
REMARK  status: ('A' for Active; 'I' for Inactive)
REMARK    1  A    between atoms: N_1  and  C_12
REMARK    2  A    between atoms: C_8  and  N_18
REMARK    3  A    between atoms: N_18  and  C_20
REMARK    4  A    between atoms: C_23  and  S_26
REMARK    5  A    between atoms: S_26  and  N_29
REMARK                            x       y       z     vdW  Elec       q    Type
REMARK                         _______ _______ _______ _____ _____    ______ ____
ROOT
ATOM      1  N   UNL     1      35.312 -24.449 -14.416  0.00  0.00    -0.309 N 
ATOM      2  N   UNL     1      33.072 -23.958 -14.312  0.00  0.00    -0.321 NA
ATOM      3  N   UNL     1      31.941 -23.275 -16.318  0.00  0.00    -0.106 N 
ATOM      4  N   UNL     1      30.687 -22.909 -16.697  0.00  0.00    -0.139 NA
ATOM      5  N   UNL     1      30.723 -23.386 -14.471  0.00  0.00    -0.145 NA
ATOM      6  C   UNL     1      34.175 -24.062 -15.016  0.00  0.00    +0.196 C 
ATOM      7  C   UNL     1      34.232 -23.764 -16.490  0.00  0.00    +0.081 C 
ATOM      8  C   UNL     1      33.098 -23.377 -17.094  0.00  0.00    +0.140 C 
ATOM      9  C   UNL     1      31.938 -23.563 -14.952  0.00  0.00    +0.176 C 
ATOM     10  C   UNL     1      30.009 -22.994 -15.557  0.00  0.00    +0.230 C 
ATOM     11  H   UNL     1      36.133 -24.507 -14.955  0.00  0.00    +0.149 HD
ENDROOT
BRANCH   1  12
ATOM     12  C   UNL     1      35.382 -24.785 -13.006  0.00  0.00    +0.071 C 
ATOM     13  C   UNL     1      36.433 -25.876 -12.777  0.00  0.00    +0.020 C 
ATOM     14  C   UNL     1      35.685 -23.530 -12.181  0.00  0.00    +0.020 C 
ATOM     15  C   UNL     1      37.863 -25.368 -12.961  0.00  0.00    +0.002 C 
ATOM     16  C   UNL     1      37.118 -23.031 -12.367  0.00  0.00    +0.002 C 
ATOM     17  C   UNL     1      38.138 -24.135 -12.107  0.00  0.00    +0.000 C 
ENDBRANCH   1  12
BRANCH   8  18
ATOM     18  N   UNL     1      33.000 -23.073 -18.421  0.00  0.00    -0.299 N 
ATOM     19  H   UNL     1      32.379 -23.630 -18.944  0.00  0.00    +0.153 HD
BRANCH  18  20
ATOM     20  C   UNL     1      33.669 -22.071 -19.134  0.00  0.00    +0.049 C 
ATOM     21  C   UNL     1      32.942 -21.141 -19.878  0.00  0.00    +0.016 C 
ATOM     22  C   UNL     1      35.061 -22.002 -19.101  0.00  0.00    +0.016 C 
ATOM     23  C   UNL     1      35.001 -20.074 -20.554  0.00  0.00    +0.122 C 
ATOM     24  C   UNL     1      33.608 -20.142 -20.588  0.00  0.00    +0.021 C 
ATOM     25  C   UNL     1      35.727 -21.003 -19.811  0.00  0.00    +0.021 C 
BRANCH  23  26
ATOM     26  S   UNL     1      35.834 -18.824 -21.443  0.00  0.00    +0.057 S 
ATOM     27  O   UNL     1      37.266 -18.986 -21.232  0.00  0.00    -0.153 OA
ATOM     28  O   UNL     1      35.302 -18.785 -22.798  0.00  0.00    -0.153 OA
BRANCH  26  29
ATOM     29  N   UNL     1      35.311 -17.427 -20.609  0.00  0.00    -0.203 NA
ATOM     30  H   UNL     1      35.875 -17.300 -19.770  0.00  0.00    +0.144 HD
ATOM     31  H   UNL     1      34.331 -17.534 -20.347  0.00  0.00    +0.144 HD
ENDBRANCH  26  29
ENDBRANCH  23  26
ENDBRANCH  18  20
ENDBRANCH   8  18
TORSDOF 5
ENDMDL
MODEL 2
REMARK VINA RESULT:     -11.2      1.906      5.051
REMARK  Name = 23586146
REMARK  5 active torsions:
REMARK  status: ('A' for Active; 'I' for Inactive)
REMARK    1  A    between atoms: N_1  and  C_12
REMARK    2  A    between atoms: C_8  and  N_18
REMARK    3  A    between atoms: N_18  and  C_20
REMARK    4  A    between atoms: C_23  and  S_26
REMARK    5  A    between atoms: S_26  and  N_29
REMARK                            x       y       z     vdW  Elec       q    Type
REMARK                         _______ _______ _______ _____ _____    ______ ____
ROOT
ATOM      1  N   UNL     1      31.269 -23.626 -16.348  0.00  0.00    -0.309 N 
ATOM      2  N   UNL     1      33.173 -23.565 -15.067  0.00  0.00    -0.321 NA
ATOM      3  N   UNL     1      35.250 -22.949 -16.106  0.00  0.00    -0.106 N 
ATOM      4  N   UNL     1      36.552 -22.791 -15.748  0.00  0.00    -0.139 NA
ATOM      5  N   UNL     1      35.315 -23.427 -13.944  0.00  0.00    -0.145 NA
ATOM      6  C   UNL     1      32.589 -23.409 -16.232  0.00  0.00    +0.196 C 
ATOM      7  C   UNL     1      33.337 -22.992 -17.469  0.00  0.00    +0.081 C 
ATOM      8  C   UNL     1      34.656 -22.775 -17.359  0.00  0.00    +0.140 C 
ATOM      9  C   UNL     1      34.512 -23.338 -14.986  0.00  0.00    +0.176 C 
ATOM     10  C   UNL     1      36.527 -23.089 -14.452  0.00  0.00    +0.230 C 
ATOM     11  H   UNL     1      30.849 -23.519 -17.231  0.00  0.00    +0.149 HD
ENDROOT
BRANCH   1  12
ATOM     12  C   UNL     1      30.434 -24.010 -15.225  0.00  0.00    +0.071 C 
ATOM     13  C   UNL     1      29.720 -22.781 -14.654  0.00  0.00    +0.020 C 
ATOM     14  C   UNL     1      29.436 -25.089 -15.658  0.00  0.00    +0.020 C 
ATOM     15  C   UNL     1      28.626 -22.248 -15.580  0.00  0.00    +0.002 C 
ATOM     16  C   UNL     1      28.343 -24.548 -16.579  0.00  0.00    +0.002 C 
ATOM     17  C   UNL     1      27.637 -23.341 -15.969  0.00  0.00    +0.000 C 
ENDBRANCH   1  12
BRANCH   8  18
ATOM     18  N   UNL     1      35.461 -22.393 -18.394  0.00  0.00    -0.299 N 
ATOM     19  H   UNL     1      36.302 -22.895 -18.491  0.00  0.00    +0.153 HD
BRANCH  18  20
ATOM     20  C   UNL     1      35.242 -21.381 -19.335  0.00  0.00    +0.049 C 
ATOM     21  C   UNL     1      36.319 -20.641 -19.827  0.00  0.00    +0.016 C 
ATOM     22  C   UNL     1      33.949 -21.112 -19.783  0.00  0.00    +0.016 C 
ATOM     23  C   UNL     1      34.806 -19.364 -21.213  0.00  0.00    +0.122 C 
ATOM     24  C   UNL     1      36.101 -19.633 -20.766  0.00  0.00    +0.021 C 
ATOM     25  C   UNL     1      33.732 -20.104 -20.721  0.00  0.00    +0.021 C 
BRANCH  23  26
ATOM     26  S   UNL     1      34.535 -18.102 -22.387  0.00  0.00    +0.057 S 
ATOM     27  O   UNL     1      33.409 -18.489 -23.226  0.00  0.00    -0.153 OA
ATOM     28  O   UNL     1      34.515 -16.820 -21.695  0.00  0.00    -0.153 OA
BRANCH  26  29
ATOM     29  N   UNL     1      35.969 -18.203 -23.312  0.00  0.00    -0.203 NA
ATOM     30  H   UNL     1      35.797 -17.837 -24.247  0.00  0.00    +0.144 HD
ATOM     31  H   UNL     1      36.264 -19.177 -23.377  0.00  0.00    +0.144 HD
ENDBRANCH  26  29
ENDBRANCH  23  26
ENDBRANCH  18  20
ENDBRANCH   8  18
TORSDOF 5
ENDMDL
MODEL 3
REMARK VINA RESULT:     -11.1      5.815     11.469
REMARK  Name = 23586146
REMARK  5 active torsions:
REMARK  status: ('A' for Active; 'I' for Inactive)
REMARK    1  A    between atoms: N_1  and  C_12
REMARK    2  A    between atoms: C_8  and  N_18
REMARK    3  A    between atoms: N_18  and  C_20
REMARK    4  A    between atoms: C_23  and  S_26
REMARK    5  A    between atoms: S_26  and  N_29
REMARK                            x       y       z     vdW  Elec       q    Type
REMARK                         _______ _______ _______ _____ _____    ______ ____
ROOT
ATOM      1  N   UNL     1      33.638 -13.669 -23.603  0.00  0.00    -0.309 N 
ATOM      2  N   UNL     1      33.350 -15.543 -24.898  0.00  0.00    -0.321 NA
ATOM      3  N   UNL     1      34.313 -17.618 -24.165  0.00  0.00    -0.106 N 
ATOM      4  N   UNL     1      34.387 -18.906 -24.596  0.00  0.00    -0.139 NA
ATOM      5  N   UNL     1      33.192 -17.654 -26.076  0.00  0.00    -0.145 NA
ATOM      6  C   UNL     1      33.843 -14.979 -23.820  0.00  0.00    +0.196 C 
ATOM      7  C   UNL     1      34.644 -15.738 -22.797  0.00  0.00    +0.081 C 
ATOM      8  C   UNL     1      34.851 -17.046 -23.010  0.00  0.00    +0.140 C 
ATOM      9  C   UNL     1      33.577 -16.871 -25.087  0.00  0.00    +0.176 C 
ATOM     10  C   UNL     1      33.702 -18.864 -25.734  0.00  0.00    +0.230 C 
ATOM     11  H   UNL     1      34.028 -13.259 -22.798  0.00  0.00    +0.149 HD
ENDROOT
BRANCH   1  12
ATOM     12  C   UNL     1      32.866 -12.834 -24.504  0.00  0.00    +0.071 C 
ATOM     13  C   UNL     1      31.971 -11.883 -23.702  0.00  0.00    +0.020 C 
ATOM     14  C   UNL     1      33.803 -12.068 -25.442  0.00  0.00    +0.020 C 
ATOM     15  C   UNL     1      32.763 -10.783 -22.993  0.00  0.00    +0.002 C 
ATOM     16  C   UNL     1      34.587 -10.967 -24.728  0.00  0.00    +0.002 C 
ATOM     17  C   UNL     1      33.664 -10.025 -23.961  0.00  0.00    +0.000 C 
ENDBRANCH   1  12
BRANCH   8  18
ATOM     18  N   UNL     1      35.557 -17.858 -22.170  0.00  0.00    -0.299 N 
ATOM     19  H   UNL     1      36.514 -17.650 -22.076  0.00  0.00    +0.153 HD
BRANCH  18  20
ATOM     20  C   UNL     1      35.093 -18.948 -21.425  0.00  0.00    +0.049 C 
ATOM     21  C   UNL     1      36.002 -19.817 -20.820  0.00  0.00    +0.016 C 
ATOM     22  C   UNL     1      33.723 -19.167 -21.287  0.00  0.00    +0.016 C 
ATOM     23  C   UNL     1      34.169 -21.122 -19.939  0.00  0.00    +0.122 C 
ATOM     24  C   UNL     1      35.540 -20.903 -20.076  0.00  0.00    +0.021 C 
ATOM     25  C   UNL     1      33.261 -20.253 -20.544  0.00  0.00    +0.021 C 
BRANCH  23  26
ATOM     26  S   UNL     1      33.592 -22.481 -19.009  0.00  0.00    +0.057 S 
ATOM     27  O   UNL     1      32.282 -22.145 -18.468  0.00  0.00    -0.153 OA
ATOM     28  O   UNL     1      33.756 -23.690 -19.804  0.00  0.00    -0.153 OA
BRANCH  26  29
ATOM     29  N   UNL     1      34.726 -22.507 -17.731  0.00  0.00    -0.203 NA
ATOM     30  H   UNL     1      34.987 -21.553 -17.488  0.00  0.00    +0.144 HD
ATOM     31  H   UNL     1      35.556 -23.023 -18.023  0.00  0.00    +0.144 HD
ENDBRANCH  26  29
ENDBRANCH  23  26
ENDBRANCH  18  20
ENDBRANCH   8  18
TORSDOF 5
ENDMDL
MODEL 4
REMARK VINA RESULT:     -10.4      8.263     11.734
REMARK  Name = 23586146
REMARK  5 active torsions:
REMARK  status: ('A' for Active; 'I' for Inactive)
REMARK    1  A    between atoms: N_1  and  C_12
REMARK    2  A    between atoms: C_8  and  N_18
REMARK    3  A    between atoms: N_18  and  C_20
REMARK    4  A    between atoms: C_23  and  S_26
REMARK    5  A    between atoms: S_26  and  N_29
REMARK                            x       y       z     vdW  Elec       q    Type
REMARK                         _______ _______ _______ _____ _____    ______ ____
ROOT
ATOM      1  N   UNL     1      35.047 -16.862 -23.149  0.00  0.00    -0.309 N 
ATOM      2  N   UNL     1      34.028 -16.796 -25.205  0.00  0.00    -0.321 NA
ATOM      3  N   UNL     1      33.036 -14.736 -25.941  0.00  0.00    -0.106 N 
ATOM      4  N   UNL     1      32.364 -14.268 -27.027  0.00  0.00    -0.139 NA
ATOM      5  N   UNL     1      32.896 -16.463 -27.321  0.00  0.00    -0.145 NA
ATOM      6  C   UNL     1      34.379 -16.186 -24.097  0.00  0.00    +0.196 C 
ATOM      7  C   UNL     1      34.063 -14.739 -23.829  0.00  0.00    +0.081 C 
ATOM      8  C   UNL     1      33.395 -14.059 -24.773  0.00  0.00    +0.140 C 
ATOM      9  C   UNL     1      33.351 -16.081 -26.144  0.00  0.00    +0.176 C 
ATOM     10  C   UNL     1      32.313 -15.340 -27.812  0.00  0.00    +0.230 C 
ATOM     11  H   UNL     1      35.289 -16.394 -22.318  0.00  0.00    +0.149 HD
ENDROOT
BRANCH   1  12
ATOM     12  C   UNL     1      35.429 -18.255 -23.298  0.00  0.00    +0.071 C 
ATOM     13  C   UNL     1      36.438 -18.643 -22.213  0.00  0.00    +0.020 C 
ATOM     14  C   UNL     1      34.185 -19.147 -23.254  0.00  0.00    +0.020 C 
ATOM     15  C   UNL     1      35.808 -18.726 -20.822  0.00  0.00    +0.002 C 
ATOM     16  C   UNL     1      33.563 -19.230 -21.860  0.00  0.00    +0.002 C 
ATOM     17  C   UNL     1      34.589 -19.642 -20.809  0.00  0.00    +0.000 C 
ENDBRANCH   1  12
BRANCH   8  18
ATOM     18  N   UNL     1      33.041 -12.745 -24.667  0.00  0.00    -0.299 N 
ATOM     19  H   UNL     1      33.070 -12.224 -25.501  0.00  0.00    +0.153 HD
BRANCH  18  20
ATOM     20  C   UNL     1      32.642 -12.043 -23.524  0.00  0.00    +0.049 C 
ATOM     21  C   UNL     1      32.240 -12.740 -22.383  0.00  0.00    +0.016 C 
ATOM     22  C   UNL     1      32.645 -10.649 -23.524  0.00  0.00    +0.016 C 
ATOM     23  C   UNL     1      31.845 -10.645 -21.245  0.00  0.00    +0.122 C 
ATOM     24  C   UNL     1      31.843 -12.040 -21.243  0.00  0.00    +0.021 C 
ATOM     25  C   UNL     1      32.247  -9.950 -22.385  0.00  0.00    +0.021 C 
BRANCH  23  26
ATOM     26  S   UNL     1      31.348  -9.771 -19.818  0.00  0.00    +0.057 S 
ATOM     27  O   UNL     1      29.979 -10.153 -19.500  0.00  0.00    -0.153 OA
ATOM     28  O   UNL     1      32.389  -9.900 -18.808  0.00  0.00    -0.153 OA
BRANCH  26  29
ATOM     29  N   UNL     1      31.348  -8.165 -20.403  0.00  0.00    -0.203 NA
ATOM     30  H   UNL     1      32.308  -7.831 -20.479  0.00  0.00    +0.144 HD
ATOM     31  H   UNL     1      30.830  -7.568 -19.758  0.00  0.00    +0.144 HD
ENDBRANCH  26  29
ENDBRANCH  23  26
ENDBRANCH  18  20
ENDBRANCH   8  18
TORSDOF 5
ENDMDL
