MODEL 1
REMARK VINA RESULT:     -12.3      0.000      0.000
REMARK  Name = 5287739
REMARK  3 active torsions:
REMARK  status: ('A' for Active; 'I' for Inactive)
REMARK    1  A    between atoms: C_2  and  O_21
REMARK    2  A    between atoms: C_3  and  O_23
REMARK    3  A    between atoms: C_4  and  O_25
REMARK                            x       y       z     vdW  Elec       q    Type
REMARK                         _______ _______ _______ _____ _____    ______ ____
ROOT
ATOM      1  C   UNL     1      35.259 -23.802 -13.714  0.00  0.00    -0.021 C 
ATOM      2  C   UNL     1      36.850 -24.888 -11.520  0.00  0.00    +0.168 C 
ATOM      3  C   UNL     1      37.521 -23.929 -12.506  0.00  0.00    +0.162 C 
ATOM      4  C   UNL     1      35.423 -24.428 -11.236  0.00  0.00    +0.144 C 
ATOM      5  C   UNL     1      34.578 -24.426 -12.510  0.00  0.00    +0.058 C 
ATOM      6  C   UNL     1      36.653 -23.584 -13.699  0.00  0.00    +0.003 C 
ATOM      7  C   UNL     1      34.502 -23.478 -14.881  0.00  0.00    -0.004 C 
ATOM      8  C   UNL     1      35.159 -22.898 -15.997  0.00  0.00    -0.000 C 
ATOM      9  C   UNL     1      36.549 -22.657 -15.956  0.00  0.00    -0.000 C 
ATOM     10  C   UNL     1      37.276 -23.004 -14.815  0.00  0.00    -0.002 C 
ATOM     11  C   UNL     1      34.434 -22.554 -17.172  0.00  0.00    -0.000 C 
ATOM     12  C   UNL     1      33.114 -23.708 -14.997  0.00  0.00    -0.000 C 
ATOM     13  C   UNL     1      33.044 -22.793 -17.244  0.00  0.00    -0.000 C 
ATOM     14  C   UNL     1      35.096 -21.970 -18.279  0.00  0.00    -0.000 C 
ATOM     15  C   UNL     1      37.191 -22.080 -17.061  0.00  0.00    -0.000 C 
ATOM     16  C   UNL     1      32.400 -23.373 -16.150  0.00  0.00    -0.000 C 
ATOM     17  C   UNL     1      36.474 -21.739 -18.207  0.00  0.00    -0.000 C 
ATOM     18  C   UNL     1      32.338 -22.450 -18.405  0.00  0.00    -0.000 C 
ATOM     19  C   UNL     1      34.366 -21.636 -19.429  0.00  0.00    -0.000 C 
ATOM     20  C   UNL     1      32.995 -21.874 -19.490  0.00  0.00    +0.000 C 
ENDROOT
BRANCH   2  21
ATOM     21  O   UNL     1      36.831 -26.206 -12.066  0.00  0.00    -0.379 OA
ATOM     22  H   UNL     1      36.248 -26.226 -12.841  0.00  0.00    +0.211 HD
ENDBRANCH   2  21
BRANCH   3  23
ATOM     23  O   UNL     1      37.840 -22.708 -11.840  0.00  0.00    -0.377 OA
ATOM     24  H   UNL     1      37.612 -21.960 -12.413  0.00  0.00    +0.211 HD
ENDBRANCH   3  23
BRANCH   4  25
ATOM     25  O   UNL     1      34.809 -25.293 -10.285  0.00  0.00    -0.382 OA
ATOM     26  H   UNL     1      34.315 -25.987 -10.750  0.00  0.00    +0.210 HD
ENDBRANCH   4  25
TORSDOF 3
ENDMDL
MODEL 2
REMARK VINA RESULT:     -11.6     10.433     14.101
REMARK  Name = 5287739
REMARK  3 active torsions:
REMARK  status: ('A' for Active; 'I' for Inactive)
REMARK    1  A    between atoms: C_2  and  O_21
REMARK    2  A    between atoms: C_3  and  O_23
REMARK    3  A    between atoms: C_4  and  O_25
REMARK                            x       y       z     vdW  Elec       q    Type
REMARK                         _______ _______ _______ _____ _____    ______ ____
ROOT
ATOM      1  C   UNL     1      33.329 -14.032 -25.286  0.00  0.00    -0.021 C 
ATOM      2  C   UNL     1      32.870 -12.263 -27.564  0.00  0.00    +0.168 C 
ATOM      3  C   UNL     1      32.537 -13.748 -27.712  0.00  0.00    +0.162 C 
ATOM      4  C   UNL     1      32.485 -11.780 -26.168  0.00  0.00    +0.144 C 
ATOM      5  C   UNL     1      33.266 -12.528 -25.088  0.00  0.00    +0.058 C 
ATOM      6  C   UNL     1      32.991 -14.590 -26.537  0.00  0.00    +0.003 C 
ATOM      7  C   UNL     1      33.775 -14.879 -24.227  0.00  0.00    -0.004 C 
ATOM      8  C   UNL     1      33.829 -16.282 -24.434  0.00  0.00    -0.000 C 
ATOM      9  C   UNL     1      33.458 -16.830 -25.681  0.00  0.00    -0.000 C 
ATOM     10  C   UNL     1      33.049 -15.981 -26.713  0.00  0.00    -0.002 C 
ATOM     11  C   UNL     1      34.259 -17.156 -23.397  0.00  0.00    -0.000 C 
ATOM     12  C   UNL     1      34.178 -14.398 -22.962  0.00  0.00    -0.000 C 
ATOM     13  C   UNL     1      34.646 -16.634 -22.143  0.00  0.00    -0.000 C 
ATOM     14  C   UNL     1      34.305 -18.555 -23.611  0.00  0.00    -0.000 C 
ATOM     15  C   UNL     1      33.510 -18.216 -25.878  0.00  0.00    -0.000 C 
ATOM     16  C   UNL     1      34.602 -15.253 -21.943  0.00  0.00    -0.000 C 
ATOM     17  C   UNL     1      33.926 -19.069 -24.855  0.00  0.00    -0.000 C 
ATOM     18  C   UNL     1      35.066 -17.503 -21.127  0.00  0.00    -0.000 C 
ATOM     19  C   UNL     1      34.730 -19.402 -22.577  0.00  0.00    -0.000 C 
ATOM     20  C   UNL     1      35.107 -18.878 -21.343  0.00  0.00    +0.000 C 
ENDROOT
BRANCH   2  21
ATOM     21  O   UNL     1      34.267 -12.058 -27.775  0.00  0.00    -0.379 OA
ATOM     22  H   UNL     1      34.394 -11.378 -28.454  0.00  0.00    +0.211 HD
ENDBRANCH   2  21
BRANCH   3  23
ATOM     23  O   UNL     1      31.125 -13.909 -27.835  0.00  0.00    -0.377 OA
ATOM     24  H   UNL     1      30.913 -14.235 -28.724  0.00  0.00    +0.211 HD
ENDBRANCH   3  23
BRANCH   4  25
ATOM     25  O   UNL     1      32.753 -10.387 -26.040  0.00  0.00    -0.382 OA
ATOM     26  H   UNL     1      32.403 -10.066 -25.194  0.00  0.00    +0.210 HD
ENDBRANCH   4  25
TORSDOF 3
ENDMDL
MODEL 3
REMARK VINA RESULT:     -11.3      0.889      3.138
REMARK  Name = 5287739
REMARK  3 active torsions:
REMARK  status: ('A' for Active; 'I' for Inactive)
REMARK    1  A    between atoms: C_2  and  O_21
REMARK    2  A    between atoms: C_3  and  O_23
REMARK    3  A    between atoms: C_4  and  O_25
REMARK                            x       y       z     vdW  Elec       q    Type
REMARK                         _______ _______ _______ _____ _____    ______ ____
ROOT
ATOM      1  C   UNL     1      36.238 -23.271 -14.107  0.00  0.00    -0.021 C 
ATOM      2  C   UNL     1      36.707 -23.745 -11.264  0.00  0.00    +0.168 C 
ATOM      3  C   UNL     1      35.408 -24.260 -11.887  0.00  0.00    +0.162 C 
ATOM      4  C   UNL     1      37.864 -23.932 -12.242  0.00  0.00    +0.144 C 
ATOM      5  C   UNL     1      37.635 -23.140 -13.529  0.00  0.00    +0.058 C 
ATOM      6  C   UNL     1      35.195 -23.793 -13.313  0.00  0.00    +0.003 C 
ATOM      7  C   UNL     1      35.964 -22.824 -15.435  0.00  0.00    -0.004 C 
ATOM      8  C   UNL     1      34.650 -22.953 -15.955  0.00  0.00    -0.000 C 
ATOM      9  C   UNL     1      33.623 -23.505 -15.160  0.00  0.00    -0.000 C 
ATOM     10  C   UNL     1      33.906 -23.914 -13.854  0.00  0.00    -0.002 C 
ATOM     11  C   UNL     1      34.344 -22.526 -17.278  0.00  0.00    -0.000 C 
ATOM     12  C   UNL     1      36.938 -22.246 -16.278  0.00  0.00    -0.000 C 
ATOM     13  C   UNL     1      35.350 -21.960 -18.092  0.00  0.00    -0.000 C 
ATOM     14  C   UNL     1      33.032 -22.664 -17.791  0.00  0.00    -0.000 C 
ATOM     15  C   UNL     1      32.328 -23.633 -15.682  0.00  0.00    -0.000 C 
ATOM     16  C   UNL     1      36.640 -21.824 -17.577  0.00  0.00    -0.000 C 
ATOM     17  C   UNL     1      32.036 -23.220 -16.981  0.00  0.00    -0.000 C 
ATOM     18  C   UNL     1      35.040 -21.544 -19.394  0.00  0.00    -0.000 C 
ATOM     19  C   UNL     1      32.748 -22.239 -19.097  0.00  0.00    -0.000 C 
ATOM     20  C   UNL     1      33.747 -21.684 -19.893  0.00  0.00    +0.000 C 
ENDROOT
BRANCH   2  21
ATOM     21  O   UNL     1      36.571 -22.362 -10.940  0.00  0.00    -0.379 OA
ATOM     22  H   UNL     1      36.892 -22.209 -10.038  0.00  0.00    +0.211 HD
ENDBRANCH   2  21
BRANCH   3  23
ATOM     23  O   UNL     1      35.421 -25.687 -11.901  0.00  0.00    -0.377 OA
ATOM     24  H   UNL     1      36.027 -26.011 -11.217  0.00  0.00    +0.211 HD
ENDBRANCH   3  23
BRANCH   4  25
ATOM     25  O   UNL     1      39.083 -23.494 -11.650  0.00  0.00    -0.382 OA
ATOM     26  H   UNL     1      39.348 -24.117 -10.955  0.00  0.00    +0.210 HD
ENDBRANCH   4  25
TORSDOF 3
ENDMDL
MODEL 4
REMARK VINA RESULT:     -10.8      9.128     12.315
REMARK  Name = 5287739
REMARK  3 active torsions:
REMARK  status: ('A' for Active; 'I' for Inactive)
REMARK    1  A    between atoms: C_2  and  O_21
REMARK    2  A    between atoms: C_3  and  O_23
REMARK    3  A    between atoms: C_4  and  O_25
REMARK                            x       y       z     vdW  Elec       q    Type
REMARK                         _______ _______ _______ _____ _____    ______ ____
ROOT
ATOM      1  C   UNL     1      34.302 -16.820 -23.351  0.00  0.00    -0.021 C 
ATOM      2  C   UNL     1      34.510 -19.462 -22.125  0.00  0.00    +0.168 C 
ATOM      3  C   UNL     1      34.202 -19.372 -23.621  0.00  0.00    +0.162 C 
ATOM      4  C   UNL     1      35.522 -18.389 -21.736  0.00  0.00    +0.144 C 
ATOM      5  C   UNL     1      34.974 -16.988 -22.000  0.00  0.00    +0.058 C 
ATOM      6  C   UNL     1      33.934 -17.959 -24.099  0.00  0.00    +0.003 C 
ATOM      7  C   UNL     1      33.997 -15.516 -23.847  0.00  0.00    -0.004 C 
ATOM      8  C   UNL     1      33.366 -15.383 -25.111  0.00  0.00    -0.000 C 
ATOM      9  C   UNL     1      33.031 -16.530 -25.862  0.00  0.00    -0.000 C 
ATOM     10  C   UNL     1      33.316 -17.797 -25.348  0.00  0.00    -0.002 C 
ATOM     11  C   UNL     1      33.057 -14.098 -25.639  0.00  0.00    -0.000 C 
ATOM     12  C   UNL     1      34.286 -14.328 -23.141  0.00  0.00    -0.000 C 
ATOM     13  C   UNL     1      33.371 -12.934 -24.904  0.00  0.00    -0.000 C 
ATOM     14  C   UNL     1      32.432 -13.973 -26.903  0.00  0.00    -0.000 C 
ATOM     15  C   UNL     1      32.412 -16.390 -27.111  0.00  0.00    -0.000 C 
ATOM     16  C   UNL     1      33.982 -13.066 -23.656  0.00  0.00    -0.000 C 
ATOM     17  C   UNL     1      32.118 -15.128 -27.627  0.00  0.00    -0.000 C 
ATOM     18  C   UNL     1      33.064 -11.672 -25.433  0.00  0.00    -0.000 C 
ATOM     19  C   UNL     1      32.136 -12.699 -27.409  0.00  0.00    -0.000 C 
ATOM     20  C   UNL     1      32.451 -11.557 -26.678  0.00  0.00    +0.000 C 
ENDROOT
BRANCH   2  21
ATOM     21  O   UNL     1      33.309 -19.285 -21.374  0.00  0.00    -0.379 OA
ATOM     22  H   UNL     1      33.300 -18.398 -20.983  0.00  0.00    +0.211 HD
ENDBRANCH   2  21
BRANCH   3  23
ATOM     23  O   UNL     1      35.310 -19.874 -24.366  0.00  0.00    -0.377 OA
ATOM     24  H   UNL     1      36.059 -20.026 -23.767  0.00  0.00    +0.211 HD
ENDBRANCH   3  23
BRANCH   4  25
ATOM     25  O   UNL     1      35.845 -18.497 -20.353  0.00  0.00    -0.382 OA
ATOM     26  H   UNL     1      36.533 -19.170 -20.232  0.00  0.00    +0.210 HD
ENDBRANCH   4  25
TORSDOF 3
ENDMDL
MODEL 5
REMARK VINA RESULT:     -10.5      1.956      3.374
REMARK  Name = 5287739
REMARK  3 active torsions:
REMARK  status: ('A' for Active; 'I' for Inactive)
REMARK    1  A    between atoms: C_2  and  O_21
REMARK    2  A    between atoms: C_3  and  O_23
REMARK    3  A    between atoms: C_4  and  O_25
REMARK                            x       y       z     vdW  Elec       q    Type
REMARK                         _______ _______ _______ _____ _____    ______ ____
ROOT
ATOM      1  C   UNL     1      34.644 -24.418 -14.054  0.00  0.00    -0.021 C 
ATOM      2  C   UNL     1      37.453 -25.198 -13.891  0.00  0.00    +0.168 C 
ATOM      3  C   UNL     1      37.024 -24.234 -14.999  0.00  0.00    +0.162 C 
ATOM      4  C   UNL     1      36.703 -24.876 -12.601  0.00  0.00    +0.144 C 
ATOM      5  C   UNL     1      35.195 -25.038 -12.782  0.00  0.00    +0.058 C 
ATOM      6  C   UNL     1      35.523 -24.053 -15.096  0.00  0.00    +0.003 C 
ATOM      7  C   UNL     1      33.236 -24.246 -14.219  0.00  0.00    -0.004 C 
ATOM      8  C   UNL     1      32.742 -23.666 -15.416  0.00  0.00    -0.000 C 
ATOM      9  C   UNL     1      33.635 -23.278 -16.438  0.00  0.00    -0.000 C 
ATOM     10  C   UNL     1      35.007 -23.479 -16.267  0.00  0.00    -0.002 C 
ATOM     11  C   UNL     1      31.346 -23.471 -15.609  0.00  0.00    -0.000 C 
ATOM     12  C   UNL     1      32.286 -24.628 -13.247  0.00  0.00    -0.000 C 
ATOM     13  C   UNL     1      30.429 -23.860 -14.608  0.00  0.00    -0.000 C 
ATOM     14  C   UNL     1      30.862 -22.887 -16.805  0.00  0.00    -0.000 C 
ATOM     15  C   UNL     1      33.141 -22.703 -17.616  0.00  0.00    -0.000 C 
ATOM     16  C   UNL     1      30.915 -24.439 -13.435  0.00  0.00    -0.000 C 
ATOM     17  C   UNL     1      31.772 -22.508 -17.797  0.00  0.00    -0.000 C 
ATOM     18  C   UNL     1      29.056 -23.662 -14.807  0.00  0.00    -0.000 C 
ATOM     19  C   UNL     1      29.483 -22.701 -16.979  0.00  0.00    -0.000 C 
ATOM     20  C   UNL     1      28.586 -23.086 -15.985  0.00  0.00    +0.000 C 
ENDROOT
BRANCH   2  21
ATOM     21  O   UNL     1      37.175 -26.541 -14.286  0.00  0.00    -0.379 OA
ATOM     22  H   UNL     1      37.427 -26.663 -15.214  0.00  0.00    +0.211 HD
ENDBRANCH   2  21
BRANCH   3  23
ATOM     23  O   UNL     1      37.596 -22.949 -14.759  0.00  0.00    -0.377 OA
ATOM     24  H   UNL     1      37.264 -22.320 -15.419  0.00  0.00    +0.211 HD
ENDBRANCH   3  23
BRANCH   4  25
ATOM     25  O   UNL     1      37.132 -25.743 -11.556  0.00  0.00    -0.382 OA
ATOM     26  H   UNL     1      36.661 -25.521 -10.737  0.00  0.00    +0.210 HD
ENDBRANCH   4  25
TORSDOF 3
ENDMDL
MODEL 6
REMARK VINA RESULT:     -10.5      2.024      4.370
REMARK  Name = 5287739
REMARK  3 active torsions:
REMARK  status: ('A' for Active; 'I' for Inactive)
REMARK    1  A    between atoms: C_2  and  O_21
REMARK    2  A    between atoms: C_3  and  O_23
REMARK    3  A    between atoms: C_4  and  O_25
REMARK                            x       y       z     vdW  Elec       q    Type
REMARK                         _______ _______ _______ _____ _____    ______ ____
ROOT
ATOM      1  C   UNL     1      35.021 -24.038 -14.856  0.00  0.00    -0.021 C 
ATOM      2  C   UNL     1      37.519 -24.343 -13.373  0.00  0.00    +0.168 C 
ATOM      3  C   UNL     1      36.238 -24.935 -12.780  0.00  0.00    +0.162 C 
ATOM      4  C   UNL     1      37.532 -24.542 -14.886  0.00  0.00    +0.144 C 
ATOM      5  C   UNL     1      36.355 -23.829 -15.549  0.00  0.00    +0.058 C 
ATOM      6  C   UNL     1      34.986 -24.552 -13.542  0.00  0.00    +0.003 C 
ATOM      7  C   UNL     1      33.805 -23.671 -15.508  0.00  0.00    -0.004 C 
ATOM      8  C   UNL     1      32.569 -23.873 -14.840  0.00  0.00    -0.000 C 
ATOM      9  C   UNL     1      32.547 -24.417 -13.538  0.00  0.00    -0.000 C 
ATOM     10  C   UNL     1      33.749 -24.745 -12.907  0.00  0.00    -0.002 C 
ATOM     11  C   UNL     1      31.338 -23.529 -15.466  0.00  0.00    -0.000 C 
ATOM     12  C   UNL     1      33.755 -23.106 -16.801  0.00  0.00    -0.000 C 
ATOM     13  C   UNL     1      31.333 -22.973 -16.764  0.00  0.00    -0.000 C 
ATOM     14  C   UNL     1      30.110 -23.738 -14.794  0.00  0.00    -0.000 C 
ATOM     15  C   UNL     1      31.323 -24.617 -12.886  0.00  0.00    -0.000 C 
ATOM     16  C   UNL     1      32.548 -22.765 -17.417  0.00  0.00    -0.000 C 
ATOM     17  C   UNL     1      30.119 -24.284 -13.506  0.00  0.00    -0.000 C 
ATOM     18  C   UNL     1      30.114 -22.638 -17.372  0.00  0.00    -0.000 C 
ATOM     19  C   UNL     1      28.906 -23.394 -15.426  0.00  0.00    -0.000 C 
ATOM     20  C   UNL     1      28.909 -22.849 -16.707  0.00  0.00    +0.000 C 
ENDROOT
BRANCH   2  21
ATOM     21  O   UNL     1      37.590 -22.950 -13.071  0.00  0.00    -0.379 OA
ATOM     22  H   UNL     1      37.272 -22.438 -13.830  0.00  0.00    +0.211 HD
ENDBRANCH   2  21
BRANCH   3  23
ATOM     23  O   UNL     1      36.326 -26.359 -12.787  0.00  0.00    -0.377 OA
ATOM     24  H   UNL     1      37.258 -26.625 -12.825  0.00  0.00    +0.211 HD
ENDBRANCH   3  23
BRANCH   4  25
ATOM     25  O   UNL     1      38.742 -24.031 -15.437  0.00  0.00    -0.382 OA
ATOM     26  H   UNL     1      38.555 -23.220 -15.935  0.00  0.00    +0.210 HD
ENDBRANCH   4  25
TORSDOF 3
ENDMDL
MODEL 7
REMARK VINA RESULT:     -10.5      1.288      3.361
REMARK  Name = 5287739
REMARK  3 active torsions:
REMARK  status: ('A' for Active; 'I' for Inactive)
REMARK    1  A    between atoms: C_2  and  O_21
REMARK    2  A    between atoms: C_3  and  O_23
REMARK    3  A    between atoms: C_4  and  O_25
REMARK                            x       y       z     vdW  Elec       q    Type
REMARK                         _______ _______ _______ _____ _____    ______ ____
ROOT
ATOM      1  C   UNL     1      36.623 -23.834 -15.230  0.00  0.00    -0.021 C 
ATOM      2  C   UNL     1      37.649 -24.879 -12.703  0.00  0.00    +0.168 C 
ATOM      3  C   UNL     1      36.206 -25.200 -13.096  0.00  0.00    +0.162 C 
ATOM      4  C   UNL     1      38.547 -24.924 -13.937  0.00  0.00    +0.144 C 
ATOM      5  C   UNL     1      38.118 -23.886 -14.972  0.00  0.00    +0.058 C 
ATOM      6  C   UNL     1      35.733 -24.453 -14.326  0.00  0.00    +0.003 C 
ATOM      7  C   UNL     1      36.112 -23.122 -16.357  0.00  0.00    -0.004 C 
ATOM      8  C   UNL     1      34.710 -23.085 -16.578  0.00  0.00    -0.000 C 
ATOM      9  C   UNL     1      33.833 -23.734 -15.682  0.00  0.00    -0.000 C 
ATOM     10  C   UNL     1      34.352 -24.404 -14.571  0.00  0.00    -0.002 C 
ATOM     11  C   UNL     1      34.167 -22.394 -17.696  0.00  0.00    -0.000 C 
ATOM     12  C   UNL     1      36.929 -22.437 -17.281  0.00  0.00    -0.000 C 
ATOM     13  C   UNL     1      35.021 -21.727 -18.602  0.00  0.00    -0.000 C 
ATOM     14  C   UNL     1      32.768 -22.366 -17.912  0.00  0.00    -0.000 C 
ATOM     15  C   UNL     1      32.450 -23.696 -15.909  0.00  0.00    -0.000 C 
ATOM     16  C   UNL     1      36.398 -21.755 -18.379  0.00  0.00    -0.000 C 
ATOM     17  C   UNL     1      31.924 -23.023 -17.010  0.00  0.00    -0.000 C 
ATOM     18  C   UNL     1      34.476 -21.049 -19.702  0.00  0.00    -0.000 C 
ATOM     19  C   UNL     1      32.249 -21.680 -19.020  0.00  0.00    -0.000 C 
ATOM     20  C   UNL     1      33.099 -21.027 -19.909  0.00  0.00    +0.000 C 
ENDROOT
BRANCH   2  21
ATOM     21  O   UNL     1      37.710 -23.581 -12.112  0.00  0.00    -0.379 OA
ATOM     22  H   UNL     1      37.015 -23.021 -12.490  0.00  0.00    +0.211 HD
ENDBRANCH   2  21
BRANCH   3  23
ATOM     23  O   UNL     1      36.087 -26.595 -13.370  0.00  0.00    -0.377 OA
ATOM     24  H   UNL     1      36.747 -26.851 -14.033  0.00  0.00    +0.211 HD
ENDBRANCH   3  23
BRANCH   4  25
ATOM     25  O   UNL     1      39.899 -24.669 -13.569  0.00  0.00    -0.382 OA
ATOM     26  H   UNL     1      39.921 -24.204 -12.718  0.00  0.00    +0.210 HD
ENDBRANCH   4  25
TORSDOF 3
ENDMDL
MODEL 8
REMARK VINA RESULT:     -10.4      2.900      4.771
REMARK  Name = 5287739
REMARK  3 active torsions:
REMARK  status: ('A' for Active; 'I' for Inactive)
REMARK    1  A    between atoms: C_2  and  O_21
REMARK    2  A    between atoms: C_3  and  O_23
REMARK    3  A    between atoms: C_4  and  O_25
REMARK                            x       y       z     vdW  Elec       q    Type
REMARK                         _______ _______ _______ _____ _____    ______ ____
ROOT
ATOM      1  C   UNL     1      31.523 -23.335 -16.102  0.00  0.00    -0.021 C 
ATOM      2  C   UNL     1      29.812 -24.874 -14.304  0.00  0.00    +0.168 C 
ATOM      3  C   UNL     1      31.214 -24.489 -13.829  0.00  0.00    +0.162 C 
ATOM      4  C   UNL     1      29.199 -23.725 -15.100  0.00  0.00    +0.144 C 
ATOM      5  C   UNL     1      30.027 -23.409 -16.344  0.00  0.00    +0.058 C 
ATOM      6  C   UNL     1      32.069 -23.860 -14.911  0.00  0.00    +0.003 C 
ATOM      7  C   UNL     1      32.387 -22.779 -17.094  0.00  0.00    -0.004 C 
ATOM      8  C   UNL     1      33.783 -22.722 -16.848  0.00  0.00    -0.000 C 
ATOM      9  C   UNL     1      34.312 -23.224 -15.639  0.00  0.00    -0.000 C 
ATOM     10  C   UNL     1      33.453 -23.787 -14.692  0.00  0.00    -0.002 C 
ATOM     11  C   UNL     1      34.671 -22.166 -17.810  0.00  0.00    -0.000 C 
ATOM     12  C   UNL     1      31.929 -22.277 -18.331  0.00  0.00    -0.000 C 
ATOM     13  C   UNL     1      34.170 -21.667 -19.033  0.00  0.00    -0.000 C 
ATOM     14  C   UNL     1      36.062 -22.109 -17.554  0.00  0.00    -0.000 C 
ATOM     15  C   UNL     1      35.691 -23.161 -15.400  0.00  0.00    -0.000 C 
ATOM     16  C   UNL     1      32.798 -21.732 -19.279  0.00  0.00    -0.000 C 
ATOM     17  C   UNL     1      36.556 -22.609 -16.345  0.00  0.00    -0.000 C 
ATOM     18  C   UNL     1      35.053 -21.119 -19.975  0.00  0.00    -0.000 C 
ATOM     19  C   UNL     1      36.923 -21.556 -18.514  0.00  0.00    -0.000 C 
ATOM     20  C   UNL     1      36.420 -21.064 -19.716  0.00  0.00    +0.000 C 
ENDROOT
BRANCH   2  21
ATOM     21  O   UNL     1      29.884 -26.041 -15.123  0.00  0.00    -0.379 OA
ATOM     22  H   UNL     1      30.794 -26.374 -15.130  0.00  0.00    +0.211 HD
ENDBRANCH   2  21
BRANCH   3  23
ATOM     23  O   UNL     1      31.113 -23.548 -12.761  0.00  0.00    -0.377 OA
ATOM     24  H   UNL     1      30.535 -22.817 -13.030  0.00  0.00    +0.211 HD
ENDBRANCH   3  23
BRANCH   4  25
ATOM     25  O   UNL     1      27.876 -24.062 -15.508  0.00  0.00    -0.382 OA
ATOM     26  H   UNL     1      27.390 -24.434 -14.755  0.00  0.00    +0.210 HD
ENDBRANCH   4  25
TORSDOF 3
ENDMDL
MODEL 9
REMARK VINA RESULT:     -10.1      1.540      3.796
REMARK  Name = 5287739
REMARK  3 active torsions:
REMARK  status: ('A' for Active; 'I' for Inactive)
REMARK    1  A    between atoms: C_2  and  O_21
REMARK    2  A    between atoms: C_3  and  O_23
REMARK    3  A    between atoms: C_4  and  O_25
REMARK                            x       y       z     vdW  Elec       q    Type
REMARK                         _______ _______ _______ _____ _____    ______ ____
ROOT
ATOM      1  C   UNL     1      35.986 -23.213 -16.141  0.00  0.00    -0.021 C 
ATOM      2  C   UNL     1      36.427 -24.429 -13.524  0.00  0.00    +0.168 C 
ATOM      3  C   UNL     1      35.060 -24.600 -14.189  0.00  0.00    +0.162 C 
ATOM      4  C   UNL     1      37.532 -24.520 -14.573  0.00  0.00    +0.144 C 
ATOM      5  C   UNL     1      37.397 -23.413 -15.617  0.00  0.00    +0.058 C 
ATOM      6  C   UNL     1      34.893 -23.772 -15.447  0.00  0.00    +0.003 C 
ATOM      7  C   UNL     1      35.758 -22.420 -17.307  0.00  0.00    -0.004 C 
ATOM      8  C   UNL     1      34.431 -22.244 -17.779  0.00  0.00    -0.000 C 
ATOM      9  C   UNL     1      33.349 -22.835 -17.092  0.00  0.00    -0.000 C 
ATOM     10  C   UNL     1      33.592 -23.585 -15.939  0.00  0.00    -0.002 C 
ATOM     11  C   UNL     1      34.168 -21.469 -18.943  0.00  0.00    -0.000 C 
ATOM     12  C   UNL     1      36.790 -21.786 -18.032  0.00  0.00    -0.000 C 
ATOM     13  C   UNL     1      35.231 -20.857 -19.643  0.00  0.00    -0.000 C 
ATOM     14  C   UNL     1      32.842 -21.302 -19.409  0.00  0.00    -0.000 C 
ATOM     15  C   UNL     1      32.042 -22.660 -17.565  0.00  0.00    -0.000 C 
ATOM     16  C   UNL     1      36.535 -21.023 -19.174  0.00  0.00    -0.000 C 
ATOM     17  C   UNL     1      31.791 -21.905 -18.711  0.00  0.00    -0.000 C 
ATOM     18  C   UNL     1      34.962 -20.097 -20.790  0.00  0.00    -0.000 C 
ATOM     19  C   UNL     1      32.601 -20.536 -20.559  0.00  0.00    -0.000 C 
ATOM     20  C   UNL     1      33.656 -19.938 -21.245  0.00  0.00    +0.000 C 
ENDROOT
BRANCH   2  21
ATOM     21  O   UNL     1      36.489 -23.162 -12.868  0.00  0.00    -0.379 OA
ATOM     22  H   UNL     1      36.718 -22.476 -13.514  0.00  0.00    +0.211 HD
ENDBRANCH   2  21
BRANCH   3  23
ATOM     23  O   UNL     1      34.874 -25.968 -14.548  0.00  0.00    -0.377 OA
ATOM     24  H   UNL     1      33.925 -26.155 -14.624  0.00  0.00    +0.211 HD
ENDBRANCH   3  23
BRANCH   4  25
ATOM     25  O   UNL     1      38.809 -24.404 -13.951  0.00  0.00    -0.382 OA
ATOM     26  H   UNL     1      39.476 -24.849 -14.497  0.00  0.00    +0.210 HD
ENDBRANCH   4  25
TORSDOF 3
ENDMDL
