MODEL 1
REMARK VINA RESULT:     -12.2      0.000      0.000
REMARK  Name = 10250490
REMARK  6 active torsions:
REMARK  status: ('A' for Active; 'I' for Inactive)
REMARK    1  A    between atoms: N_2  and  C_18
REMARK    2  A    between atoms: C_3  and  C_6
REMARK    3  A    between atoms: C_5  and  N_12
REMARK    4  A    between atoms: C_18  and  C_19
REMARK    5  A    between atoms: C_19  and  N_21
REMARK    6  A    between atoms: C_22  and  C_26
REMARK                            x       y       z     vdW  Elec       q    Type
REMARK                         _______ _______ _______ _____ _____    ______ ____
ROOT
ATOM      1  O   UNL     1      35.072 -22.768 -17.893  0.00  0.00    -0.270 OA
ATOM      2  N   UNL     1      32.757 -22.750 -18.021  0.00  0.00    -0.299 N 
ATOM      3  C   UNL     1      34.033 -22.338 -18.423  0.00  0.00    +0.246 C 
ATOM      4  H   UNL     1      31.976 -22.370 -18.484  0.00  0.00    +0.150 HD
ENDROOT
BRANCH   3   6
ATOM      5  C   UNL     1      34.231 -19.453 -21.531  0.00  0.00    +0.058 C 
ATOM      6  C   UNL     1      34.101 -21.350 -19.488  0.00  0.00    +0.053 C 
ATOM      7  C   UNL     1      35.405 -19.983 -20.993  0.00  0.00    +0.015 C 
ATOM      8  C   UNL     1      32.992 -19.874 -21.047  0.00  0.00    +0.015 C 
ATOM      9  C   UNL     1      35.340 -20.931 -19.972  0.00  0.00    +0.006 C 
ATOM     10  C   UNL     1      32.927 -20.822 -20.025  0.00  0.00    +0.006 C 
BRANCH   5  12
ATOM     11  O   UNL     1      34.904 -16.663 -21.177  0.00  0.00    -0.269 OA
ATOM     12  N   UNL     1      34.300 -18.467 -22.591  0.00  0.00    -0.233 N 
ATOM     13  C   UNL     1      34.682 -17.134 -22.293  0.00  0.00    +0.257 C 
ATOM     14  C   UNL     1      33.970 -18.813 -23.903  0.00  0.00    +0.072 C 
ATOM     15  C   UNL     1      34.774 -16.192 -23.452  0.00  0.00    +0.059 C 
ATOM     16  C   UNL     1      34.027 -17.944 -24.918  0.00  0.00    +0.017 C 
ATOM     17  C   UNL     1      34.448 -16.596 -24.683  0.00  0.00    +0.006 C 
ENDBRANCH   5  12
ENDBRANCH   3   6
BRANCH   2  18
ATOM     18  C   UNL     1      32.523 -23.706 -16.962  0.00  0.00    +0.111 C 
BRANCH  18  19
ATOM     19  C   UNL     1      32.888 -23.150 -15.596  0.00  0.00    +0.111 C 
BRANCH  19  21
ATOM     20  O   UNL     1      33.352 -24.300 -13.007  0.00  0.00    -0.270 OA
ATOM     21  N   UNL     1      34.127 -23.691 -15.106  0.00  0.00    -0.299 N 
ATOM     22  C   UNL     1      34.259 -24.229 -13.832  0.00  0.00    +0.252 C 
ATOM     23  H   UNL     1      34.914 -23.678 -15.699  0.00  0.00    +0.150 HD
BRANCH  22  26
ATOM     24 CL   UNL     1      39.503 -25.784 -14.097  0.00  0.00    -0.075 Cl
ATOM     25  S   UNL     1      36.761 -24.814 -14.697  0.00  0.00    -0.071 S 
ATOM     26  C   UNL     1      35.612 -24.723 -13.469  0.00  0.00    +0.084 C 
ATOM     27  C   UNL     1      36.027 -25.111 -12.253  0.00  0.00    +0.012 C 
ATOM     28  C   UNL     1      37.392 -25.520 -12.308  0.00  0.00    +0.019 C 
ATOM     29  C   UNL     1      37.914 -25.408 -13.578  0.00  0.00    +0.087 C 
ENDBRANCH  22  26
ENDBRANCH  19  21
ENDBRANCH  18  19
ENDBRANCH   2  18
TORSDOF 6
ENDMDL
MODEL 2
REMARK VINA RESULT:     -11.9      3.295      4.291
REMARK  Name = 10250490
REMARK  6 active torsions:
REMARK  status: ('A' for Active; 'I' for Inactive)
REMARK    1  A    between atoms: N_2  and  C_18
REMARK    2  A    between atoms: C_3  and  C_6
REMARK    3  A    between atoms: C_5  and  N_12
REMARK    4  A    between atoms: C_18  and  C_19
REMARK    5  A    between atoms: C_19  and  N_21
REMARK    6  A    between atoms: C_22  and  C_26
REMARK                            x       y       z     vdW  Elec       q    Type
REMARK                         _______ _______ _______ _____ _____    ______ ____
ROOT
ATOM      1  O   UNL     1      33.500 -23.695 -18.147  0.00  0.00    -0.270 OA
ATOM      2  N   UNL     1      35.199 -22.626 -16.988  0.00  0.00    -0.299 N 
ATOM      3  C   UNL     1      34.302 -22.749 -18.055  0.00  0.00    +0.246 C 
ATOM      4  H   UNL     1      35.807 -21.851 -16.977  0.00  0.00    +0.150 HD
ENDROOT
BRANCH   3   6
ATOM      5  C   UNL     1      34.461 -19.757 -21.062  0.00  0.00    +0.058 C 
ATOM      6  C   UNL     1      34.357 -21.725 -19.086  0.00  0.00    +0.053 C 
ATOM      7  C   UNL     1      35.641 -20.284 -20.537  0.00  0.00    +0.015 C 
ATOM      8  C   UNL     1      33.227 -20.217 -20.598  0.00  0.00    +0.015 C 
ATOM      9  C   UNL     1      35.590 -21.267 -19.549  0.00  0.00    +0.006 C 
ATOM     10  C   UNL     1      33.176 -21.200 -19.610  0.00  0.00    +0.006 C 
BRANCH   5  12
ATOM     11  O   UNL     1      34.966 -16.948 -20.596  0.00  0.00    -0.269 OA
ATOM     12  N   UNL     1      34.515 -18.734 -22.088  0.00  0.00    -0.233 N 
ATOM     13  C   UNL     1      34.813 -17.393 -21.733  0.00  0.00    +0.257 C 
ATOM     14  C   UNL     1      34.255 -19.054 -23.421  0.00  0.00    +0.072 C 
ATOM     15  C   UNL     1      34.897 -16.410 -22.858  0.00  0.00    +0.059 C 
ATOM     16  C   UNL     1      34.303 -18.150 -24.406  0.00  0.00    +0.017 C 
ATOM     17  C   UNL     1      34.641 -16.790 -24.113  0.00  0.00    +0.006 C 
ENDBRANCH   5  12
ENDBRANCH   3   6
BRANCH   2  18
ATOM     18  C   UNL     1      35.282 -23.574 -15.900  0.00  0.00    +0.111 C 
BRANCH  18  19
ATOM     19  C   UNL     1      34.345 -23.221 -14.758  0.00  0.00    +0.111 C 
BRANCH  19  21
ATOM     20  O   UNL     1      32.322 -24.609 -13.267  0.00  0.00    -0.270 OA
ATOM     21  N   UNL     1      32.963 -23.379 -15.126  0.00  0.00    -0.299 N 
ATOM     22  C   UNL     1      32.052 -24.071 -14.338  0.00  0.00    +0.252 C 
ATOM     23  H   UNL     1      32.652 -22.980 -15.971  0.00  0.00    +0.150 HD
BRANCH  22  26
ATOM     24 CL   UNL     1      27.508 -23.218 -17.272  0.00  0.00    -0.075 Cl
ATOM     25  S   UNL     1      30.244 -23.123 -16.121  0.00  0.00    -0.071 S 
ATOM     26  C   UNL     1      30.669 -24.167 -14.870  0.00  0.00    +0.084 C 
ATOM     27  C   UNL     1      29.705 -25.006 -14.459  0.00  0.00    +0.012 C 
ATOM     28  C   UNL     1      28.515 -24.793 -15.215  0.00  0.00    +0.019 C 
ATOM     29  C   UNL     1      28.670 -23.797 -16.154  0.00  0.00    +0.087 C 
ENDBRANCH  22  26
ENDBRANCH  19  21
ENDBRANCH  18  19
ENDBRANCH   2  18
TORSDOF 6
ENDMDL
MODEL 3
REMARK VINA RESULT:     -11.8      1.590      1.875
REMARK  Name = 10250490
REMARK  6 active torsions:
REMARK  status: ('A' for Active; 'I' for Inactive)
REMARK    1  A    between atoms: N_2  and  C_18
REMARK    2  A    between atoms: C_3  and  C_6
REMARK    3  A    between atoms: C_5  and  N_12
REMARK    4  A    between atoms: C_18  and  C_19
REMARK    5  A    between atoms: C_19  and  N_21
REMARK    6  A    between atoms: C_22  and  C_26
REMARK                            x       y       z     vdW  Elec       q    Type
REMARK                         _______ _______ _______ _____ _____    ______ ____
ROOT
ATOM      1  O   UNL     1      33.551 -23.961 -18.811  0.00  0.00    -0.270 OA
ATOM      2  N   UNL     1      32.316 -22.559 -17.439  0.00  0.00    -0.299 N 
ATOM      3  C   UNL     1      33.113 -22.826 -18.558  0.00  0.00    +0.246 C 
ATOM      4  H   UNL     1      32.003 -21.636 -17.299  0.00  0.00    +0.150 HD
ENDROOT
BRANCH   3   6
ATOM      5  C   UNL     1      34.060 -19.540 -21.073  0.00  0.00    +0.058 C 
ATOM      6  C   UNL     1      33.439 -21.700 -19.420  0.00  0.00    +0.053 C 
ATOM      7  C   UNL     1      35.082 -20.293 -20.494  0.00  0.00    +0.015 C 
ATOM      8  C   UNL     1      32.727 -19.868 -20.825  0.00  0.00    +0.015 C 
ATOM      9  C   UNL     1      34.771 -21.373 -19.668  0.00  0.00    +0.006 C 
ATOM     10  C   UNL     1      32.416 -20.948 -19.998  0.00  0.00    +0.006 C 
BRANCH   5  12
ATOM     11  O   UNL     1      34.484 -19.686 -23.930  0.00  0.00    -0.269 OA
ATOM     12  N   UNL     1      34.384 -18.417 -21.930  0.00  0.00    -0.233 N 
ATOM     13  C   UNL     1      34.528 -18.613 -23.328  0.00  0.00    +0.257 C 
ATOM     14  C   UNL     1      34.577 -17.144 -21.388  0.00  0.00    +0.072 C 
ATOM     15  C   UNL     1      34.815 -17.393 -24.145  0.00  0.00    +0.059 C 
ATOM     16  C   UNL     1      34.867 -16.074 -22.137  0.00  0.00    +0.017 C 
ATOM     17  C   UNL     1      34.982 -16.205 -23.558  0.00  0.00    +0.006 C 
ENDBRANCH   5  12
ENDBRANCH   3   6
BRANCH   2  18
ATOM     18  C   UNL     1      31.927 -23.565 -16.477  0.00  0.00    +0.111 C 
BRANCH  18  19
ATOM     19  C   UNL     1      32.568 -23.338 -15.118  0.00  0.00    +0.111 C 
BRANCH  19  21
ATOM     20  O   UNL     1      35.263 -22.707 -15.876  0.00  0.00    -0.270 OA
ATOM     21  N   UNL     1      33.730 -24.164 -14.925  0.00  0.00    -0.299 N 
ATOM     22  C   UNL     1      35.001 -23.773 -15.327  0.00  0.00    +0.252 C 
ATOM     23  H   UNL     1      33.618 -25.041 -14.492  0.00  0.00    +0.150 HD
BRANCH  22  26
ATOM     24 CL   UNL     1      39.905 -25.988 -14.310  0.00  0.00    -0.075 Cl
ATOM     25  S   UNL     1      37.639 -24.137 -14.815  0.00  0.00    -0.071 S 
ATOM     26  C   UNL     1      36.093 -24.751 -15.080  0.00  0.00    +0.084 C 
ATOM     27  C   UNL     1      35.983 -26.088 -15.046  0.00  0.00    +0.012 C 
ATOM     28  C   UNL     1      37.254 -26.677 -14.783  0.00  0.00    +0.019 C 
ATOM     29  C   UNL     1      38.243 -25.729 -14.635  0.00  0.00    +0.087 C 
ENDBRANCH  22  26
ENDBRANCH  19  21
ENDBRANCH  18  19
ENDBRANCH   2  18
TORSDOF 6
ENDMDL
MODEL 4
REMARK VINA RESULT:     -11.2      4.903     10.980
REMARK  Name = 10250490
REMARK  6 active torsions:
REMARK  status: ('A' for Active; 'I' for Inactive)
REMARK    1  A    between atoms: N_2  and  C_18
REMARK    2  A    between atoms: C_3  and  C_6
REMARK    3  A    between atoms: C_5  and  N_12
REMARK    4  A    between atoms: C_18  and  C_19
REMARK    5  A    between atoms: C_19  and  N_21
REMARK    6  A    between atoms: C_22  and  C_26
REMARK                            x       y       z     vdW  Elec       q    Type
REMARK                         _______ _______ _______ _____ _____    ______ ____
ROOT
ATOM      1  O   UNL     1      32.626 -22.517 -19.398  0.00  0.00    -0.270 OA
ATOM      2  N   UNL     1      34.154 -20.795 -19.664  0.00  0.00    -0.299 N 
ATOM      3  C   UNL     1      33.652 -21.928 -19.016  0.00  0.00    +0.246 C 
ATOM      4  H   UNL     1      34.972 -20.377 -19.309  0.00  0.00    +0.150 HD
ENDROOT
BRANCH   3   6
ATOM      5  C   UNL     1      35.757 -23.279 -15.586  0.00  0.00    +0.058 C 
ATOM      6  C   UNL     1      34.374 -22.390 -17.841  0.00  0.00    +0.053 C 
ATOM      7  C   UNL     1      36.408 -22.499 -16.543  0.00  0.00    +0.015 C 
ATOM      8  C   UNL     1      34.413 -23.614 -15.758  0.00  0.00    +0.015 C 
ATOM      9  C   UNL     1      35.716 -22.055 -17.670  0.00  0.00    +0.006 C 
ATOM     10  C   UNL     1      33.722 -23.170 -16.885  0.00  0.00    +0.006 C 
BRANCH   5  12
ATOM     11  O   UNL     1      37.142 -25.808 -15.367  0.00  0.00    -0.269 OA
ATOM     12  N   UNL     1      36.477 -23.742 -14.416  0.00  0.00    -0.233 N 
ATOM     13  C   UNL     1      37.152 -24.989 -14.448  0.00  0.00    +0.257 C 
ATOM     14  C   UNL     1      36.493 -22.978 -13.247  0.00  0.00    +0.072 C 
ATOM     15  C   UNL     1      37.909 -25.369 -13.215  0.00  0.00    +0.059 C 
ATOM     16  C   UNL     1      37.150 -23.355 -12.144  0.00  0.00    +0.017 C 
ATOM     17  C   UNL     1      37.885 -24.584 -12.134  0.00  0.00    +0.006 C 
ENDBRANCH   5  12
ENDBRANCH   3   6
BRANCH   2  18
ATOM     18  C   UNL     1      33.537 -20.202 -20.830  0.00  0.00    +0.111 C 
BRANCH  18  19
ATOM     19  C   UNL     1      34.444 -19.187 -21.505  0.00  0.00    +0.111 C 
BRANCH  19  21
ATOM     20  O   UNL     1      34.833 -19.865 -24.267  0.00  0.00    -0.270 OA
ATOM     21  N   UNL     1      33.810 -18.568 -22.639  0.00  0.00    -0.299 N 
ATOM     22  C   UNL     1      34.061 -18.965 -23.946  0.00  0.00    +0.252 C 
ATOM     23  H   UNL     1      33.173 -17.834 -22.481  0.00  0.00    +0.150 HD
BRANCH  22  26
ATOM     24 CL   UNL     1      32.628 -15.095 -27.546  0.00  0.00    -0.075 Cl
ATOM     25  S   UNL     1      33.966 -16.703 -25.439  0.00  0.00    -0.071 S 
ATOM     26  C   UNL     1      33.347 -18.208 -25.007  0.00  0.00    +0.084 C 
ATOM     27  C   UNL     1      32.245 -18.597 -25.669  0.00  0.00    +0.012 C 
ATOM     28  C   UNL     1      31.861 -17.596 -26.609  0.00  0.00    +0.019 C 
ATOM     29  C   UNL     1      32.711 -16.513 -26.588  0.00  0.00    +0.087 C 
ENDBRANCH  22  26
ENDBRANCH  19  21
ENDBRANCH  18  19
ENDBRANCH   2  18
TORSDOF 6
ENDMDL
MODEL 5
REMARK VINA RESULT:     -11.0      6.369     11.272
REMARK  Name = 10250490
REMARK  6 active torsions:
REMARK  status: ('A' for Active; 'I' for Inactive)
REMARK    1  A    between atoms: N_2  and  C_18
REMARK    2  A    between atoms: C_3  and  C_6
REMARK    3  A    between atoms: C_5  and  N_12
REMARK    4  A    between atoms: C_18  and  C_19
REMARK    5  A    between atoms: C_19  and  N_21
REMARK    6  A    between atoms: C_22  and  C_26
REMARK                            x       y       z     vdW  Elec       q    Type
REMARK                         _______ _______ _______ _____ _____    ______ ____
ROOT
ATOM      1  O   UNL     1      34.961 -16.554 -26.290  0.00  0.00    -0.270 OA
ATOM      2  N   UNL     1      32.991 -15.709 -25.409  0.00  0.00    -0.299 N 
ATOM      3  C   UNL     1      34.107 -16.552 -25.386  0.00  0.00    +0.246 C 
ATOM      4  H   UNL     1      32.353 -15.759 -24.659  0.00  0.00    +0.150 HD
ENDROOT
BRANCH   3   6
ATOM      5  C   UNL     1      34.454 -19.207 -22.093  0.00  0.00    +0.058 C 
ATOM      6  C   UNL     1      34.226 -17.461 -24.257  0.00  0.00    +0.053 C 
ATOM      7  C   UNL     1      34.586 -17.832 -21.898  0.00  0.00    +0.015 C 
ATOM      8  C   UNL     1      34.207 -19.709 -23.372  0.00  0.00    +0.015 C 
ATOM      9  C   UNL     1      34.471 -16.959 -22.980  0.00  0.00    +0.006 C 
ATOM     10  C   UNL     1      34.094 -18.836 -24.454  0.00  0.00    +0.006 C 
BRANCH   5  12
ATOM     11  O   UNL     1      32.241 -20.375 -20.643  0.00  0.00    -0.269 OA
ATOM     12  N   UNL     1      34.575 -20.114 -20.968  0.00  0.00    -0.233 N 
ATOM     13  C   UNL     1      33.408 -20.652 -20.366  0.00  0.00    +0.257 C 
ATOM     14  C   UNL     1      35.831 -20.446 -20.457  0.00  0.00    +0.072 C 
ATOM     15  C   UNL     1      33.623 -21.616 -19.242  0.00  0.00    +0.059 C 
ATOM     16  C   UNL     1      35.997 -21.285 -19.429  0.00  0.00    +0.017 C 
ATOM     17  C   UNL     1      34.856 -21.892 -18.810  0.00  0.00    +0.006 C 
ENDBRANCH   5  12
ENDBRANCH   3   6
BRANCH   2  18
ATOM     18  C   UNL     1      32.721 -14.768 -26.472  0.00  0.00    +0.111 C 
BRANCH  18  19
ATOM     19  C   UNL     1      32.951 -13.330 -26.039  0.00  0.00    +0.111 C 
BRANCH  19  21
ATOM     20  O   UNL     1      34.084 -11.585 -24.061  0.00  0.00    -0.270 OA
ATOM     21  N   UNL     1      32.433 -13.075 -24.721  0.00  0.00    -0.299 N 
ATOM     22  C   UNL     1      33.053 -12.210 -23.828  0.00  0.00    +0.252 C 
ATOM     23  H   UNL     1      31.607 -13.532 -24.442  0.00  0.00    +0.150 HD
BRANCH  22  26
ATOM     24 CL   UNL     1      30.397 -10.188 -19.486  0.00  0.00    -0.075 Cl
ATOM     25  S   UNL     1      31.718 -10.585 -22.116  0.00  0.00    -0.071 S 
ATOM     26  C   UNL     1      32.407 -12.074 -22.496  0.00  0.00    +0.084 C 
ATOM     27  C   UNL     1      32.311 -13.019 -21.549  0.00  0.00    +0.012 C 
ATOM     28  C   UNL     1      31.622 -12.505 -20.412  0.00  0.00    +0.019 C 
ATOM     29  C   UNL     1      31.243 -11.192 -20.587  0.00  0.00    +0.087 C 
ENDBRANCH  22  26
ENDBRANCH  19  21
ENDBRANCH  18  19
ENDBRANCH   2  18
TORSDOF 6
ENDMDL
MODEL 6
REMARK VINA RESULT:     -10.8      6.477     11.053
REMARK  Name = 10250490
REMARK  6 active torsions:
REMARK  status: ('A' for Active; 'I' for Inactive)
REMARK    1  A    between atoms: N_2  and  C_18
REMARK    2  A    between atoms: C_3  and  C_6
REMARK    3  A    between atoms: C_5  and  N_12
REMARK    4  A    between atoms: C_18  and  C_19
REMARK    5  A    between atoms: C_19  and  N_21
REMARK    6  A    between atoms: C_22  and  C_26
REMARK                            x       y       z     vdW  Elec       q    Type
REMARK                         _______ _______ _______ _____ _____    ______ ____
ROOT
ATOM      1  O   UNL     1      34.600 -16.482 -26.491  0.00  0.00    -0.270 OA
ATOM      2  N   UNL     1      32.987 -15.379 -25.244  0.00  0.00    -0.299 N 
ATOM      3  C   UNL     1      33.973 -16.355 -25.425  0.00  0.00    +0.246 C 
ATOM      4  H   UNL     1      32.529 -15.334 -24.374  0.00  0.00    +0.150 HD
ENDROOT
BRANCH   3   6
ATOM      5  C   UNL     1      34.714 -18.967 -22.162  0.00  0.00    +0.058 C 
ATOM      6  C   UNL     1      34.227 -17.251 -24.308  0.00  0.00    +0.053 C 
ATOM      7  C   UNL     1      34.395 -19.489 -23.416  0.00  0.00    +0.015 C 
ATOM      8  C   UNL     1      34.790 -17.586 -21.982  0.00  0.00    +0.015 C 
ATOM      9  C   UNL     1      34.153 -18.631 -24.489  0.00  0.00    +0.006 C 
ATOM     10  C   UNL     1      34.546 -16.728 -23.054  0.00  0.00    +0.006 C 
BRANCH   5  12
ATOM     11  O   UNL     1      37.276 -19.358 -20.879  0.00  0.00    -0.269 OA
ATOM     12  N   UNL     1      34.965 -19.860 -21.048  0.00  0.00    -0.233 N 
ATOM     13  C   UNL     1      36.263 -19.932 -20.479  0.00  0.00    +0.257 C 
ATOM     14  C   UNL     1      33.944 -20.667 -20.543  0.00  0.00    +0.072 C 
ATOM     15  C   UNL     1      36.424 -20.842 -19.302  0.00  0.00    +0.059 C 
ATOM     16  C   UNL     1      34.121 -21.499 -19.510  0.00  0.00    +0.017 C 
ATOM     17  C   UNL     1      35.400 -21.581 -18.869  0.00  0.00    +0.006 C 
ENDBRANCH   5  12
ENDBRANCH   3   6
BRANCH   2  18
ATOM     18  C   UNL     1      32.604 -14.431 -26.266  0.00  0.00    +0.111 C 
BRANCH  18  19
ATOM     19  C   UNL     1      32.922 -12.999 -25.870  0.00  0.00    +0.111 C 
BRANCH  19  21
ATOM     20  O   UNL     1      34.281 -13.321 -23.362  0.00  0.00    -0.270 OA
ATOM     21  N   UNL     1      32.408 -12.674 -24.567  0.00  0.00    -0.299 N 
ATOM     22  C   UNL     1      33.141 -12.865 -23.403  0.00  0.00    +0.252 C 
ATOM     23  H   UNL     1      31.499 -12.301 -24.498  0.00  0.00    +0.150 HD
BRANCH  22  26
ATOM     24 CL   UNL     1      30.313 -10.156 -19.575  0.00  0.00    -0.075 Cl
ATOM     25  S   UNL     1      31.711 -10.996 -22.057  0.00  0.00    -0.071 S 
ATOM     26  C   UNL     1      32.459 -12.503 -22.134  0.00  0.00    +0.084 C 
ATOM     27  C   UNL     1      32.371 -13.254 -21.025  0.00  0.00    +0.012 C 
ATOM     28  C   UNL     1      31.637 -12.559 -20.020  0.00  0.00    +0.019 C 
ATOM     29  C   UNL     1      31.219 -11.319 -20.449  0.00  0.00    +0.087 C 
ENDBRANCH  22  26
ENDBRANCH  19  21
ENDBRANCH  18  19
ENDBRANCH   2  18
TORSDOF 6
ENDMDL
MODEL 7
REMARK VINA RESULT:     -10.8      3.512      4.909
REMARK  Name = 10250490
REMARK  6 active torsions:
REMARK  status: ('A' for Active; 'I' for Inactive)
REMARK    1  A    between atoms: N_2  and  C_18
REMARK    2  A    between atoms: C_3  and  C_6
REMARK    3  A    between atoms: C_5  and  N_12
REMARK    4  A    between atoms: C_18  and  C_19
REMARK    5  A    between atoms: C_19  and  N_21
REMARK    6  A    between atoms: C_22  and  C_26
REMARK                            x       y       z     vdW  Elec       q    Type
REMARK                         _______ _______ _______ _____ _____    ______ ____
ROOT
ATOM      1  O   UNL     1      36.640 -19.347 -20.336  0.00  0.00    -0.270 OA
ATOM      2  N   UNL     1      34.570 -20.388 -20.394  0.00  0.00    -0.299 N 
ATOM      3  C   UNL     1      35.491 -19.418 -20.804  0.00  0.00    +0.246 C 
ATOM      4  H   UNL     1      33.676 -20.387 -20.807  0.00  0.00    +0.150 HD
ENDROOT
BRANCH   3   6
ATOM      5  C   UNL     1      34.174 -16.625 -23.717  0.00  0.00    +0.058 C 
ATOM      6  C   UNL     1      35.041 -18.460 -21.802  0.00  0.00    +0.053 C 
ATOM      7  C   UNL     1      34.704 -16.175 -22.507  0.00  0.00    +0.015 C 
ATOM      8  C   UNL     1      34.078 -17.994 -23.968  0.00  0.00    +0.015 C 
ATOM      9  C   UNL     1      35.137 -17.093 -21.550  0.00  0.00    +0.006 C 
ATOM     10  C   UNL     1      34.511 -18.912 -23.011  0.00  0.00    +0.006 C 
BRANCH   5  12
ATOM     11  O   UNL     1      33.979 -17.135 -26.557  0.00  0.00    -0.269 OA
ATOM     12  N   UNL     1      33.722 -15.671 -24.710  0.00  0.00    -0.233 N 
ATOM     13  C   UNL     1      33.633 -16.058 -26.073  0.00  0.00    +0.257 C 
ATOM     14  C   UNL     1      33.395 -14.365 -24.341  0.00  0.00    +0.072 C 
ATOM     15  C   UNL     1      33.113 -15.027 -27.024  0.00  0.00    +0.059 C 
ATOM     16  C   UNL     1      32.963 -13.450 -25.216  0.00  0.00    +0.017 C 
ATOM     17  C   UNL     1      32.813 -13.798 -26.598  0.00  0.00    +0.006 C 
ENDBRANCH   5  12
ENDBRANCH   3   6
BRANCH   2  18
ATOM     18  C   UNL     1      34.859 -21.393 -19.395  0.00  0.00    +0.111 C 
BRANCH  18  19
ATOM     19  C   UNL     1      34.023 -22.647 -19.584  0.00  0.00    +0.111 C 
BRANCH  19  21
ATOM     20  O   UNL     1      34.475 -23.451 -16.866  0.00  0.00    -0.270 OA
ATOM     21  N   UNL     1      33.028 -22.792 -18.555  0.00  0.00    -0.299 N 
ATOM     22  C   UNL     1      33.342 -23.188 -17.261  0.00  0.00    +0.252 C 
ATOM     23  H   UNL     1      32.088 -22.603 -18.778  0.00  0.00    +0.150 HD
BRANCH  22  26
ATOM     24 CL   UNL     1      30.312 -24.251 -12.825  0.00  0.00    -0.075 Cl
ATOM     25  S   UNL     1      32.515 -23.947 -14.793  0.00  0.00    -0.071 S 
ATOM     26  C   UNL     1      32.198 -23.316 -16.322  0.00  0.00    +0.084 C 
ATOM     27  C   UNL     1      30.920 -22.980 -16.559  0.00  0.00    +0.012 C 
ATOM     28  C   UNL     1      30.120 -23.253 -15.412  0.00  0.00    +0.019 C 
ATOM     29  C   UNL     1      30.862 -23.781 -14.378  0.00  0.00    +0.087 C 
ENDBRANCH  22  26
ENDBRANCH  19  21
ENDBRANCH  18  19
ENDBRANCH   2  18
TORSDOF 6
ENDMDL
MODEL 8
REMARK VINA RESULT:     -10.8      4.667     10.560
REMARK  Name = 10250490
REMARK  6 active torsions:
REMARK  status: ('A' for Active; 'I' for Inactive)
REMARK    1  A    between atoms: N_2  and  C_18
REMARK    2  A    between atoms: C_3  and  C_6
REMARK    3  A    between atoms: C_5  and  N_12
REMARK    4  A    between atoms: C_18  and  C_19
REMARK    5  A    between atoms: C_19  and  N_21
REMARK    6  A    between atoms: C_22  and  C_26
REMARK                            x       y       z     vdW  Elec       q    Type
REMARK                         _______ _______ _______ _____ _____    ______ ____
ROOT
ATOM      1  O   UNL     1      32.546 -22.159 -19.404  0.00  0.00    -0.270 OA
ATOM      2  N   UNL     1      34.371 -20.792 -19.819  0.00  0.00    -0.299 N 
ATOM      3  C   UNL     1      33.685 -21.771 -19.092  0.00  0.00    +0.246 C 
ATOM      4  H   UNL     1      35.272 -20.532 -19.518  0.00  0.00    +0.150 HD
ENDROOT
BRANCH   3   6
ATOM      5  C   UNL     1      35.641 -23.359 -15.675  0.00  0.00    +0.058 C 
ATOM      6  C   UNL     1      34.356 -22.314 -17.921  0.00  0.00    +0.053 C 
ATOM      7  C   UNL     1      36.326 -22.501 -16.537  0.00  0.00    +0.015 C 
ATOM      8  C   UNL     1      34.312 -23.693 -15.938  0.00  0.00    +0.015 C 
ATOM      9  C   UNL     1      35.683 -21.979 -17.659  0.00  0.00    +0.006 C 
ATOM     10  C   UNL     1      33.669 -23.172 -17.061  0.00  0.00    +0.006 C 
BRANCH   5  12
ATOM     11  O   UNL     1      36.656 -26.056 -15.436  0.00  0.00    -0.269 OA
ATOM     12  N   UNL     1      36.309 -23.902 -14.509  0.00  0.00    -0.233 N 
ATOM     13  C   UNL     1      36.799 -25.234 -14.532  0.00  0.00    +0.257 C 
ATOM     14  C   UNL     1      36.456 -23.132 -13.354  0.00  0.00    +0.072 C 
ATOM     15  C   UNL     1      37.518 -25.699 -13.305  0.00  0.00    +0.059 C 
ATOM     16  C   UNL     1      37.074 -23.582 -12.257  0.00  0.00    +0.017 C 
ATOM     17  C   UNL     1      37.626 -24.904 -12.238  0.00  0.00    +0.006 C 
ENDBRANCH   5  12
ENDBRANCH   3   6
BRANCH   2  18
ATOM     18  C   UNL     1      33.830 -20.141 -20.991  0.00  0.00    +0.111 C 
BRANCH  18  19
ATOM     19  C   UNL     1      34.918 -19.562 -21.880  0.00  0.00    +0.111 C 
BRANCH  19  21
ATOM     20  O   UNL     1      35.349 -17.173 -20.348  0.00  0.00    -0.270 OA
ATOM     21  N   UNL     1      34.620 -18.215 -22.288  0.00  0.00    -0.299 N 
ATOM     22  C   UNL     1      34.864 -17.115 -21.475  0.00  0.00    +0.252 C 
ATOM     23  H   UNL     1      34.227 -18.068 -23.179  0.00  0.00    +0.150 HD
BRANCH  22  26
ATOM     24 CL   UNL     1      33.463 -13.103 -24.928  0.00  0.00    -0.075 Cl
ATOM     25  S   UNL     1      34.240 -15.690 -23.695  0.00  0.00    -0.071 S 
ATOM     26  C   UNL     1      34.477 -15.793 -22.031  0.00  0.00    +0.084 C 
ATOM     27  C   UNL     1      34.292 -14.654 -21.345  0.00  0.00    +0.012 C 
ATOM     28  C   UNL     1      33.928 -13.601 -22.234  0.00  0.00    +0.019 C 
ATOM     29  C   UNL     1      33.862 -14.027 -23.542  0.00  0.00    +0.087 C 
ENDBRANCH  22  26
ENDBRANCH  19  21
ENDBRANCH  18  19
ENDBRANCH   2  18
TORSDOF 6
ENDMDL
MODEL 9
REMARK VINA RESULT:     -10.6      2.376      3.843
REMARK  Name = 10250490
REMARK  6 active torsions:
REMARK  status: ('A' for Active; 'I' for Inactive)
REMARK    1  A    between atoms: N_2  and  C_18
REMARK    2  A    between atoms: C_3  and  C_6
REMARK    3  A    between atoms: C_5  and  N_12
REMARK    4  A    between atoms: C_18  and  C_19
REMARK    5  A    between atoms: C_19  and  N_21
REMARK    6  A    between atoms: C_22  and  C_26
REMARK                            x       y       z     vdW  Elec       q    Type
REMARK                         _______ _______ _______ _____ _____    ______ ____
ROOT
ATOM      1  O   UNL     1      37.054 -19.085 -20.943  0.00  0.00    -0.270 OA
ATOM      2  N   UNL     1      35.225 -20.458 -20.566  0.00  0.00    -0.299 N 
ATOM      3  C   UNL     1      35.906 -19.447 -21.253  0.00  0.00    +0.246 C 
ATOM      4  H   UNL     1      34.318 -20.696 -20.865  0.00  0.00    +0.150 HD
ENDROOT
BRANCH   3   6
ATOM      5  C   UNL     1      33.851 -17.571 -24.457  0.00  0.00    +0.058 C 
ATOM      6  C   UNL     1      35.201 -18.805 -22.351  0.00  0.00    +0.053 C 
ATOM      7  C   UNL     1      34.107 -18.942 -24.499  0.00  0.00    +0.015 C 
ATOM      8  C   UNL     1      34.270 -16.817 -23.360  0.00  0.00    +0.015 C 
ATOM      9  C   UNL     1      34.781 -19.558 -23.446  0.00  0.00    +0.006 C 
ATOM     10  C   UNL     1      34.946 -17.434 -22.308  0.00  0.00    +0.006 C 
BRANCH   5  12
ATOM     11  O   UNL     1      31.407 -18.532 -25.669  0.00  0.00    -0.269 OA
ATOM     12  N   UNL     1      33.150 -16.930 -25.553  0.00  0.00    -0.233 N 
ATOM     13  C   UNL     1      31.934 -17.481 -26.034  0.00  0.00    +0.257 C 
ATOM     14  C   UNL     1      33.674 -15.785 -26.155  0.00  0.00    +0.072 C 
ATOM     15  C   UNL     1      31.252 -16.731 -27.134  0.00  0.00    +0.059 C 
ATOM     16  C   UNL     1      33.062 -15.150 -27.162  0.00  0.00    +0.017 C 
ATOM     17  C   UNL     1      31.810 -15.637 -27.658  0.00  0.00    +0.006 C 
ENDBRANCH   5  12
ENDBRANCH   3   6
BRANCH   2  18
ATOM     18  C   UNL     1      35.782 -21.174 -19.439  0.00  0.00    +0.111 C 
BRANCH  18  19
ATOM     19  C   UNL     1      34.732 -21.989 -18.702  0.00  0.00    +0.111 C 
BRANCH  19  21
ATOM     20  O   UNL     1      33.211 -23.393 -16.713  0.00  0.00    -0.270 OA
ATOM     21  N   UNL     1      35.208 -22.451 -17.426  0.00  0.00    -0.299 N 
ATOM     22  C   UNL     1      34.395 -23.125 -16.523  0.00  0.00    +0.252 C 
ATOM     23  H   UNL     1      36.147 -22.282 -17.183  0.00  0.00    +0.150 HD
BRANCH  22  26
ATOM     24 CL   UNL     1      38.089 -24.472 -12.712  0.00  0.00    -0.075 Cl
ATOM     25  S   UNL     1      36.703 -23.699 -15.222  0.00  0.00    -0.071 S 
ATOM     26  C   UNL     1      35.029 -23.513 -15.237  0.00  0.00    +0.084 C 
ATOM     27  C   UNL     1      34.408 -23.736 -14.068  0.00  0.00    +0.012 C 
ATOM     28  C   UNL     1      35.359 -24.089 -13.067  0.00  0.00    +0.019 C 
ATOM     29  C   UNL     1      36.645 -24.106 -13.559  0.00  0.00    +0.087 C 
ENDBRANCH  22  26
ENDBRANCH  19  21
ENDBRANCH  18  19
ENDBRANCH   2  18
TORSDOF 6
ENDMDL
