MODEL 1
REMARK VINA RESULT:     -11.6      0.000      0.000
REMARK  Name = 66571548
REMARK  8 active torsions:
REMARK  status: ('A' for Active; 'I' for Inactive)
REMARK    1  A    between atoms: C_2  and  C_10
REMARK    2  A    between atoms: C_2  and  C_22
REMARK    3  A    between atoms: N_3  and  C_15
REMARK    4  A    between atoms: C_15  and  C_18
REMARK    5  A    between atoms: C_18  and  O_19
REMARK    6  A    between atoms: C_25  and  N_28
REMARK    7  A    between atoms: C_29  and  C_31
REMARK    8  A    between atoms: C_31  and  C_34
REMARK                            x       y       z     vdW  Elec       q    Type
REMARK                         _______ _______ _______ _____ _____    ______ ____
ROOT
ATOM      1  O   UNL     1      33.437 -24.008 -19.515  0.00  0.00    -0.286 OA
ATOM      2  C   UNL     1      33.758 -23.212 -18.606  0.00  0.00    +0.199 C 
ENDROOT
BRANCH   2  10
ATOM      3  N   UNL     1      31.806 -23.487 -15.583  0.00  0.00    -0.261 N 
ATOM      4  N   UNL     1      33.311 -23.922 -13.750  0.00  0.00    -0.322 NA
ATOM      5  N   UNL     1      35.641 -24.045 -14.443  0.00  0.00    -0.170 NA
ATOM      6  N   UNL     1      35.018 -24.332 -12.206  0.00  0.00    -0.293 N 
ATOM      7  C   UNL     1      33.050 -23.694 -15.049  0.00  0.00    +0.201 C 
ATOM      8  C   UNL     1      31.916 -23.289 -16.935  0.00  0.00    +0.071 C 
ATOM      9  C   UNL     1      33.976 -23.625 -16.083  0.00  0.00    +0.069 C 
ATOM     10  C   UNL     1      33.251 -23.368 -17.273  0.00  0.00    +0.059 C 
ATOM     11  C   UNL     1      35.314 -23.811 -15.736  0.00  0.00    +0.116 C 
ATOM     12  C   UNL     1      34.633 -24.086 -13.544  0.00  0.00    +0.143 C 
ATOM     13  H   UNL     1      34.335 -24.375 -11.498  0.00  0.00    +0.155 HD
ATOM     14  H   UNL     1      35.967 -24.461 -11.982  0.00  0.00    +0.155 HD
BRANCH   3  15
ATOM     15  C   UNL     1      30.480 -23.474 -14.798  0.00  0.00    +0.091 C 
ATOM     16  C   UNL     1      30.495 -22.531 -13.571  0.00  0.00    +0.023 C 
ATOM     17  C   UNL     1      29.348 -22.983 -15.729  0.00  0.00    +0.023 C 
BRANCH  15  18
ATOM     18  C   UNL     1      30.133 -24.903 -14.306  0.00  0.00    +0.155 C 
BRANCH  18  19
ATOM     19  O   UNL     1      30.454 -25.051 -12.926  0.00  0.00    -0.380 OA
ATOM     20  H   UNL     1      31.407 -25.203 -12.831  0.00  0.00    +0.211 HD
ENDBRANCH  18  19
ENDBRANCH  15  18
ENDBRANCH   3  15
ENDBRANCH   2  10
BRANCH   2  22
ATOM     21  N   UNL     1      36.592 -20.709 -18.459  0.00  0.00    -0.241 NA
ATOM     22  C   UNL     1      34.693 -22.102 -19.004  0.00  0.00    +0.059 C 
ATOM     23  C   UNL     1      34.553 -21.448 -20.223  0.00  0.00    +0.021 C 
ATOM     24  C   UNL     1      35.718 -21.698 -18.164  0.00  0.00    +0.102 C 
ATOM     25  C   UNL     1      35.433 -20.425 -20.561  0.00  0.00    +0.070 C 
ATOM     26  C   UNL     1      36.426 -20.096 -19.653  0.00  0.00    +0.113 C 
BRANCH  25  28
ATOM     27  O   UNL     1      32.997 -19.426 -22.006  0.00  0.00    -0.274 OA
ATOM     28  N   UNL     1      35.317 -19.751 -21.775  0.00  0.00    -0.282 N 
ATOM     29  C   UNL     1      34.149 -19.301 -22.414  0.00  0.00    +0.232 C 
ATOM     30  H   UNL     1      36.161 -19.567 -22.245  0.00  0.00    +0.155 HD
BRANCH  29  31
ATOM     31  C   UNL     1      34.473 -18.609 -23.729  0.00  0.00    +0.131 C 
BRANCH  31  34
ATOM     32 CL   UNL     1      33.652 -12.723 -23.471  0.00  0.00    -0.081 Cl
ATOM     33  N   UNL     1      34.680 -16.470 -22.590  0.00  0.00    -0.247 NA
ATOM     34  C   UNL     1      34.251 -17.120 -23.694  0.00  0.00    +0.068 C 
ATOM     35  C   UNL     1      33.631 -16.501 -24.768  0.00  0.00    +0.016 C 
ATOM     36  C   UNL     1      33.441 -15.125 -24.704  0.00  0.00    +0.014 C 
ATOM     37  C   UNL     1      34.479 -15.133 -22.564  0.00  0.00    +0.110 C 
ATOM     38  C   UNL     1      33.869 -14.420 -23.585  0.00  0.00    +0.077 C 
ENDBRANCH  31  34
ENDBRANCH  29  31
ENDBRANCH  25  28
ENDBRANCH   2  22
TORSDOF 8
ENDMDL
MODEL 2
REMARK VINA RESULT:     -11.5      2.533      4.100
REMARK  Name = 66571548
REMARK  8 active torsions:
REMARK  status: ('A' for Active; 'I' for Inactive)
REMARK    1  A    between atoms: C_2  and  C_10
REMARK    2  A    between atoms: C_2  and  C_22
REMARK    3  A    between atoms: N_3  and  C_15
REMARK    4  A    between atoms: C_15  and  C_18
REMARK    5  A    between atoms: C_18  and  O_19
REMARK    6  A    between atoms: C_25  and  N_28
REMARK    7  A    between atoms: C_29  and  C_31
REMARK    8  A    between atoms: C_31  and  C_34
REMARK                            x       y       z     vdW  Elec       q    Type
REMARK                         _______ _______ _______ _____ _____    ______ ____
ROOT
ATOM      1  O   UNL     1      37.408 -21.054 -16.967  0.00  0.00    -0.286 OA
ATOM      2  C   UNL     1      36.436 -21.835 -17.056  0.00  0.00    +0.199 C 
ENDROOT
BRANCH   2  10
ATOM      3  N   UNL     1      36.584 -24.412 -14.533  0.00  0.00    -0.261 N 
ATOM      4  N   UNL     1      34.333 -24.898 -13.817  0.00  0.00    -0.322 NA
ATOM      5  N   UNL     1      32.660 -23.554 -14.968  0.00  0.00    -0.170 NA
ATOM      6  N   UNL     1      32.054 -25.132 -13.349  0.00  0.00    -0.293 N 
ATOM      7  C   UNL     1      35.227 -24.232 -14.569  0.00  0.00    +0.201 C 
ATOM      8  C   UNL     1      37.182 -23.564 -15.429  0.00  0.00    +0.071 C 
ATOM      9  C   UNL     1      34.951 -23.247 -15.510  0.00  0.00    +0.069 C 
ATOM     10  C   UNL     1      36.194 -22.830 -16.050  0.00  0.00    +0.059 C 
ATOM     11  C   UNL     1      33.608 -22.919 -15.695  0.00  0.00    +0.116 C 
ATOM     12  C   UNL     1      33.076 -24.491 -14.087  0.00  0.00    +0.143 C 
ATOM     13  H   UNL     1      32.285 -25.825 -12.689  0.00  0.00    +0.155 HD
ATOM     14  H   UNL     1      31.113 -24.885 -13.494  0.00  0.00    +0.155 HD
BRANCH   3  15
ATOM     15  C   UNL     1      37.335 -25.411 -13.631  0.00  0.00    +0.091 C 
ATOM     16  C   UNL     1      36.860 -26.874 -13.797  0.00  0.00    +0.023 C 
ATOM     17  C   UNL     1      38.839 -25.382 -13.992  0.00  0.00    +0.023 C 
BRANCH  15  18
ATOM     18  C   UNL     1      37.175 -25.016 -12.141  0.00  0.00    +0.155 C 
BRANCH  18  19
ATOM     19  O   UNL     1      36.177 -25.815 -11.514  0.00  0.00    -0.380 OA
ATOM     20  H   UNL     1      36.154 -26.690 -11.931  0.00  0.00    +0.211 HD
ENDBRANCH  18  19
ENDBRANCH  15  18
ENDBRANCH   3  15
ENDBRANCH   2  10
BRANCH   2  22
ATOM     21  N   UNL     1      33.530 -22.239 -19.445  0.00  0.00    -0.241 NA
ATOM     22  C   UNL     1      35.560 -21.661 -18.266  0.00  0.00    +0.059 C 
ATOM     23  C   UNL     1      35.928 -20.808 -19.302  0.00  0.00    +0.021 C 
ATOM     24  C   UNL     1      34.363 -22.348 -18.386  0.00  0.00    +0.102 C 
ATOM     25  C   UNL     1      35.097 -20.670 -20.409  0.00  0.00    +0.070 C 
ATOM     26  C   UNL     1      33.920 -21.400 -20.432  0.00  0.00    +0.113 C 
BRANCH  25  28
ATOM     27  O   UNL     1      34.951 -17.679 -20.625  0.00  0.00    -0.274 OA
ATOM     28  N   UNL     1      35.439 -19.824 -21.461  0.00  0.00    -0.282 N 
ATOM     29  C   UNL     1      35.354 -18.422 -21.515  0.00  0.00    +0.232 C 
ATOM     30  H   UNL     1      35.785 -20.265 -22.270  0.00  0.00    +0.155 HD
BRANCH  29  31
ATOM     31  C   UNL     1      35.832 -17.894 -22.859  0.00  0.00    +0.131 C 
BRANCH  31  34
ATOM     32 CL   UNL     1      31.434 -17.298 -26.820  0.00  0.00    -0.081 Cl
ATOM     33  N   UNL     1      34.126 -18.833 -24.317  0.00  0.00    -0.247 NA
ATOM     34  C   UNL     1      34.723 -17.709 -23.860  0.00  0.00    +0.068 C 
ATOM     35  C   UNL     1      34.373 -16.429 -24.259  0.00  0.00    +0.016 C 
ATOM     36  C   UNL     1      33.344 -16.294 -25.185  0.00  0.00    +0.014 C 
ATOM     37  C   UNL     1      33.131 -18.663 -25.215  0.00  0.00    +0.110 C 
ATOM     38  C   UNL     1      32.707 -17.427 -25.678  0.00  0.00    +0.077 C 
ENDBRANCH  31  34
ENDBRANCH  29  31
ENDBRANCH  25  28
ENDBRANCH   2  22
TORSDOF 8
ENDMDL
MODEL 3
REMARK VINA RESULT:     -11.4      1.924      2.337
REMARK  Name = 66571548
REMARK  8 active torsions:
REMARK  status: ('A' for Active; 'I' for Inactive)
REMARK    1  A    between atoms: C_2  and  C_10
REMARK    2  A    between atoms: C_2  and  C_22
REMARK    3  A    between atoms: N_3  and  C_15
REMARK    4  A    between atoms: C_15  and  C_18
REMARK    5  A    between atoms: C_18  and  O_19
REMARK    6  A    between atoms: C_25  and  N_28
REMARK    7  A    between atoms: C_29  and  C_31
REMARK    8  A    between atoms: C_31  and  C_34
REMARK                            x       y       z     vdW  Elec       q    Type
REMARK                         _______ _______ _______ _____ _____    ______ ____
ROOT
ATOM      1  O   UNL     1      36.261 -22.307 -18.343  0.00  0.00    -0.286 OA
ATOM      2  C   UNL     1      35.034 -22.213 -18.123  0.00  0.00    +0.199 C 
ENDROOT
BRANCH   2  10
ATOM      3  N   UNL     1      32.917 -23.446 -15.473  0.00  0.00    -0.261 N 
ATOM      4  N   UNL     1      34.326 -24.178 -13.659  0.00  0.00    -0.322 NA
ATOM      5  N   UNL     1      36.698 -23.883 -14.121  0.00  0.00    -0.170 NA
ATOM      6  N   UNL     1      35.954 -24.792 -12.096  0.00  0.00    -0.293 N 
ATOM      7  C   UNL     1      34.134 -23.654 -14.882  0.00  0.00    +0.201 C 
ATOM      8  C   UNL     1      33.099 -22.900 -16.718  0.00  0.00    +0.071 C 
ATOM      9  C   UNL     1      35.118 -23.231 -15.768  0.00  0.00    +0.069 C 
ATOM     10  C   UNL     1      34.455 -22.755 -16.927  0.00  0.00    +0.059 C 
ATOM     11  C   UNL     1      36.439 -23.362 -15.343  0.00  0.00    +0.116 C 
ATOM     12  C   UNL     1      35.640 -24.254 -13.366  0.00  0.00    +0.143 C 
ATOM     13  H   UNL     1      35.232 -25.083 -11.494  0.00  0.00    +0.155 HD
ATOM     14  H   UNL     1      36.893 -24.876 -11.816  0.00  0.00    +0.155 HD
BRANCH   3  15
ATOM     15  C   UNL     1      31.546 -23.769 -14.848  0.00  0.00    +0.091 C 
ATOM     16  C   UNL     1      31.177 -22.852 -13.656  0.00  0.00    +0.023 C 
ATOM     17  C   UNL     1      30.446 -23.579 -15.918  0.00  0.00    +0.023 C 
BRANCH  15  18
ATOM     18  C   UNL     1      31.512 -25.238 -14.356  0.00  0.00    +0.155 C 
BRANCH  18  19
ATOM     19  O   UNL     1      31.640 -25.299 -12.940  0.00  0.00    -0.380 OA
ATOM     20  H   UNL     1      31.179 -26.085 -12.607  0.00  0.00    +0.211 HD
ENDBRANCH  18  19
ENDBRANCH  15  18
ENDBRANCH   3  15
ENDBRANCH   2  10
BRANCH   2  22
ATOM     21  N   UNL     1      32.091 -21.163 -20.257  0.00  0.00    -0.241 NA
ATOM     22  C   UNL     1      34.228 -21.508 -19.179  0.00  0.00    +0.059 C 
ATOM     23  C   UNL     1      34.818 -20.586 -20.037  0.00  0.00    +0.021 C 
ATOM     24  C   UNL     1      32.874 -21.760 -19.330  0.00  0.00    +0.102 C 
ATOM     25  C   UNL     1      34.046 -19.952 -21.004  0.00  0.00    +0.070 C 
ATOM     26  C   UNL     1      32.700 -20.272 -21.072  0.00  0.00    +0.113 C 
BRANCH  25  28
ATOM     27  O   UNL     1      34.885 -17.106 -20.541  0.00  0.00    -0.274 OA
ATOM     28  N   UNL     1      34.610 -19.024 -21.877  0.00  0.00    -0.282 N 
ATOM     29  C   UNL     1      34.989 -17.696 -21.613  0.00  0.00    +0.232 C 
ATOM     30  H   UNL     1      34.762 -19.338 -22.797  0.00  0.00    +0.155 HD
BRANCH  29  31
ATOM     31  C   UNL     1      35.566 -17.032 -22.852  0.00  0.00    +0.131 C 
BRANCH  31  34
ATOM     32 CL   UNL     1      31.717 -16.785 -27.381  0.00  0.00    -0.081 Cl
ATOM     33  N   UNL     1      34.349 -18.074 -24.683  0.00  0.00    -0.247 NA
ATOM     34  C   UNL     1      34.587 -16.936 -23.993  0.00  0.00    +0.068 C 
ATOM     35  C   UNL     1      33.990 -15.718 -24.276  0.00  0.00    +0.016 C 
ATOM     36  C   UNL     1      33.091 -15.664 -25.335  0.00  0.00    +0.014 C 
ATOM     37  C   UNL     1      33.469 -17.983 -25.705  0.00  0.00    +0.110 C 
ATOM     38  C   UNL     1      32.820 -16.814 -26.069  0.00  0.00    +0.077 C 
ENDBRANCH  31  34
ENDBRANCH  29  31
ENDBRANCH  25  28
ENDBRANCH   2  22
TORSDOF 8
ENDMDL
MODEL 4
REMARK VINA RESULT:     -11.4      3.817     10.374
REMARK  Name = 66571548
REMARK  8 active torsions:
REMARK  status: ('A' for Active; 'I' for Inactive)
REMARK    1  A    between atoms: C_2  and  C_10
REMARK    2  A    between atoms: C_2  and  C_22
REMARK    3  A    between atoms: N_3  and  C_15
REMARK    4  A    between atoms: C_15  and  C_18
REMARK    5  A    between atoms: C_18  and  O_19
REMARK    6  A    between atoms: C_25  and  N_28
REMARK    7  A    between atoms: C_29  and  C_31
REMARK    8  A    between atoms: C_31  and  C_34
REMARK                            x       y       z     vdW  Elec       q    Type
REMARK                         _______ _______ _______ _____ _____    ______ ____
ROOT
ATOM      1  O   UNL     1      36.389 -20.433 -20.367  0.00  0.00    -0.286 OA
ATOM      2  C   UNL     1      35.192 -20.197 -20.641  0.00  0.00    +0.199 C 
ENDROOT
BRANCH   2  10
ATOM      3  N   UNL     1      34.238 -18.522 -23.692  0.00  0.00    -0.261 N 
ATOM      4  N   UNL     1      34.183 -16.149 -23.265  0.00  0.00    -0.322 NA
ATOM      5  N   UNL     1      34.772 -15.583 -20.971  0.00  0.00    -0.170 NA
ATOM      6  N   UNL     1      34.225 -13.929 -22.534  0.00  0.00    -0.293 N 
ATOM      7  C   UNL     1      34.380 -17.424 -22.886  0.00  0.00    +0.201 C 
ATOM      8  C   UNL     1      34.514 -19.656 -22.974  0.00  0.00    +0.071 C 
ATOM      9  C   UNL     1      34.757 -17.866 -21.624  0.00  0.00    +0.069 C 
ATOM     10  C   UNL     1      34.840 -19.280 -21.687  0.00  0.00    +0.059 C 
ATOM     11  C   UNL     1      34.954 -16.886 -20.651  0.00  0.00    +0.116 C 
ATOM     12  C   UNL     1      34.403 -15.301 -22.241  0.00  0.00    +0.143 C 
ATOM     13  H   UNL     1      33.956 -13.650 -23.439  0.00  0.00    +0.155 HD
ATOM     14  H   UNL     1      34.368 -13.253 -21.833  0.00  0.00    +0.155 HD
BRANCH   3  15
ATOM     15  C   UNL     1      33.832 -18.500 -25.178  0.00  0.00    +0.091 C 
ATOM     16  C   UNL     1      34.512 -17.371 -25.990  0.00  0.00    +0.023 C 
ATOM     17  C   UNL     1      34.247 -19.838 -25.834  0.00  0.00    +0.023 C 
BRANCH  15  18
ATOM     18  C   UNL     1      32.297 -18.337 -25.314  0.00  0.00    +0.155 C 
BRANCH  18  19
ATOM     19  O   UNL     1      31.950 -16.966 -25.486  0.00  0.00    -0.380 OA
ATOM     20  H   UNL     1      31.586 -16.619 -24.657  0.00  0.00    +0.211 HD
ENDBRANCH  18  19
ENDBRANCH  15  18
ENDBRANCH   3  15
ENDBRANCH   2  10
BRANCH   2  22
ATOM     21  N   UNL     1      31.860 -21.207 -19.159  0.00  0.00    -0.241 NA
ATOM     22  C   UNL     1      34.171 -20.929 -19.814  0.00  0.00    +0.059 C 
ATOM     23  C   UNL     1      34.545 -21.962 -18.961  0.00  0.00    +0.021 C 
ATOM     24  C   UNL     1      32.828 -20.592 -19.875  0.00  0.00    +0.102 C 
ATOM     25  C   UNL     1      33.578 -22.618 -18.207  0.00  0.00    +0.070 C 
ATOM     26  C   UNL     1      32.261 -22.207 -18.341  0.00  0.00    +0.113 C 
BRANCH  25  28
ATOM     27  O   UNL     1      33.573 -22.734 -15.206  0.00  0.00    -0.274 OA
ATOM     28  N   UNL     1      33.922 -23.656 -17.344  0.00  0.00    -0.282 N 
ATOM     29  C   UNL     1      33.903 -23.663 -15.938  0.00  0.00    +0.232 C 
ATOM     30  H   UNL     1      34.218 -24.490 -17.773  0.00  0.00    +0.155 HD
BRANCH  29  31
ATOM     31  C   UNL     1      34.358 -25.006 -15.389  0.00  0.00    +0.131 C 
BRANCH  31  34
ATOM     32 CL   UNL     1      40.243 -25.210 -14.546  0.00  0.00    -0.081 Cl
ATOM     33  N   UNL     1      36.564 -23.982 -15.454  0.00  0.00    -0.247 NA
ATOM     34  C   UNL     1      35.845 -25.090 -15.165  0.00  0.00    +0.068 C 
ATOM     35  C   UNL     1      36.395 -26.268 -14.686  0.00  0.00    +0.016 C 
ATOM     36  C   UNL     1      37.771 -26.312 -14.489  0.00  0.00    +0.014 C 
ATOM     37  C   UNL     1      37.898 -24.062 -15.251  0.00  0.00    +0.110 C 
ATOM     38  C   UNL     1      38.544 -25.192 -14.776  0.00  0.00    +0.077 C 
ENDBRANCH  31  34
ENDBRANCH  29  31
ENDBRANCH  25  28
ENDBRANCH   2  22
TORSDOF 8
ENDMDL
MODEL 5
REMARK VINA RESULT:     -11.4      1.587      3.066
REMARK  Name = 66571548
REMARK  8 active torsions:
REMARK  status: ('A' for Active; 'I' for Inactive)
REMARK    1  A    between atoms: C_2  and  C_10
REMARK    2  A    between atoms: C_2  and  C_22
REMARK    3  A    between atoms: N_3  and  C_15
REMARK    4  A    between atoms: C_15  and  C_18
REMARK    5  A    between atoms: C_18  and  O_19
REMARK    6  A    between atoms: C_25  and  N_28
REMARK    7  A    between atoms: C_29  and  C_31
REMARK    8  A    between atoms: C_31  and  C_34
REMARK                            x       y       z     vdW  Elec       q    Type
REMARK                         _______ _______ _______ _____ _____    ______ ____
ROOT
ATOM      1  O   UNL     1      32.006 -22.435 -18.910  0.00  0.00    -0.286 OA
ATOM      2  C   UNL     1      33.109 -22.364 -18.324  0.00  0.00    +0.199 C 
ENDROOT
BRANCH   2  10
ATOM      3  N   UNL     1      34.331 -23.757 -15.227  0.00  0.00    -0.261 N 
ATOM      4  N   UNL     1      32.436 -24.498 -13.933  0.00  0.00    -0.322 NA
ATOM      5  N   UNL     1      30.310 -24.108 -15.054  0.00  0.00    -0.170 NA
ATOM      6  N   UNL     1      30.409 -25.106 -12.939  0.00  0.00    -0.293 N 
ATOM      7  C   UNL     1      32.989 -23.942 -15.025  0.00  0.00    +0.201 C 
ATOM      8  C   UNL     1      34.532 -23.162 -16.446  0.00  0.00    +0.071 C 
ATOM      9  C   UNL     1      32.317 -23.457 -16.141  0.00  0.00    +0.069 C 
ATOM     10  C   UNL     1      33.301 -22.965 -17.035  0.00  0.00    +0.059 C 
ATOM     11  C   UNL     1      30.927 -23.558 -16.126  0.00  0.00    +0.116 C 
ATOM     12  C   UNL     1      31.093 -24.537 -14.038  0.00  0.00    +0.143 C 
ATOM     13  H   UNL     1      30.916 -25.440 -12.164  0.00  0.00    +0.155 HD
ATOM     14  H   UNL     1      29.427 -25.167 -12.948  0.00  0.00    +0.155 HD
BRANCH   3  15
ATOM     15  C   UNL     1      35.451 -24.152 -14.246  0.00  0.00    +0.091 C 
ATOM     16  C   UNL     1      35.838 -25.649 -14.316  0.00  0.00    +0.023 C 
ATOM     17  C   UNL     1      36.725 -23.342 -14.583  0.00  0.00    +0.023 C 
BRANCH  15  18
ATOM     18  C   UNL     1      35.029 -23.829 -12.790  0.00  0.00    +0.155 C 
BRANCH  18  19
ATOM     19  O   UNL     1      34.619 -25.012 -12.111  0.00  0.00    -0.380 OA
ATOM     20  H   UNL     1      34.102 -25.568 -12.715  0.00  0.00    +0.211 HD
ENDBRANCH  18  19
ENDBRANCH  15  18
ENDBRANCH   3  15
ENDBRANCH   2  10
BRANCH   2  22
ATOM     21  N   UNL     1      36.520 -20.975 -19.190  0.00  0.00    -0.241 NA
ATOM     22  C   UNL     1      34.194 -21.620 -19.053  0.00  0.00    +0.059 C 
ATOM     23  C   UNL     1      33.920 -20.907 -20.215  0.00  0.00    +0.021 C 
ATOM     24  C   UNL     1      35.499 -21.622 -18.585  0.00  0.00    +0.102 C 
ATOM     25  C   UNL     1      34.945 -20.228 -20.866  0.00  0.00    +0.070 C 
ATOM     26  C   UNL     1      36.216 -20.293 -20.318  0.00  0.00    +0.113 C 
BRANCH  25  28
ATOM     27  O   UNL     1      36.751 -18.428 -22.451  0.00  0.00    -0.274 OA
ATOM     28  N   UNL     1      34.700 -19.505 -22.031  0.00  0.00    -0.282 N 
ATOM     29  C   UNL     1      35.583 -18.672 -22.741  0.00  0.00    +0.232 C 
ATOM     30  H   UNL     1      33.794 -19.588 -22.404  0.00  0.00    +0.155 HD
BRANCH  29  31
ATOM     31  C   UNL     1      34.907 -18.072 -23.964  0.00  0.00    +0.131 C 
BRANCH  31  34
ATOM     32 CL   UNL     1      33.070 -12.454 -23.292  0.00  0.00    -0.081 Cl
ATOM     33  N   UNL     1      33.788 -16.075 -24.789  0.00  0.00    -0.247 NA
ATOM     34  C   UNL     1      34.456 -16.649 -23.763  0.00  0.00    +0.068 C 
ATOM     35  C   UNL     1      34.738 -16.010 -22.566  0.00  0.00    +0.016 C 
ATOM     36  C   UNL     1      34.306 -14.697 -22.413  0.00  0.00    +0.014 C 
ATOM     37  C   UNL     1      33.384 -14.799 -24.603  0.00  0.00    +0.110 C 
ATOM     38  C   UNL     1      33.617 -14.072 -23.446  0.00  0.00    +0.077 C 
ENDBRANCH  31  34
ENDBRANCH  29  31
ENDBRANCH  25  28
ENDBRANCH   2  22
TORSDOF 8
ENDMDL
MODEL 6
REMARK VINA RESULT:     -11.2      2.108      3.450
REMARK  Name = 66571548
REMARK  8 active torsions:
REMARK  status: ('A' for Active; 'I' for Inactive)
REMARK    1  A    between atoms: C_2  and  C_10
REMARK    2  A    between atoms: C_2  and  C_22
REMARK    3  A    between atoms: N_3  and  C_15
REMARK    4  A    between atoms: C_15  and  C_18
REMARK    5  A    between atoms: C_18  and  O_19
REMARK    6  A    between atoms: C_25  and  N_28
REMARK    7  A    between atoms: C_29  and  C_31
REMARK    8  A    between atoms: C_31  and  C_34
REMARK                            x       y       z     vdW  Elec       q    Type
REMARK                         _______ _______ _______ _____ _____    ______ ____
ROOT
ATOM      1  O   UNL     1      31.949 -22.265 -19.084  0.00  0.00    -0.286 OA
ATOM      2  C   UNL     1      33.058 -22.237 -18.506  0.00  0.00    +0.199 C 
ENDROOT
BRANCH   2  10
ATOM      3  N   UNL     1      34.267 -23.736 -15.454  0.00  0.00    -0.261 N 
ATOM      4  N   UNL     1      32.363 -24.450 -14.158  0.00  0.00    -0.322 NA
ATOM      5  N   UNL     1      30.239 -23.972 -15.248  0.00  0.00    -0.170 NA
ATOM      6  N   UNL     1      30.328 -25.021 -13.157  0.00  0.00    -0.293 N 
ATOM      7  C   UNL     1      32.922 -23.886 -15.242  0.00  0.00    +0.201 C 
ATOM      8  C   UNL     1      34.474 -23.120 -16.661  0.00  0.00    +0.071 C 
ATOM      9  C   UNL     1      32.255 -23.356 -16.340  0.00  0.00    +0.069 C 
ATOM     10  C   UNL     1      33.244 -22.873 -17.233  0.00  0.00    +0.059 C 
ATOM     11  C   UNL     1      30.862 -23.416 -16.313  0.00  0.00    +0.116 C 
ATOM     12  C   UNL     1      31.018 -24.448 -14.250  0.00  0.00    +0.143 C 
ATOM     13  H   UNL     1      30.832 -25.387 -12.395  0.00  0.00    +0.155 HD
ATOM     14  H   UNL     1      29.345 -25.053 -13.158  0.00  0.00    +0.155 HD
BRANCH   3  15
ATOM     15  C   UNL     1      35.384 -24.186 -14.493  0.00  0.00    +0.091 C 
ATOM     16  C   UNL     1      35.695 -25.701 -14.570  0.00  0.00    +0.023 C 
ATOM     17  C   UNL     1      36.690 -23.440 -14.854  0.00  0.00    +0.023 C 
BRANCH  15  18
ATOM     18  C   UNL     1      35.006 -23.843 -13.030  0.00  0.00    +0.155 C 
BRANCH  18  19
ATOM     19  O   UNL     1      34.589 -25.012 -12.331  0.00  0.00    -0.380 OA
ATOM     20  H   UNL     1      33.621 -25.022 -12.267  0.00  0.00    +0.211 HD
ENDBRANCH  18  19
ENDBRANCH  15  18
ENDBRANCH   3  15
ENDBRANCH   2  10
BRANCH   2  22
ATOM     21  N   UNL     1      36.501 -21.340 -19.793  0.00  0.00    -0.241 NA
ATOM     22  C   UNL     1      34.157 -21.505 -19.226  0.00  0.00    +0.059 C 
ATOM     23  C   UNL     1      33.890 -20.357 -19.966  0.00  0.00    +0.021 C 
ATOM     24  C   UNL     1      35.467 -21.951 -19.171  0.00  0.00    +0.102 C 
ATOM     25  C   UNL     1      34.928 -19.701 -20.619  0.00  0.00    +0.070 C 
ATOM     26  C   UNL     1      36.204 -20.229 -20.503  0.00  0.00    +0.113 C 
BRANCH  25  28
ATOM     27  O   UNL     1      36.497 -18.491 -22.875  0.00  0.00    -0.274 OA
ATOM     28  N   UNL     1      34.691 -18.550 -21.366  0.00  0.00    -0.282 N 
ATOM     29  C   UNL     1      35.459 -18.021 -22.419  0.00  0.00    +0.232 C 
ATOM     30  H   UNL     1      33.884 -18.042 -21.126  0.00  0.00    +0.155 HD
BRANCH  29  31
ATOM     31  C   UNL     1      34.840 -16.742 -22.961  0.00  0.00    +0.131 C 
BRANCH  31  34
ATOM     32 CL   UNL     1      31.377 -17.744 -27.694  0.00  0.00    -0.081 Cl
ATOM     33  N   UNL     1      33.474 -18.210 -24.339  0.00  0.00    -0.247 NA
ATOM     34  C   UNL     1      33.967 -16.963 -24.169  0.00  0.00    +0.068 C 
ATOM     35  C   UNL     1      33.716 -15.906 -25.028  0.00  0.00    +0.016 C 
ATOM     36  C   UNL     1      32.906 -16.144 -26.133  0.00  0.00    +0.014 C 
ATOM     37  C   UNL     1      32.691 -18.404 -25.423  0.00  0.00    +0.110 C 
ATOM     38  C   UNL     1      32.380 -17.414 -26.342  0.00  0.00    +0.077 C 
ENDBRANCH  31  34
ENDBRANCH  29  31
ENDBRANCH  25  28
ENDBRANCH   2  22
TORSDOF 8
ENDMDL
MODEL 7
REMARK VINA RESULT:     -11.1      7.035     12.709
REMARK  Name = 66571548
REMARK  8 active torsions:
REMARK  status: ('A' for Active; 'I' for Inactive)
REMARK    1  A    between atoms: C_2  and  C_10
REMARK    2  A    between atoms: C_2  and  C_22
REMARK    3  A    between atoms: N_3  and  C_15
REMARK    4  A    between atoms: C_15  and  C_18
REMARK    5  A    between atoms: C_18  and  O_19
REMARK    6  A    between atoms: C_25  and  N_28
REMARK    7  A    between atoms: C_29  and  C_31
REMARK    8  A    between atoms: C_31  and  C_34
REMARK                            x       y       z     vdW  Elec       q    Type
REMARK                         _______ _______ _______ _____ _____    ______ ____
ROOT
ATOM      1  O   UNL     1      34.825 -10.792 -25.446  0.00  0.00    -0.286 OA
ATOM      2  C   UNL     1      33.714 -11.265 -25.122  0.00  0.00    +0.199 C 
ENDROOT
BRANCH   2  10
ATOM      3  N   UNL     1      31.967 -10.537 -22.049  0.00  0.00    -0.261 N 
ATOM      4  N   UNL     1      31.055  -8.311 -22.208  0.00  0.00    -0.322 NA
ATOM      5  N   UNL     1      31.556  -7.228 -24.331  0.00  0.00    -0.170 NA
ATOM      6  N   UNL     1      30.309  -6.144 -22.673  0.00  0.00    -0.293 N 
ATOM      7  C   UNL     1      31.745  -9.354 -22.702  0.00  0.00    +0.201 C 
ATOM      8  C   UNL     1      32.708 -11.369 -22.849  0.00  0.00    +0.071 C 
ATOM      9  C   UNL     1      32.355  -9.431 -23.947  0.00  0.00    +0.069 C 
ATOM     10  C   UNL     1      32.963 -10.709 -24.033  0.00  0.00    +0.059 C 
ATOM     11  C   UNL     1      32.239  -8.311 -24.771  0.00  0.00    +0.116 C 
ATOM     12  C   UNL     1      31.015  -7.295 -23.094  0.00  0.00    +0.143 C 
ATOM     13  H   UNL     1      29.889  -6.122 -21.783  0.00  0.00    +0.155 HD
ATOM     14  H   UNL     1      30.240  -5.364 -23.269  0.00  0.00    +0.155 HD
BRANCH   3  15
ATOM     15  C   UNL     1      31.467 -10.893 -20.635  0.00  0.00    +0.091 C 
ATOM     16  C   UNL     1      29.967 -10.583 -20.413  0.00  0.00    +0.023 C 
ATOM     17  C   UNL     1      31.653 -12.410 -20.403  0.00  0.00    +0.023 C 
BRANCH  15  18
ATOM     18  C   UNL     1      32.284 -10.123 -19.567  0.00  0.00    +0.155 C 
BRANCH  18  19
ATOM     19  O   UNL     1      31.632  -8.907 -19.215  0.00  0.00    -0.380 OA
ATOM     20  H   UNL     1      32.172  -8.155 -19.506  0.00  0.00    +0.211 HD
ENDBRANCH  18  19
ENDBRANCH  15  18
ENDBRANCH   3  15
ENDBRANCH   2  10
BRANCH   2  22
ATOM     21  N   UNL     1      32.413 -13.277 -28.051  0.00  0.00    -0.241 NA
ATOM     22  C   UNL     1      33.232 -12.433 -25.939  0.00  0.00    +0.059 C 
ATOM     23  C   UNL     1      33.150 -13.708 -25.389  0.00  0.00    +0.021 C 
ATOM     24  C   UNL     1      32.855 -12.272 -27.262  0.00  0.00    +0.102 C 
ATOM     25  C   UNL     1      32.699 -14.768 -26.169  0.00  0.00    +0.070 C 
ATOM     26  C   UNL     1      32.347 -14.502 -27.483  0.00  0.00    +0.113 C 
BRANCH  25  28
ATOM     27  O   UNL     1      34.473 -17.159 -26.558  0.00  0.00    -0.274 OA
ATOM     28  N   UNL     1      32.605 -16.055 -25.646  0.00  0.00    -0.282 N 
ATOM     29  C   UNL     1      33.465 -17.147 -25.857  0.00  0.00    +0.232 C 
ATOM     30  H   UNL     1      31.839 -16.221 -25.052  0.00  0.00    +0.155 HD
BRANCH  29  31
ATOM     31  C   UNL     1      32.994 -18.374 -25.092  0.00  0.00    +0.131 C 
BRANCH  31  34
ATOM     32 CL   UNL     1      36.175 -19.618 -20.222  0.00  0.00    -0.081 Cl
ATOM     33  N   UNL     1      33.177 -19.200 -22.811  0.00  0.00    -0.247 NA
ATOM     34  C   UNL     1      33.828 -18.678 -23.875  0.00  0.00    +0.068 C 
ATOM     35  C   UNL     1      35.188 -18.414 -23.899  0.00  0.00    +0.016 C 
ATOM     36  C   UNL     1      35.928 -18.707 -22.759  0.00  0.00    +0.014 C 
ATOM     37  C   UNL     1      33.929 -19.472 -21.721  0.00  0.00    +0.110 C 
ATOM     38  C   UNL     1      35.295 -19.245 -21.645  0.00  0.00    +0.077 C 
ENDBRANCH  31  34
ENDBRANCH  29  31
ENDBRANCH  25  28
ENDBRANCH   2  22
TORSDOF 8
ENDMDL
MODEL 8
REMARK VINA RESULT:     -11.0      3.723     11.185
REMARK  Name = 66571548
REMARK  8 active torsions:
REMARK  status: ('A' for Active; 'I' for Inactive)
REMARK    1  A    between atoms: C_2  and  C_10
REMARK    2  A    between atoms: C_2  and  C_22
REMARK    3  A    between atoms: N_3  and  C_15
REMARK    4  A    between atoms: C_15  and  C_18
REMARK    5  A    between atoms: C_18  and  O_19
REMARK    6  A    between atoms: C_25  and  N_28
REMARK    7  A    between atoms: C_29  and  C_31
REMARK    8  A    between atoms: C_31  and  C_34
REMARK                            x       y       z     vdW  Elec       q    Type
REMARK                         _______ _______ _______ _____ _____    ______ ____
ROOT
ATOM      1  O   UNL     1      34.200 -19.239 -24.879  0.00  0.00    -0.286 OA
ATOM      2  C   UNL     1      34.349 -18.389 -23.974  0.00  0.00    +0.199 C 
ENDROOT
BRANCH   2  10
ATOM      3  N   UNL     1      33.635 -14.857 -23.766  0.00  0.00    -0.261 N 
ATOM      4  N   UNL     1      32.752 -14.139 -25.892  0.00  0.00    -0.322 NA
ATOM      5  N   UNL     1      32.598 -15.946 -27.516  0.00  0.00    -0.170 NA
ATOM      6  N   UNL     1      31.933 -13.767 -28.050  0.00  0.00    -0.293 N 
ATOM      7  C   UNL     1      33.242 -15.074 -25.060  0.00  0.00    +0.201 C 
ATOM      8  C   UNL     1      34.083 -16.032 -23.221  0.00  0.00    +0.071 C 
ATOM      9  C   UNL     1      33.442 -16.419 -25.348  0.00  0.00    +0.069 C 
ATOM     10  C   UNL     1      33.975 -17.019 -24.179  0.00  0.00    +0.059 C 
ATOM     11  C   UNL     1      33.097 -16.841 -26.631  0.00  0.00    +0.116 C 
ATOM     12  C   UNL     1      32.459 -14.668 -27.096  0.00  0.00    +0.143 C 
ATOM     13  H   UNL     1      31.805 -12.820 -27.813  0.00  0.00    +0.155 HD
ATOM     14  H   UNL     1      31.697 -14.085 -28.951  0.00  0.00    +0.155 HD
BRANCH   3  15
ATOM     15  C   UNL     1      33.585 -13.507 -23.025  0.00  0.00    +0.091 C 
ATOM     16  C   UNL     1      32.155 -13.073 -22.623  0.00  0.00    +0.023 C 
ATOM     17  C   UNL     1      34.406 -13.618 -21.720  0.00  0.00    +0.023 C 
BRANCH  15  18
ATOM     18  C   UNL     1      34.200 -12.388 -23.904  0.00  0.00    +0.155 C 
BRANCH  18  19
ATOM     19  O   UNL     1      33.179 -11.563 -24.455  0.00  0.00    -0.380 OA
ATOM     20  H   UNL     1      33.392 -11.360 -25.380  0.00  0.00    +0.211 HD
ENDBRANCH  18  19
ENDBRANCH  15  18
ENDBRANCH   3  15
ENDBRANCH   2  10
BRANCH   2  22
ATOM     21  N   UNL     1      36.851 -19.079 -21.221  0.00  0.00    -0.241 NA
ATOM     22  C   UNL     1      34.936 -18.895 -22.685  0.00  0.00    +0.059 C 
ATOM     23  C   UNL     1      34.167 -19.625 -21.784  0.00  0.00    +0.021 C 
ATOM     24  C   UNL     1      36.260 -18.652 -22.360  0.00  0.00    +0.102 C 
ATOM     25  C   UNL     1      34.739 -20.082 -20.602  0.00  0.00    +0.070 C 
ATOM     26  C   UNL     1      36.073 -19.784 -20.369  0.00  0.00    +0.113 C 
BRANCH  25  28
ATOM     27  O   UNL     1      34.688 -23.033 -20.054  0.00  0.00    -0.274 OA
ATOM     28  N   UNL     1      33.995 -20.815 -19.681  0.00  0.00    -0.282 N 
ATOM     29  C   UNL     1      34.006 -22.204 -19.460  0.00  0.00    +0.232 C 
ATOM     30  H   UNL     1      33.383 -20.295 -19.113  0.00  0.00    +0.155 HD
BRANCH  29  31
ATOM     31  C   UNL     1      33.036 -22.592 -18.355  0.00  0.00    +0.131 C 
BRANCH  31  34
ATOM     32 CL   UNL     1      35.827 -23.836 -13.251  0.00  0.00    -0.081 Cl
ATOM     33  N   UNL     1      35.046 -22.699 -16.988  0.00  0.00    -0.247 NA
ATOM     34  C   UNL     1      33.713 -22.917 -17.049  0.00  0.00    +0.068 C 
ATOM     35  C   UNL     1      32.959 -23.412 -15.998  0.00  0.00    +0.016 C 
ATOM     36  C   UNL     1      33.614 -23.701 -14.806  0.00  0.00    +0.014 C 
ATOM     37  C   UNL     1      35.649 -22.991 -15.814  0.00  0.00    +0.110 C 
ATOM     38  C   UNL     1      34.985 -23.491 -14.704  0.00  0.00    +0.077 C 
ENDBRANCH  31  34
ENDBRANCH  29  31
ENDBRANCH  25  28
ENDBRANCH   2  22
TORSDOF 8
ENDMDL
MODEL 9
REMARK VINA RESULT:     -10.9      2.352      3.927
REMARK  Name = 66571548
REMARK  8 active torsions:
REMARK  status: ('A' for Active; 'I' for Inactive)
REMARK    1  A    between atoms: C_2  and  C_10
REMARK    2  A    between atoms: C_2  and  C_22
REMARK    3  A    between atoms: N_3  and  C_15
REMARK    4  A    between atoms: C_15  and  C_18
REMARK    5  A    between atoms: C_18  and  O_19
REMARK    6  A    between atoms: C_25  and  N_28
REMARK    7  A    between atoms: C_29  and  C_31
REMARK    8  A    between atoms: C_31  and  C_34
REMARK                            x       y       z     vdW  Elec       q    Type
REMARK                         _______ _______ _______ _____ _____    ______ ____
ROOT
ATOM      1  O   UNL     1      37.314 -20.910 -17.137  0.00  0.00    -0.286 OA
ATOM      2  C   UNL     1      36.382 -21.742 -17.196  0.00  0.00    +0.199 C 
ENDROOT
BRANCH   2  10
ATOM      3  N   UNL     1      36.704 -24.291 -14.663  0.00  0.00    -0.261 N 
ATOM      4  N   UNL     1      34.500 -24.820 -13.839  0.00  0.00    -0.322 NA
ATOM      5  N   UNL     1      32.746 -23.524 -14.922  0.00  0.00    -0.170 NA
ATOM      6  N   UNL     1      32.252 -25.099 -13.263  0.00  0.00    -0.293 N 
ATOM      7  C   UNL     1      35.343 -24.141 -14.637  0.00  0.00    +0.201 C 
ATOM      8  C   UNL     1      37.241 -23.439 -15.593  0.00  0.00    +0.071 C 
ATOM      9  C   UNL     1      35.002 -23.172 -15.572  0.00  0.00    +0.069 C 
ATOM     10  C   UNL     1      36.209 -22.732 -16.173  0.00  0.00    +0.059 C 
ATOM     11  C   UNL     1      33.645 -22.874 -15.697  0.00  0.00    +0.116 C 
ATOM     12  C   UNL     1      33.224 -24.443 -14.053  0.00  0.00    +0.143 C 
ATOM     13  H   UNL     1      32.528 -25.781 -12.609  0.00  0.00    +0.155 HD
ATOM     14  H   UNL     1      31.299 -24.874 -13.366  0.00  0.00    +0.155 HD
BRANCH   3  15
ATOM     15  C   UNL     1      37.519 -25.265 -13.789  0.00  0.00    +0.091 C 
ATOM     16  C   UNL     1      39.042 -25.211 -14.056  0.00  0.00    +0.023 C 
ATOM     17  C   UNL     1      37.310 -24.901 -12.301  0.00  0.00    +0.023 C 
BRANCH  15  18
ATOM     18  C   UNL     1      37.039 -26.721 -14.016  0.00  0.00    +0.155 C 
BRANCH  18  19
ATOM     19  O   UNL     1      37.893 -27.395 -14.935  0.00  0.00    -0.380 OA
ATOM     20  H   UNL     1      37.772 -28.354 -14.845  0.00  0.00    +0.211 HD
ENDBRANCH  18  19
ENDBRANCH  15  18
ENDBRANCH   3  15
ENDBRANCH   2  10
BRANCH   2  22
ATOM     21  N   UNL     1      33.457 -22.326 -19.525  0.00  0.00    -0.241 NA
ATOM     22  C   UNL     1      35.477 -21.631 -18.393  0.00  0.00    +0.059 C 
ATOM     23  C   UNL     1      35.785 -20.779 -19.449  0.00  0.00    +0.021 C 
ATOM     24  C   UNL     1      34.313 -22.377 -18.479  0.00  0.00    +0.102 C 
ATOM     25  C   UNL     1      34.929 -20.700 -20.543  0.00  0.00    +0.070 C 
ATOM     26  C   UNL     1      33.788 -21.487 -20.532  0.00  0.00    +0.113 C 
BRANCH  25  28
ATOM     27  O   UNL     1      33.082 -19.263 -22.423  0.00  0.00    -0.274 OA
ATOM     28  N   UNL     1      35.211 -19.857 -21.615  0.00  0.00    -0.282 N 
ATOM     29  C   UNL     1      34.307 -19.203 -22.471  0.00  0.00    +0.232 C 
ATOM     30  H   UNL     1      36.165 -19.700 -21.797  0.00  0.00    +0.155 HD
BRANCH  29  31
ATOM     31  C   UNL     1      35.039 -18.375 -23.515  0.00  0.00    +0.131 C 
BRANCH  31  34
ATOM     32 CL   UNL     1      33.049 -12.790 -23.997  0.00  0.00    -0.081 Cl
ATOM     33  N   UNL     1      33.918 -16.604 -24.749  0.00  0.00    -0.247 NA
ATOM     34  C   UNL     1      34.547 -16.954 -23.605  0.00  0.00    +0.068 C 
ATOM     35  C   UNL     1      34.758 -16.093 -22.541  0.00  0.00    +0.016 C 
ATOM     36  C   UNL     1      34.291 -14.788 -22.657  0.00  0.00    +0.014 C 
ATOM     37  C   UNL     1      33.478 -15.328 -24.826  0.00  0.00    +0.110 C 
ATOM     38  C   UNL     1      33.638 -14.390 -23.818  0.00  0.00    +0.077 C 
ENDBRANCH  31  34
ENDBRANCH  29  31
ENDBRANCH  25  28
ENDBRANCH   2  22
TORSDOF 8
ENDMDL
