MODEL 1
REMARK VINA RESULT:     -12.1      0.000      0.000
REMARK  Name = 15985904
REMARK  7 active torsions:
REMARK  status: ('A' for Active; 'I' for Inactive)
REMARK    1  A    between atoms: N_1  and  S_6
REMARK    2  A    between atoms: C_4  and  C_21
REMARK    3  A    between atoms: S_6  and  C_9
REMARK    4  A    between atoms: C_10  and  C_17
REMARK    5  A    between atoms: C_22  and  C_25
REMARK    6  A    between atoms: N_24  and  C_27
REMARK    7  A    between atoms: C_28  and  N_33
REMARK                            x       y       z     vdW  Elec       q    Type
REMARK                         _______ _______ _______ _____ _____    ______ ____
ROOT
ATOM      1  N   UNL     1      34.282 -19.561 -21.397  0.00  0.00    -0.167 N 
ATOM      2  C   UNL     1      34.485 -20.362 -20.351  0.00  0.00    +0.089 C 
ATOM      3  C   UNL     1      33.011 -19.492 -21.795  0.00  0.00    +0.089 C 
ATOM      4  C   UNL     1      33.245 -20.867 -20.027  0.00  0.00    +0.018 C 
ATOM      5  C   UNL     1      32.312 -20.316 -20.941  0.00  0.00    +0.019 C 
ENDROOT
BRANCH   1   6
ATOM      6  S   UNL     1      35.556 -18.687 -22.171  0.00  0.00    +0.080 S 
ATOM      7  O   UNL     1      35.702 -19.382 -23.438  0.00  0.00    -0.149 OA
ATOM      8  O   UNL     1      36.631 -18.608 -21.199  0.00  0.00    -0.149 OA
BRANCH   6   9
ATOM      9  C   UNL     1      34.933 -17.077 -22.429  0.00  0.00    +0.126 C 
ATOM     10  C   UNL     1      33.935 -14.505 -22.841  0.00  0.00    +0.003 C 
ATOM     11  C   UNL     1      34.781 -16.207 -21.350  0.00  0.00    +0.020 C 
ATOM     12  C   UNL     1      34.586 -16.661 -23.715  0.00  0.00    +0.020 C 
ATOM     13  C   UNL     1      34.282 -14.921 -21.556  0.00  0.00    +0.001 C 
ATOM     14  C   UNL     1      34.087 -15.375 -23.921  0.00  0.00    +0.001 C 
BRANCH  10  17
ATOM     15  N   UNL     1      33.129 -11.195 -23.899  0.00  0.00    -0.208 N 
ATOM     16  N   UNL     1      32.239 -11.240 -22.893  0.00  0.00    -0.176 NA
ATOM     17  C   UNL     1      33.421 -13.181 -23.053  0.00  0.00    +0.037 C 
ATOM     18  C   UNL     1      33.863 -12.336 -24.038  0.00  0.00    +0.086 C 
ATOM     19  C   UNL     1      32.424 -12.458 -22.380  0.00  0.00    +0.119 C 
ATOM     20  C   UNL     1      33.232 -10.006 -24.712  0.00  0.00    +0.140 C 
ENDBRANCH  10  17
ENDBRANCH   6   9
ENDBRANCH   1   6
BRANCH   4  21
ATOM     21  C   UNL     1      32.986 -21.765 -18.971  0.00  0.00    +0.006 C 
ATOM     22  C   UNL     1      33.882 -22.435 -18.191  0.00  0.00    +0.058 C 
BRANCH  22  25
ATOM     23  O   UNL     1      34.173 -24.232 -16.661  0.00  0.00    -0.270 OA
ATOM     24  N   UNL     1      32.131 -23.074 -16.713  0.00  0.00    -0.279 N 
ATOM     25  C   UNL     1      33.433 -23.359 -17.102  0.00  0.00    +0.250 C 
ATOM     26  H   UNL     1      31.688 -22.331 -17.184  0.00  0.00    +0.155 HD
BRANCH  24  27
ATOM     27  C   UNL     1      31.369 -23.731 -15.716  0.00  0.00    +0.064 C 
ATOM     28  C   UNL     1      31.827 -23.791 -14.410  0.00  0.00    +0.055 C 
ATOM     29  C   UNL     1      30.163 -24.306 -16.084  0.00  0.00    +0.016 C 
ATOM     30  C   UNL     1      31.059 -24.444 -13.446  0.00  0.00    +0.015 C 
ATOM     31  C   UNL     1      29.395 -24.958 -15.120  0.00  0.00    +0.001 C 
ATOM     32  C   UNL     1      29.843 -25.028 -13.801  0.00  0.00    +0.001 C 
BRANCH  28  33
ATOM     33  N   UNL     1      33.055 -23.206 -14.028  0.00  0.00    -0.356 N 
ATOM     34  H   UNL     1      33.340 -23.235 -13.085  0.00  0.00    +0.142 HD
ATOM     35  H   UNL     1      33.624 -22.771 -14.702  0.00  0.00    +0.142 HD
ENDBRANCH  28  33
ENDBRANCH  24  27
ENDBRANCH  22  25
ENDBRANCH   4  21
TORSDOF 7
ENDMDL
MODEL 2
REMARK VINA RESULT:     -12.1      2.522      3.297
REMARK  Name = 15985904
REMARK  7 active torsions:
REMARK  status: ('A' for Active; 'I' for Inactive)
REMARK    1  A    between atoms: N_1  and  S_6
REMARK    2  A    between atoms: C_4  and  C_21
REMARK    3  A    between atoms: S_6  and  C_9
REMARK    4  A    between atoms: C_10  and  C_17
REMARK    5  A    between atoms: C_22  and  C_25
REMARK    6  A    between atoms: N_24  and  C_27
REMARK    7  A    between atoms: C_28  and  N_33
REMARK                            x       y       z     vdW  Elec       q    Type
REMARK                         _______ _______ _______ _____ _____    ______ ____
ROOT
ATOM      1  N   UNL     1      34.878 -19.723 -21.307  0.00  0.00    -0.167 N 
ATOM      2  C   UNL     1      35.424 -20.549 -20.414  0.00  0.00    +0.089 C 
ATOM      3  C   UNL     1      33.547 -19.673 -21.265  0.00  0.00    +0.089 C 
ATOM      4  C   UNL     1      34.365 -21.092 -19.721  0.00  0.00    +0.018 C 
ATOM      5  C   UNL     1      33.177 -20.538 -20.259  0.00  0.00    +0.019 C 
ENDROOT
BRANCH   1   6
ATOM      6  S   UNL     1      35.817 -18.796 -22.425  0.00  0.00    +0.080 S 
ATOM      7  O   UNL     1      35.614 -19.500 -23.678  0.00  0.00    -0.149 OA
ATOM      8  O   UNL     1      37.126 -18.650 -21.817  0.00  0.00    -0.149 OA
BRANCH   6   9
ATOM      9  C   UNL     1      35.061 -17.223 -22.481  0.00  0.00    +0.126 C 
ATOM     10  C   UNL     1      33.856 -14.709 -22.571  0.00  0.00    +0.003 C 
ATOM     11  C   UNL     1      34.606 -16.711 -23.696  0.00  0.00    +0.020 C 
ATOM     12  C   UNL     1      34.914 -16.477 -21.311  0.00  0.00    +0.020 C 
ATOM     13  C   UNL     1      34.004 -15.454 -23.741  0.00  0.00    +0.001 C 
ATOM     14  C   UNL     1      34.311 -15.221 -21.356  0.00  0.00    +0.001 C 
BRANCH  10  17
ATOM     15  N   UNL     1      32.727 -11.396 -23.259  0.00  0.00    -0.208 N 
ATOM     16  N   UNL     1      31.950 -11.586 -22.179  0.00  0.00    -0.176 NA
ATOM     17  C   UNL     1      33.236 -13.414 -22.618  0.00  0.00    +0.037 C 
ATOM     18  C   UNL     1      33.517 -12.464 -23.565  0.00  0.00    +0.086 C 
ATOM     19  C   UNL     1      32.267 -12.824 -21.792  0.00  0.00    +0.119 C 
ATOM     20  C   UNL     1      32.665 -10.143 -23.974  0.00  0.00    +0.140 C 
ENDBRANCH  10  17
ENDBRANCH   6   9
ENDBRANCH   1   6
BRANCH   4  21
ATOM     21  C   UNL     1      34.479 -22.027 -18.670  0.00  0.00    +0.006 C 
ATOM     22  C   UNL     1      35.339 -22.011 -17.613  0.00  0.00    +0.058 C 
BRANCH  22  25
ATOM     23  O   UNL     1      34.389 -23.879 -16.488  0.00  0.00    -0.270 OA
ATOM     24  N   UNL     1      36.474 -23.048 -15.797  0.00  0.00    -0.279 N 
ATOM     25  C   UNL     1      35.326 -23.092 -16.577  0.00  0.00    +0.250 C 
ATOM     26  H   UNL     1      37.123 -22.340 -16.016  0.00  0.00    +0.155 HD
BRANCH  24  27
ATOM     27  C   UNL     1      36.816 -23.906 -14.723  0.00  0.00    +0.064 C 
ATOM     28  C   UNL     1      36.010 -23.974 -13.598  0.00  0.00    +0.055 C 
ATOM     29  C   UNL     1      37.969 -24.666 -14.831  0.00  0.00    +0.016 C 
ATOM     30  C   UNL     1      36.368 -24.826 -12.553  0.00  0.00    +0.015 C 
ATOM     31  C   UNL     1      38.327 -25.518 -13.786  0.00  0.00    +0.001 C 
ATOM     32  C   UNL     1      37.526 -25.598 -12.647  0.00  0.00    +0.001 C 
BRANCH  28  33
ATOM     33  N   UNL     1      34.832 -23.204 -13.481  0.00  0.00    -0.356 N 
ATOM     34  H   UNL     1      34.745 -22.360 -13.982  0.00  0.00    +0.142 HD
ATOM     35  H   UNL     1      34.099 -23.509 -12.900  0.00  0.00    +0.142 HD
ENDBRANCH  28  33
ENDBRANCH  24  27
ENDBRANCH  22  25
ENDBRANCH   4  21
TORSDOF 7
ENDMDL
MODEL 3
REMARK VINA RESULT:     -11.8      2.341     11.899
REMARK  Name = 15985904
REMARK  7 active torsions:
REMARK  status: ('A' for Active; 'I' for Inactive)
REMARK    1  A    between atoms: N_1  and  S_6
REMARK    2  A    between atoms: C_4  and  C_21
REMARK    3  A    between atoms: S_6  and  C_9
REMARK    4  A    between atoms: C_10  and  C_17
REMARK    5  A    between atoms: C_22  and  C_25
REMARK    6  A    between atoms: N_24  and  C_27
REMARK    7  A    between atoms: C_28  and  N_33
REMARK                            x       y       z     vdW  Elec       q    Type
REMARK                         _______ _______ _______ _____ _____    ______ ____
ROOT
ATOM      1  N   UNL     1      35.126 -17.413 -22.091  0.00  0.00    -0.167 N 
ATOM      2  C   UNL     1      34.881 -16.505 -23.037  0.00  0.00    +0.089 C 
ATOM      3  C   UNL     1      34.937 -16.973 -20.847  0.00  0.00    +0.089 C 
ATOM      4  C   UNL     1      34.497 -15.367 -22.363  0.00  0.00    +0.018 C 
ATOM      5  C   UNL     1      34.533 -15.662 -20.977  0.00  0.00    +0.019 C 
ENDROOT
BRANCH   1   6
ATOM      6  S   UNL     1      35.644 -19.023 -22.448  0.00  0.00    +0.080 S 
ATOM      7  O   UNL     1      37.091 -18.919 -22.385  0.00  0.00    -0.149 OA
ATOM      8  O   UNL     1      34.944 -19.405 -23.660  0.00  0.00    -0.149 OA
BRANCH   6   9
ATOM      9  C   UNL     1      35.047 -20.010 -21.138  0.00  0.00    +0.126 C 
ATOM     10  C   UNL     1      34.093 -21.586 -19.043  0.00  0.00    +0.003 C 
ATOM     11  C   UNL     1      33.673 -20.164 -20.951  0.00  0.00    +0.020 C 
ATOM     12  C   UNL     1      35.943 -20.644 -20.277  0.00  0.00    +0.020 C 
ATOM     13  C   UNL     1      33.197 -20.952 -19.903  0.00  0.00    +0.001 C 
ATOM     14  C   UNL     1      35.466 -21.431 -19.230  0.00  0.00    +0.001 C 
BRANCH  10  17
ATOM     15  N   UNL     1      33.553 -23.615 -16.158  0.00  0.00    -0.208 N 
ATOM     16  N   UNL     1      32.267 -23.583 -16.549  0.00  0.00    -0.176 NA
ATOM     17  C   UNL     1      33.602 -22.397 -17.964  0.00  0.00    +0.037 C 
ATOM     18  C   UNL     1      34.394 -22.917 -16.974  0.00  0.00    +0.086 C 
ATOM     19  C   UNL     1      32.305 -22.836 -17.655  0.00  0.00    +0.119 C 
ATOM     20  C   UNL     1      33.922 -24.344 -14.969  0.00  0.00    +0.140 C 
ENDBRANCH  10  17
ENDBRANCH   6   9
ENDBRANCH   1   6
BRANCH   4  21
ATOM     21  C   UNL     1      34.139 -14.146 -22.972  0.00  0.00    +0.006 C 
ATOM     22  C   UNL     1      33.489 -13.949 -24.155  0.00  0.00    +0.058 C 
BRANCH  22  25
ATOM     23  O   UNL     1      32.682 -12.396 -25.764  0.00  0.00    -0.270 OA
ATOM     24  N   UNL     1      33.545 -11.610 -23.728  0.00  0.00    -0.279 N 
ATOM     25  C   UNL     1      33.184 -12.573 -24.660  0.00  0.00    +0.250 C 
ATOM     26  H   UNL     1      33.939 -11.941 -22.888  0.00  0.00    +0.155 HD
BRANCH  24  27
ATOM     27  C   UNL     1      33.411 -10.205 -23.848  0.00  0.00    +0.064 C 
ATOM     28  C   UNL     1      34.457  -9.442 -24.344  0.00  0.00    +0.055 C 
ATOM     29  C   UNL     1      32.215  -9.623 -23.460  0.00  0.00    +0.016 C 
ATOM     30  C   UNL     1      34.301  -8.060 -24.453  0.00  0.00    +0.015 C 
ATOM     31  C   UNL     1      32.060  -8.241 -23.569  0.00  0.00    +0.001 C 
ATOM     32  C   UNL     1      33.103  -7.460 -24.065  0.00  0.00    +0.001 C 
BRANCH  28  33
ATOM     33  N   UNL     1      35.678 -10.028 -24.743  0.00  0.00    -0.356 N 
ATOM     34  H   UNL     1      36.104 -10.712 -24.177  0.00  0.00    +0.142 HD
ATOM     35  H   UNL     1      36.103  -9.753 -25.587  0.00  0.00    +0.142 HD
ENDBRANCH  28  33
ENDBRANCH  24  27
ENDBRANCH  22  25
ENDBRANCH   4  21
TORSDOF 7
ENDMDL
MODEL 4
REMARK VINA RESULT:     -11.7      2.395     12.129
REMARK  Name = 15985904
REMARK  7 active torsions:
REMARK  status: ('A' for Active; 'I' for Inactive)
REMARK    1  A    between atoms: N_1  and  S_6
REMARK    2  A    between atoms: C_4  and  C_21
REMARK    3  A    between atoms: S_6  and  C_9
REMARK    4  A    between atoms: C_10  and  C_17
REMARK    5  A    between atoms: C_22  and  C_25
REMARK    6  A    between atoms: N_24  and  C_27
REMARK    7  A    between atoms: C_28  and  N_33
REMARK                            x       y       z     vdW  Elec       q    Type
REMARK                         _______ _______ _______ _____ _____    ______ ____
ROOT
ATOM      1  N   UNL     1      34.966 -17.294 -21.970  0.00  0.00    -0.167 N 
ATOM      2  C   UNL     1      34.774 -16.289 -22.826  0.00  0.00    +0.089 C 
ATOM      3  C   UNL     1      34.842 -16.953 -20.688  0.00  0.00    +0.089 C 
ATOM      4  C   UNL     1      34.498 -15.189 -22.045  0.00  0.00    +0.018 C 
ATOM      5  C   UNL     1      34.541 -15.608 -20.692  0.00  0.00    +0.019 C 
ENDROOT
BRANCH   1   6
ATOM      6  S   UNL     1      35.345 -18.901 -22.481  0.00  0.00    +0.080 S 
ATOM      7  O   UNL     1      36.792 -18.871 -22.597  0.00  0.00    -0.149 OA
ATOM      8  O   UNL     1      34.479 -19.173 -23.613  0.00  0.00    -0.149 OA
BRANCH   6   9
ATOM      9  C   UNL     1      34.863 -19.939 -21.162  0.00  0.00    +0.126 C 
ATOM     10  C   UNL     1      34.091 -21.598 -19.056  0.00  0.00    +0.003 C 
ATOM     11  C   UNL     1      35.830 -20.580 -20.389  0.00  0.00    +0.020 C 
ATOM     12  C   UNL     1      33.509 -20.128 -20.882  0.00  0.00    +0.020 C 
ATOM     13  C   UNL     1      35.445 -21.409 -19.336  0.00  0.00    +0.001 C 
ATOM     14  C   UNL     1      33.123 -20.957 -19.830  0.00  0.00    +0.001 C 
BRANCH  10  17
ATOM     15  N   UNL     1      33.790 -23.681 -16.176  0.00  0.00    -0.208 N 
ATOM     16  N   UNL     1      32.496 -23.750 -16.533  0.00  0.00    -0.176 NA
ATOM     17  C   UNL     1      33.694 -22.452 -17.972  0.00  0.00    +0.037 C 
ATOM     18  C   UNL     1      34.552 -22.913 -17.007  0.00  0.00    +0.086 C 
ATOM     19  C   UNL     1      32.446 -22.995 -17.633  0.00  0.00    +0.119 C 
ATOM     20  C   UNL     1      34.248 -24.386 -15.002  0.00  0.00    +0.140 C 
ENDBRANCH  10  17
ENDBRANCH   6   9
ENDBRANCH   1   6
BRANCH   4  21
ATOM     21  C   UNL     1      34.226 -13.895 -22.536  0.00  0.00    +0.006 C 
ATOM     22  C   UNL     1      33.019 -13.273 -22.659  0.00  0.00    +0.058 C 
BRANCH  22  25
ATOM     23  O   UNL     1      31.974 -11.150 -22.897  0.00  0.00    -0.270 OA
ATOM     24  N   UNL     1      33.967 -11.596 -24.054  0.00  0.00    -0.279 N 
ATOM     25  C   UNL     1      32.907 -11.883 -23.204  0.00  0.00    +0.250 C 
ATOM     26  H   UNL     1      34.629 -12.313 -24.184  0.00  0.00    +0.155 HD
BRANCH  24  27
ATOM     27  C   UNL     1      34.203 -10.388 -24.755  0.00  0.00    +0.064 C 
ATOM     28  C   UNL     1      33.581 -10.150 -25.970  0.00  0.00    +0.055 C 
ATOM     29  C   UNL     1      35.065  -9.460 -24.194  0.00  0.00    +0.016 C 
ATOM     30  C   UNL     1      33.829  -8.954 -26.642  0.00  0.00    +0.015 C 
ATOM     31  C   UNL     1      35.313  -8.263 -24.866  0.00  0.00    +0.001 C 
ATOM     32  C   UNL     1      34.696  -8.010 -26.090  0.00  0.00    +0.001 C 
BRANCH  28  33
ATOM     33  N   UNL     1      32.699 -11.090 -26.548  0.00  0.00    -0.356 N 
ATOM     34  H   UNL     1      32.652 -12.006 -26.188  0.00  0.00    +0.142 HD
ATOM     35  H   UNL     1      32.132 -10.831 -27.309  0.00  0.00    +0.142 HD
ENDBRANCH  28  33
ENDBRANCH  24  27
ENDBRANCH  22  25
ENDBRANCH   4  21
TORSDOF 7
ENDMDL
MODEL 5
REMARK VINA RESULT:     -11.6      2.332     11.957
REMARK  Name = 15985904
REMARK  7 active torsions:
REMARK  status: ('A' for Active; 'I' for Inactive)
REMARK    1  A    between atoms: N_1  and  S_6
REMARK    2  A    between atoms: C_4  and  C_21
REMARK    3  A    between atoms: S_6  and  C_9
REMARK    4  A    between atoms: C_10  and  C_17
REMARK    5  A    between atoms: C_22  and  C_25
REMARK    6  A    between atoms: N_24  and  C_27
REMARK    7  A    between atoms: C_28  and  N_33
REMARK                            x       y       z     vdW  Elec       q    Type
REMARK                         _______ _______ _______ _____ _____    ______ ____
ROOT
ATOM      1  N   UNL     1      35.126 -17.395 -22.046  0.00  0.00    -0.167 N 
ATOM      2  C   UNL     1      34.899 -16.484 -22.993  0.00  0.00    +0.089 C 
ATOM      3  C   UNL     1      34.903 -16.962 -20.805  0.00  0.00    +0.089 C 
ATOM      4  C   UNL     1      34.490 -15.352 -22.324  0.00  0.00    +0.018 C 
ATOM      5  C   UNL     1      34.492 -15.654 -20.939  0.00  0.00    +0.019 C 
ENDROOT
BRANCH   1   6
ATOM      6  S   UNL     1      35.665 -18.999 -22.398  0.00  0.00    +0.080 S 
ATOM      7  O   UNL     1      37.110 -18.881 -22.313  0.00  0.00    -0.149 OA
ATOM      8  O   UNL     1      34.987 -19.387 -23.620  0.00  0.00    -0.149 OA
BRANCH   6   9
ATOM      9  C   UNL     1      35.059 -19.994 -21.097  0.00  0.00    +0.126 C 
ATOM     10  C   UNL     1      34.091 -21.584 -19.019  0.00  0.00    +0.003 C 
ATOM     11  C   UNL     1      35.950 -20.640 -20.241  0.00  0.00    +0.020 C 
ATOM     12  C   UNL     1      33.684 -20.142 -20.914  0.00  0.00    +0.020 C 
ATOM     13  C   UNL     1      35.466 -21.436 -19.202  0.00  0.00    +0.001 C 
ATOM     14  C   UNL     1      33.200 -20.937 -19.876  0.00  0.00    +0.001 C 
BRANCH  10  17
ATOM     15  N   UNL     1      33.532 -23.630 -16.152  0.00  0.00    -0.208 N 
ATOM     16  N   UNL     1      32.250 -23.602 -16.554  0.00  0.00    -0.176 NA
ATOM     17  C   UNL     1      33.593 -22.403 -17.950  0.00  0.00    +0.037 C 
ATOM     18  C   UNL     1      34.378 -22.925 -16.955  0.00  0.00    +0.086 C 
ATOM     19  C   UNL     1      32.295 -22.849 -17.655  0.00  0.00    +0.119 C 
ATOM     20  C   UNL     1      33.893 -24.365 -14.963  0.00  0.00    +0.140 C 
ENDBRANCH  10  17
ENDBRANCH   6   9
ENDBRANCH   1   6
BRANCH   4  21
ATOM     21  C   UNL     1      34.139 -14.131 -22.937  0.00  0.00    +0.006 C 
ATOM     22  C   UNL     1      33.651 -13.924 -24.193  0.00  0.00    +0.058 C 
BRANCH  22  25
ATOM     23  O   UNL     1      32.505 -12.371 -25.582  0.00  0.00    -0.270 OA
ATOM     24  N   UNL     1      34.066 -11.589 -24.013  0.00  0.00    -0.279 N 
ATOM     25  C   UNL     1      33.327 -12.549 -24.690  0.00  0.00    +0.250 C 
ATOM     26  H   UNL     1      34.684 -11.921 -23.321  0.00  0.00    +0.155 HD
BRANCH  24  27
ATOM     27  C   UNL     1      34.033 -10.186 -24.205  0.00  0.00    +0.064 C 
ATOM     28  C   UNL     1      33.095  -9.410 -23.542  0.00  0.00    +0.055 C 
ATOM     29  C   UNL     1      34.958  -9.619 -25.066  0.00  0.00    +0.016 C 
ATOM     30  C   UNL     1      33.082  -8.031 -23.747  0.00  0.00    +0.015 C 
ATOM     31  C   UNL     1      34.945  -8.239 -25.272  0.00  0.00    +0.001 C 
ATOM     32  C   UNL     1      34.007  -7.445 -24.612  0.00  0.00    +0.001 C 
BRANCH  28  33
ATOM     33  N   UNL     1      32.151  -9.981 -22.661  0.00  0.00    -0.356 N 
ATOM     34  H   UNL     1      32.301 -10.883 -22.296  0.00  0.00    +0.142 HD
ATOM     35  H   UNL     1      31.343  -9.477 -22.410  0.00  0.00    +0.142 HD
ENDBRANCH  28  33
ENDBRANCH  24  27
ENDBRANCH  22  25
ENDBRANCH   4  21
TORSDOF 7
ENDMDL
MODEL 6
REMARK VINA RESULT:     -11.5      2.750     11.654
REMARK  Name = 15985904
REMARK  7 active torsions:
REMARK  status: ('A' for Active; 'I' for Inactive)
REMARK    1  A    between atoms: N_1  and  S_6
REMARK    2  A    between atoms: C_4  and  C_21
REMARK    3  A    between atoms: S_6  and  C_9
REMARK    4  A    between atoms: C_10  and  C_17
REMARK    5  A    between atoms: C_22  and  C_25
REMARK    6  A    between atoms: N_24  and  C_27
REMARK    7  A    between atoms: C_28  and  N_33
REMARK                            x       y       z     vdW  Elec       q    Type
REMARK                         _______ _______ _______ _____ _____    ______ ____
ROOT
ATOM      1  N   UNL     1      34.579 -16.885 -22.275  0.00  0.00    -0.167 N 
ATOM      2  C   UNL     1      34.201 -15.843 -23.016  0.00  0.00    +0.089 C 
ATOM      3  C   UNL     1      34.811 -16.591 -20.995  0.00  0.00    +0.089 C 
ATOM      4  C   UNL     1      34.180 -14.768 -22.155  0.00  0.00    +0.018 C 
ATOM      5  C   UNL     1      34.566 -15.241 -20.876  0.00  0.00    +0.019 C 
ENDROOT
BRANCH   1   6
ATOM      6  S   UNL     1      34.754 -18.480 -22.918  0.00  0.00    +0.080 S 
ATOM      7  O   UNL     1      36.161 -18.533 -23.272  0.00  0.00    -0.149 OA
ATOM      8  O   UNL     1      33.698 -18.629 -23.902  0.00  0.00    -0.149 OA
BRANCH   6   9
ATOM      9  C   UNL     1      34.419 -19.561 -21.589  0.00  0.00    +0.126 C 
ATOM     10  C   UNL     1      33.885 -21.289 -19.464  0.00  0.00    +0.003 C 
ATOM     11  C   UNL     1      33.102 -19.804 -21.202  0.00  0.00    +0.020 C 
ATOM     12  C   UNL     1      35.470 -20.183 -20.913  0.00  0.00    +0.020 C 
ATOM     13  C   UNL     1      32.834 -20.667 -20.140  0.00  0.00    +0.001 C 
ATOM     14  C   UNL     1      35.203 -21.046 -19.851  0.00  0.00    +0.001 C 
BRANCH  10  17
ATOM     15  N   UNL     1      33.898 -23.441 -16.619  0.00  0.00    -0.208 N 
ATOM     16  N   UNL     1      32.580 -23.542 -16.864  0.00  0.00    -0.176 NA
ATOM     17  C   UNL     1      33.610 -22.178 -18.371  0.00  0.00    +0.037 C 
ATOM     18  C   UNL     1      34.561 -22.632 -17.495  0.00  0.00    +0.086 C 
ATOM     19  C   UNL     1      32.412 -22.766 -17.938  0.00  0.00    +0.119 C 
ATOM     20  C   UNL     1      34.477 -24.156 -15.507  0.00  0.00    +0.140 C 
ENDBRANCH  10  17
ENDBRANCH   6   9
ENDBRANCH   1   6
BRANCH   4  21
ATOM     21  C   UNL     1      33.831 -13.449 -22.515  0.00  0.00    +0.006 C 
ATOM     22  C   UNL     1      32.629 -12.823 -22.372  0.00  0.00    +0.058 C 
BRANCH  22  25
ATOM     23  O   UNL     1      32.745 -11.035 -23.935  0.00  0.00    -0.270 OA
ATOM     24  N   UNL     1      31.865 -10.645 -21.794  0.00  0.00    -0.279 N 
ATOM     25  C   UNL     1      32.428 -11.405 -22.810  0.00  0.00    +0.250 C 
ATOM     26  H   UNL     1      31.676 -11.116 -20.950  0.00  0.00    +0.155 HD
BRANCH  24  27
ATOM     27  C   UNL     1      31.530  -9.269 -21.835  0.00  0.00    +0.064 C 
ATOM     28  C   UNL     1      31.891  -8.430 -20.793  0.00  0.00    +0.055 C 
ATOM     29  C   UNL     1      30.839  -8.793 -22.937  0.00  0.00    +0.016 C 
ATOM     30  C   UNL     1      31.551  -7.079 -20.855  0.00  0.00    +0.015 C 
ATOM     31  C   UNL     1      30.499  -7.442 -22.999  0.00  0.00    +0.001 C 
ATOM     32  C   UNL     1      30.854  -6.585 -21.958  0.00  0.00    +0.001 C 
BRANCH  28  33
ATOM     33  N   UNL     1      32.598  -8.907 -19.667  0.00  0.00    -0.356 N 
ATOM     34  H   UNL     1      32.854  -9.857 -19.613  0.00  0.00    +0.142 HD
ATOM     35  H   UNL     1      32.835  -8.292 -18.937  0.00  0.00    +0.142 HD
ENDBRANCH  28  33
ENDBRANCH  24  27
ENDBRANCH  22  25
ENDBRANCH   4  21
TORSDOF 7
ENDMDL
MODEL 7
REMARK VINA RESULT:     -11.5      2.861      3.866
REMARK  Name = 15985904
REMARK  7 active torsions:
REMARK  status: ('A' for Active; 'I' for Inactive)
REMARK    1  A    between atoms: N_1  and  S_6
REMARK    2  A    between atoms: C_4  and  C_21
REMARK    3  A    between atoms: S_6  and  C_9
REMARK    4  A    between atoms: C_10  and  C_17
REMARK    5  A    between atoms: C_22  and  C_25
REMARK    6  A    between atoms: N_24  and  C_27
REMARK    7  A    between atoms: C_28  and  N_33
REMARK                            x       y       z     vdW  Elec       q    Type
REMARK                         _______ _______ _______ _____ _____    ______ ____
ROOT
ATOM      1  N   UNL     1      34.075 -18.278 -23.933  0.00  0.00    -0.167 N 
ATOM      2  C   UNL     1      33.476 -19.032 -23.011  0.00  0.00    +0.089 C 
ATOM      3  C   UNL     1      35.323 -17.924 -23.626  0.00  0.00    +0.089 C 
ATOM      4  C   UNL     1      34.406 -19.192 -22.007  0.00  0.00    +0.018 C 
ATOM      5  C   UNL     1      35.574 -18.491 -22.396  0.00  0.00    +0.019 C 
ENDROOT
BRANCH   1   6
ATOM      6  S   UNL     1      33.300 -17.800 -25.402  0.00  0.00    +0.080 S 
ATOM      7  O   UNL     1      31.969 -18.363 -25.264  0.00  0.00    -0.149 OA
ATOM      8  O   UNL     1      34.201 -18.188 -26.471  0.00  0.00    -0.149 OA
BRANCH   6   9
ATOM      9  C   UNL     1      33.231 -16.056 -25.352  0.00  0.00    +0.126 C 
ATOM     10  C   UNL     1      33.123 -13.270 -25.271  0.00  0.00    +0.003 C 
ATOM     11  C   UNL     1      32.989 -15.334 -26.520  0.00  0.00    +0.020 C 
ATOM     12  C   UNL     1      33.419 -15.385 -24.143  0.00  0.00    +0.020 C 
ATOM     13  C   UNL     1      32.935 -13.941 -26.479  0.00  0.00    +0.001 C 
ATOM     14  C   UNL     1      33.365 -13.993 -24.103  0.00  0.00    +0.001 C 
BRANCH  10  17
ATOM     15  N   UNL     1      33.108  -9.793 -24.473  0.00  0.00    -0.208 N 
ATOM     16  N   UNL     1      32.878  -9.635 -25.788  0.00  0.00    -0.176 NA
ATOM     17  C   UNL     1      33.068 -11.836 -25.229  0.00  0.00    +0.037 C 
ATOM     18  C   UNL     1      33.231 -11.095 -24.087  0.00  0.00    +0.086 C 
ATOM     19  C   UNL     1      32.854 -10.890 -26.244  0.00  0.00    +0.119 C 
ATOM     20  C   UNL     1      33.205  -8.633 -23.619  0.00  0.00    +0.140 C 
ENDBRANCH  10  17
ENDBRANCH   6   9
ENDBRANCH   1   6
BRANCH   4  21
ATOM     21  C   UNL     1      34.198 -19.927 -20.821  0.00  0.00    +0.006 C 
ATOM     22  C   UNL     1      33.224 -20.842 -20.552  0.00  0.00    +0.058 C 
BRANCH  22  25
ATOM     23  O   UNL     1      32.072 -21.843 -18.729  0.00  0.00    -0.270 OA
ATOM     24  N   UNL     1      34.417 -21.758 -18.709  0.00  0.00    -0.279 N 
ATOM     25  C   UNL     1      33.149 -21.538 -19.228  0.00  0.00    +0.250 C 
ATOM     26  H   UNL     1      35.174 -21.441 -19.256  0.00  0.00    +0.155 HD
BRANCH  24  27
ATOM     27  C   UNL     1      34.747 -22.385 -17.483  0.00  0.00    +0.064 C 
ATOM     28  C   UNL     1      35.922 -22.061 -16.824  0.00  0.00    +0.055 C 
ATOM     29  C   UNL     1      33.867 -23.324 -16.968  0.00  0.00    +0.016 C 
ATOM     30  C   UNL     1      36.225 -22.693 -15.618  0.00  0.00    +0.015 C 
ATOM     31  C   UNL     1      34.170 -23.955 -15.762  0.00  0.00    +0.001 C 
ATOM     32  C   UNL     1      35.350 -23.640 -15.087  0.00  0.00    +0.001 C 
BRANCH  28  33
ATOM     33  N   UNL     1      36.823 -21.104 -17.342  0.00  0.00    -0.356 N 
ATOM     34  H   UNL     1      36.692 -20.148 -17.144  0.00  0.00    +0.142 HD
ATOM     35  H   UNL     1      37.581 -21.392 -17.899  0.00  0.00    +0.142 HD
ENDBRANCH  28  33
ENDBRANCH  24  27
ENDBRANCH  22  25
ENDBRANCH   4  21
TORSDOF 7
ENDMDL
MODEL 8
REMARK VINA RESULT:     -11.4      3.930      6.366
REMARK  Name = 15985904
REMARK  7 active torsions:
REMARK  status: ('A' for Active; 'I' for Inactive)
REMARK    1  A    between atoms: N_1  and  S_6
REMARK    2  A    between atoms: C_4  and  C_21
REMARK    3  A    between atoms: S_6  and  C_9
REMARK    4  A    between atoms: C_10  and  C_17
REMARK    5  A    between atoms: C_22  and  C_25
REMARK    6  A    between atoms: N_24  and  C_27
REMARK    7  A    between atoms: C_28  and  N_33
REMARK                            x       y       z     vdW  Elec       q    Type
REMARK                         _______ _______ _______ _____ _____    ______ ____
ROOT
ATOM      1  N   UNL     1      32.792 -15.634 -26.633  0.00  0.00    -0.167 N 
ATOM      2  C   UNL     1      33.682 -15.995 -25.707  0.00  0.00    +0.089 C 
ATOM      3  C   UNL     1      31.805 -16.511 -26.814  0.00  0.00    +0.089 C 
ATOM      4  C   UNL     1      33.248 -17.213 -25.234  0.00  0.00    +0.018 C 
ATOM      5  C   UNL     1      32.060 -17.540 -25.935  0.00  0.00    +0.019 C 
ENDROOT
BRANCH   1   6
ATOM      6  S   UNL     1      32.910 -14.157 -27.522  0.00  0.00    +0.080 S 
ATOM      7  O   UNL     1      31.672 -14.136 -28.281  0.00  0.00    -0.149 OA
ATOM      8  O   UNL     1      34.213 -14.180 -28.159  0.00  0.00    -0.149 OA
BRANCH   6   9
ATOM      9  C   UNL     1      32.910 -12.886 -26.324  0.00  0.00    +0.126 C 
ATOM     10  C   UNL     1      32.908 -10.857 -24.411  0.00  0.00    +0.003 C 
ATOM     11  C   UNL     1      32.983 -13.206 -24.969  0.00  0.00    +0.020 C 
ATOM     12  C   UNL     1      32.836 -11.552 -26.723  0.00  0.00    +0.020 C 
ATOM     13  C   UNL     1      32.982 -12.192 -24.012  0.00  0.00    +0.001 C 
ATOM     14  C   UNL     1      32.835 -10.537 -25.766  0.00  0.00    +0.001 C 
BRANCH  10  17
ATOM     15  N   UNL     1      32.380  -8.638 -21.667  0.00  0.00    -0.208 N 
ATOM     16  N   UNL     1      33.376  -7.931 -22.228  0.00  0.00    -0.176 NA
ATOM     17  C   UNL     1      32.907  -9.812 -23.425  0.00  0.00    +0.037 C 
ATOM     18  C   UNL     1      32.061  -9.777 -22.347  0.00  0.00    +0.086 C 
ATOM     19  C   UNL     1      33.693  -8.656 -23.303  0.00  0.00    +0.119 C 
ATOM     20  C   UNL     1      31.760  -8.164 -20.453  0.00  0.00    +0.140 C 
ENDBRANCH  10  17
ENDBRANCH   6   9
ENDBRANCH   1   6
BRANCH   4  21
ATOM     21  C   UNL     1      33.892 -17.970 -24.234  0.00  0.00    +0.006 C 
ATOM     22  C   UNL     1      34.834 -17.560 -23.337  0.00  0.00    +0.058 C 
BRANCH  22  25
ATOM     23  O   UNL     1      36.631 -18.587 -22.167  0.00  0.00    -0.270 OA
ATOM     24  N   UNL     1      34.422 -19.208 -21.672  0.00  0.00    -0.279 N 
ATOM     25  C   UNL     1      35.419 -18.503 -22.331  0.00  0.00    +0.250 C 
ATOM     26  H   UNL     1      33.495 -19.007 -21.939  0.00  0.00    +0.155 HD
BRANCH  24  27
ATOM     27  C   UNL     1      34.586 -20.185 -20.659  0.00  0.00    +0.064 C 
ATOM     28  C   UNL     1      33.484 -20.834 -20.126  0.00  0.00    +0.055 C 
ATOM     29  C   UNL     1      35.871 -20.469 -20.223  0.00  0.00    +0.016 C 
ATOM     30  C   UNL     1      33.672 -21.792 -19.130  0.00  0.00    +0.015 C 
ATOM     31  C   UNL     1      36.058 -21.427 -19.227  0.00  0.00    +0.001 C 
ATOM     32  C   UNL     1      34.958 -22.088 -18.680  0.00  0.00    +0.001 C 
BRANCH  28  33
ATOM     33  N   UNL     1      32.173 -20.551 -20.567  0.00  0.00    -0.356 N 
ATOM     34  H   UNL     1      31.510 -20.186 -19.936  0.00  0.00    +0.142 HD
ATOM     35  H   UNL     1      31.921 -20.718 -21.503  0.00  0.00    +0.142 HD
ENDBRANCH  28  33
ENDBRANCH  24  27
ENDBRANCH  22  25
ENDBRANCH   4  21
TORSDOF 7
ENDMDL
MODEL 9
REMARK VINA RESULT:     -10.8      5.309     12.006
REMARK  Name = 15985904
REMARK  7 active torsions:
REMARK  status: ('A' for Active; 'I' for Inactive)
REMARK    1  A    between atoms: N_1  and  S_6
REMARK    2  A    between atoms: C_4  and  C_21
REMARK    3  A    between atoms: S_6  and  C_9
REMARK    4  A    between atoms: C_10  and  C_17
REMARK    5  A    between atoms: C_22  and  C_25
REMARK    6  A    between atoms: N_24  and  C_27
REMARK    7  A    between atoms: C_28  and  N_33
REMARK                            x       y       z     vdW  Elec       q    Type
REMARK                         _______ _______ _______ _____ _____    ______ ____
ROOT
ATOM      1  N   UNL     1      33.081 -13.614 -26.948  0.00  0.00    -0.167 N 
ATOM      2  C   UNL     1      32.719 -12.790 -25.965  0.00  0.00    +0.089 C 
ATOM      3  C   UNL     1      33.964 -13.094 -27.801  0.00  0.00    +0.089 C 
ATOM      4  C   UNL     1      33.422 -11.625 -26.184  0.00  0.00    +0.018 C 
ATOM      5  C   UNL     1      34.210 -11.818 -27.346  0.00  0.00    +0.019 C 
ENDROOT
BRANCH   1   6
ATOM      6  S   UNL     1      32.459 -15.219 -27.104  0.00  0.00    +0.080 S 
ATOM      7  O   UNL     1      33.055 -15.678 -28.346  0.00  0.00    -0.149 OA
ATOM      8  O   UNL     1      31.023 -15.107 -26.926  0.00  0.00    -0.149 OA
BRANCH   6   9
ATOM      9  C   UNL     1      33.110 -16.109 -25.751  0.00  0.00    +0.126 C 
ATOM     10  C   UNL     1      34.151 -17.531 -23.589  0.00  0.00    +0.003 C 
ATOM     11  C   UNL     1      33.726 -15.429 -24.701  0.00  0.00    +0.020 C 
ATOM     12  C   UNL     1      33.014 -17.500 -25.719  0.00  0.00    +0.020 C 
ATOM     13  C   UNL     1      34.247 -16.140 -23.620  0.00  0.00    +0.001 C 
ATOM     14  C   UNL     1      33.535 -18.211 -24.639  0.00  0.00    +0.001 C 
BRANCH  10  17
ATOM     15  N   UNL     1      34.921 -19.772 -20.921  0.00  0.00    -0.208 N 
ATOM     16  N   UNL     1      35.986 -18.972 -20.742  0.00  0.00    -0.176 NA
ATOM     17  C   UNL     1      34.688 -18.263 -22.476  0.00  0.00    +0.037 C 
ATOM     18  C   UNL     1      34.110 -19.390 -21.950  0.00  0.00    +0.086 C 
ATOM     19  C   UNL     1      35.836 -18.051 -21.698  0.00  0.00    +0.119 C 
ATOM     20  C   UNL     1      34.729 -20.913 -20.058  0.00  0.00    +0.140 C 
ENDBRANCH  10  17
ENDBRANCH   6   9
ENDBRANCH   1   6
BRANCH   4  21
ATOM     21  C   UNL     1      33.347 -10.470 -25.377  0.00  0.00    +0.006 C 
ATOM     22  C   UNL     1      33.383 -10.385 -24.017  0.00  0.00    +0.058 C 
BRANCH  22  25
ATOM     23  O   UNL     1      34.190  -8.236 -23.397  0.00  0.00    -0.270 OA
ATOM     24  N   UNL     1      32.102  -8.961 -22.606  0.00  0.00    -0.279 N 
ATOM     25  C   UNL     1      33.292  -9.066 -23.314  0.00  0.00    +0.250 C 
ATOM     26  H   UNL     1      31.494  -9.735 -22.655  0.00  0.00    +0.155 HD
BRANCH  24  27
ATOM     27  C   UNL     1      31.662  -7.866 -21.822  0.00  0.00    +0.064 C 
ATOM     28  C   UNL     1      31.927  -7.828 -20.462  0.00  0.00    +0.055 C 
ATOM     29  C   UNL     1      30.968  -6.845 -22.450  0.00  0.00    +0.016 C 
ATOM     30  C   UNL     1      31.484  -6.740 -19.711  0.00  0.00    +0.015 C 
ATOM     31  C   UNL     1      30.525  -5.757 -21.699  0.00  0.00    +0.001 C 
ATOM     32  C   UNL     1      30.782  -5.704 -20.329  0.00  0.00    +0.001 C 
BRANCH  28  33
ATOM     33  N   UNL     1      32.636  -8.864 -19.816  0.00  0.00    -0.356 N 
ATOM     34  H   UNL     1      33.285  -9.405 -20.321  0.00  0.00    +0.142 HD
ATOM     35  H   UNL     1      32.482  -9.045 -18.861  0.00  0.00    +0.142 HD
ENDBRANCH  28  33
ENDBRANCH  24  27
ENDBRANCH  22  25
ENDBRANCH   4  21
TORSDOF 7
ENDMDL
