MODEL 1
REMARK VINA RESULT:     -12.0      0.000      0.000
REMARK  Name = 4413
REMARK  6 active torsions:
REMARK  status: ('A' for Active; 'I' for Inactive)
REMARK    1  A    between atoms: O_1  and  C_9
REMARK    2  A    between atoms: O_1  and  C_19
REMARK    3  A    between atoms: C_6  and  C_14
REMARK    4  A    between atoms: C_19  and  C_20
REMARK    5  A    between atoms: C_23  and  N_26
REMARK    6  A    between atoms: N_26  and  C_29
REMARK                            x       y       z     vdW  Elec       q    Type
REMARK                         _______ _______ _______ _____ _____    ______ ____
ROOT
ATOM      1  O   UNL     1      32.371 -22.729 -18.314  0.00  0.00    -0.421 OA
ENDROOT
BRANCH   1   9
ATOM      2  C   UNL     1      33.483 -23.726 -14.421  0.00  0.00    +0.000 C 
ATOM      3  C   UNL     1      34.461 -23.285 -15.345  0.00  0.00    +0.003 C 
ATOM      4  C   UNL     1      33.874 -24.057 -13.113  0.00  0.00    +0.003 C 
ATOM      5  C   UNL     1      34.069 -22.953 -16.652  0.00  0.00    +0.038 C 
ATOM      6  C   UNL     1      35.209 -23.955 -12.722  0.00  0.00    +0.031 C 
ATOM      7  C   UNL     1      35.799 -23.187 -14.934  0.00  0.00    +0.000 C 
ATOM      8  C   UNL     1      32.143 -23.823 -14.832  0.00  0.00    +0.003 C 
ATOM      9  C   UNL     1      32.733 -23.056 -17.044  0.00  0.00    +0.149 C 
ATOM     10  C   UNL     1      36.170 -23.521 -13.631  0.00  0.00    +0.003 C 
ATOM     11  C   UNL     1      31.773 -23.490 -16.135  0.00  0.00    +0.038 C 
BRANCH   6  14
ATOM     12  N   UNL     1      36.660 -23.662 -10.728  0.00  0.00    -0.343 N 
ATOM     13  N   UNL     1      34.939 -25.244 -10.713  0.00  0.00    -0.285 NA
ATOM     14  C   UNL     1      35.598 -24.302 -11.365  0.00  0.00    +0.117 C 
ATOM     15  H   UNL     1      36.905 -23.913  -9.809  0.00  0.00    +0.144 HD
ATOM     16  H   UNL     1      37.164 -22.960 -11.198  0.00  0.00    +0.144 HD
ATOM     17  H   UNL     1      35.201 -25.481  -9.793  0.00  0.00    +0.188 HD
ENDBRANCH   6  14
ENDBRANCH   1   9
BRANCH   1  19
ATOM     18  O   UNL     1      33.639 -24.114 -19.694  0.00  0.00    -0.244 OA
ATOM     19  C   UNL     1      33.343 -23.003 -19.279  0.00  0.00    +0.346 C 
BRANCH  19  20
ATOM     20  C   UNL     1      33.987 -21.756 -19.764  0.00  0.00    +0.076 C 
ATOM     21  C   UNL     1      35.359 -21.638 -19.681  0.00  0.00    +0.008 C 
ATOM     22  C   UNL     1      33.193 -20.755 -20.284  0.00  0.00    +0.008 C 
ATOM     23  C   UNL     1      35.184 -19.441 -20.670  0.00  0.00    +0.084 C 
ATOM     24  C   UNL     1      35.964 -20.467 -20.139  0.00  0.00    +0.019 C 
ATOM     25  C   UNL     1      33.798 -19.584 -20.742  0.00  0.00    +0.019 C 
BRANCH  23  26
ATOM     26  N   UNL     1      35.789 -18.267 -21.127  0.00  0.00    -0.214 NA
BRANCH  26  29
ATOM     27  N   UNL     1      34.919 -16.572 -22.480  0.00  0.00    -0.370 N 
ATOM     28  N   UNL     1      35.646 -18.465 -23.526  0.00  0.00    -0.370 N 
ATOM     29  C   UNL     1      35.479 -17.818 -22.321  0.00  0.00    +0.193 C 
ATOM     30  H   UNL     1      34.747 -16.005 -21.693  0.00  0.00    +0.159 HD
ATOM     31  H   UNL     1      34.690 -16.246 -23.381  0.00  0.00    +0.159 HD
ATOM     32  H   UNL     1      36.038 -19.367 -23.549  0.00  0.00    +0.159 HD
ATOM     33  H   UNL     1      35.374 -18.025 -24.364  0.00  0.00    +0.159 HD
ENDBRANCH  26  29
ENDBRANCH  23  26
ENDBRANCH  19  20
ENDBRANCH   1  19
TORSDOF 6
ENDMDL
MODEL 2
REMARK VINA RESULT:     -11.8      4.294      6.661
REMARK  Name = 4413
REMARK  6 active torsions:
REMARK  status: ('A' for Active; 'I' for Inactive)
REMARK    1  A    between atoms: O_1  and  C_9
REMARK    2  A    between atoms: O_1  and  C_19
REMARK    3  A    between atoms: C_6  and  C_14
REMARK    4  A    between atoms: C_19  and  C_20
REMARK    5  A    between atoms: C_23  and  N_26
REMARK    6  A    between atoms: N_26  and  C_29
REMARK                            x       y       z     vdW  Elec       q    Type
REMARK                         _______ _______ _______ _____ _____    ______ ____
ROOT
ATOM      1  O   UNL     1      35.360 -18.411 -22.770  0.00  0.00    -0.421 OA
ENDROOT
BRANCH   1   9
ATOM      2  C   UNL     1      33.694 -20.943 -19.906  0.00  0.00    +0.000 C 
ATOM      3  C   UNL     1      35.095 -20.741 -19.944  0.00  0.00    +0.003 C 
ATOM      4  C   UNL     1      33.149 -21.799 -18.935  0.00  0.00    +0.003 C 
ATOM      5  C   UNL     1      35.639 -19.885 -20.915  0.00  0.00    +0.038 C 
ATOM      6  C   UNL     1      33.973 -22.446 -18.014  0.00  0.00    +0.031 C 
ATOM      7  C   UNL     1      35.909 -21.400 -19.009  0.00  0.00    +0.000 C 
ATOM      8  C   UNL     1      32.880 -20.283 -20.842  0.00  0.00    +0.003 C 
ATOM      9  C   UNL     1      34.816 -19.238 -21.837  0.00  0.00    +0.149 C 
ATOM     10  C   UNL     1      35.350 -22.247 -18.050  0.00  0.00    +0.003 C 
ATOM     11  C   UNL     1      33.439 -19.436 -21.799  0.00  0.00    +0.038 C 
BRANCH   6  14
ATOM     12  N   UNL     1      32.012 -23.437 -16.856  0.00  0.00    -0.343 N 
ATOM     13  N   UNL     1      34.181 -24.047 -16.235  0.00  0.00    -0.285 NA
ATOM     14  C   UNL     1      33.393 -23.329 -17.015  0.00  0.00    +0.117 C 
ATOM     15  H   UNL     1      31.642 -24.042 -16.173  0.00  0.00    +0.144 HD
ATOM     16  H   UNL     1      31.408 -22.908 -17.426  0.00  0.00    +0.144 HD
ATOM     17  H   UNL     1      33.790 -24.646 -15.558  0.00  0.00    +0.188 HD
ENDBRANCH   6  14
ENDBRANCH   1   9
BRANCH   1  19
ATOM     18  O   UNL     1      34.933 -16.352 -21.767  0.00  0.00    -0.244 OA
ATOM     19  C   UNL     1      34.878 -17.101 -22.731  0.00  0.00    +0.346 C 
BRANCH  19  20
ATOM     20  C   UNL     1      34.282 -16.707 -24.033  0.00  0.00    +0.076 C 
ATOM     21  C   UNL     1      33.918 -15.391 -24.229  0.00  0.00    +0.008 C 
ATOM     22  C   UNL     1      34.113 -17.670 -25.006  0.00  0.00    +0.008 C 
ATOM     23  C   UNL     1      33.180 -15.975 -26.454  0.00  0.00    +0.084 C 
ATOM     24  C   UNL     1      33.361 -15.022 -25.453  0.00  0.00    +0.019 C 
ATOM     25  C   UNL     1      33.555 -17.300 -26.231  0.00  0.00    +0.019 C 
BRANCH  23  26
ATOM     26  N   UNL     1      32.620 -15.605 -27.680  0.00  0.00    -0.214 NA
BRANCH  26  29
ATOM     27  N   UNL     1      30.320 -16.012 -27.694  0.00  0.00    -0.370 N 
ATOM     28  N   UNL     1      30.989 -13.831 -27.740  0.00  0.00    -0.370 N 
ATOM     29  C   UNL     1      31.390 -15.148 -27.703  0.00  0.00    +0.193 C 
ATOM     30  H   UNL     1      30.471 -16.984 -27.668  0.00  0.00    +0.159 HD
ATOM     31  H   UNL     1      29.401 -15.657 -27.711  0.00  0.00    +0.159 HD
ATOM     32  H   UNL     1      31.662 -13.113 -27.750  0.00  0.00    +0.159 HD
ATOM     33  H   UNL     1      30.030 -13.608 -27.754  0.00  0.00    +0.159 HD
ENDBRANCH  26  29
ENDBRANCH  23  26
ENDBRANCH  19  20
ENDBRANCH   1  19
TORSDOF 6
ENDMDL
MODEL 3
REMARK VINA RESULT:     -11.7      3.214      4.838
REMARK  Name = 4413
REMARK  6 active torsions:
REMARK  status: ('A' for Active; 'I' for Inactive)
REMARK    1  A    between atoms: O_1  and  C_9
REMARK    2  A    between atoms: O_1  and  C_19
REMARK    3  A    between atoms: C_6  and  C_14
REMARK    4  A    between atoms: C_19  and  C_20
REMARK    5  A    between atoms: C_23  and  N_26
REMARK    6  A    between atoms: N_26  and  C_29
REMARK                            x       y       z     vdW  Elec       q    Type
REMARK                         _______ _______ _______ _____ _____    ______ ____
ROOT
ATOM      1  O   UNL     1      35.785 -19.857 -21.411  0.00  0.00    -0.421 OA
ENDROOT
BRANCH   1   9
ATOM      2  C   UNL     1      34.356 -22.133 -18.223  0.00  0.00    +0.000 C 
ATOM      3  C   UNL     1      35.710 -21.719 -18.246  0.00  0.00    +0.003 C 
ATOM      4  C   UNL     1      33.891 -22.899 -17.142  0.00  0.00    +0.003 C 
ATOM      5  C   UNL     1      36.174 -20.953 -19.328  0.00  0.00    +0.038 C 
ATOM      6  C   UNL     1      34.747 -23.251 -16.099  0.00  0.00    +0.031 C 
ATOM      7  C   UNL     1      36.557 -22.082 -17.188  0.00  0.00    +0.000 C 
ATOM      8  C   UNL     1      33.508 -21.770 -19.283  0.00  0.00    +0.003 C 
ATOM      9  C   UNL     1      35.318 -20.600 -20.372  0.00  0.00    +0.149 C 
ATOM     10  C   UNL     1      36.078 -22.844 -16.121  0.00  0.00    +0.003 C 
ATOM     11  C   UNL     1      33.988 -21.008 -20.348  0.00  0.00    +0.038 C 
BRANCH   6  14
ATOM     12  N   UNL     1      34.801 -25.289 -14.679  0.00  0.00    -0.343 N 
ATOM     13  N   UNL     1      33.254 -23.590 -14.247  0.00  0.00    -0.285 NA
ATOM     14  C   UNL     1      34.250 -24.045 -14.987  0.00  0.00    +0.117 C 
ATOM     15  H   UNL     1      34.449 -25.808 -13.921  0.00  0.00    +0.144 HD
ATOM     16  H   UNL     1      35.542 -25.646 -15.220  0.00  0.00    +0.144 HD
ATOM     17  H   UNL     1      32.916 -24.127 -13.493  0.00  0.00    +0.188 HD
ENDBRANCH   6  14
ENDBRANCH   1   9
BRANCH   1  19
ATOM     18  O   UNL     1      35.236 -17.770 -20.532  0.00  0.00    -0.244 OA
ATOM     19  C   UNL     1      35.274 -18.558 -21.465  0.00  0.00    +0.346 C 
BRANCH  19  20
ATOM     20  C   UNL     1      34.777 -18.231 -22.826  0.00  0.00    +0.076 C 
ATOM     21  C   UNL     1      34.478 -19.261 -23.693  0.00  0.00    +0.008 C 
ATOM     22  C   UNL     1      34.629 -16.905 -23.180  0.00  0.00    +0.008 C 
ATOM     23  C   UNL     1      33.850 -17.622 -25.352  0.00  0.00    +0.084 C 
ATOM     24  C   UNL     1      34.009 -18.953 -24.970  0.00  0.00    +0.019 C 
ATOM     25  C   UNL     1      34.160 -16.597 -24.457  0.00  0.00    +0.019 C 
BRANCH  23  26
ATOM     26  N   UNL     1      33.382 -17.312 -26.632  0.00  0.00    -0.214 NA
BRANCH  26  29
ATOM     27  N   UNL     1      31.165 -17.477 -25.912  0.00  0.00    -0.370 N 
ATOM     28  N   UNL     1      31.562 -16.217 -27.773  0.00  0.00    -0.370 N 
ATOM     29  C   UNL     1      32.116 -17.004 -26.787  0.00  0.00    +0.193 C 
ATOM     30  H   UNL     1      31.432 -18.052 -25.159  0.00  0.00    +0.159 HD
ATOM     31  H   UNL     1      30.218 -17.238 -26.038  0.00  0.00    +0.159 HD
ATOM     32  H   UNL     1      32.138 -15.817 -28.464  0.00  0.00    +0.159 HD
ATOM     33  H   UNL     1      30.590 -16.055 -27.787  0.00  0.00    +0.159 HD
ENDBRANCH  26  29
ENDBRANCH  23  26
ENDBRANCH  19  20
ENDBRANCH   1  19
TORSDOF 6
ENDMDL
MODEL 4
REMARK VINA RESULT:     -11.6      4.578     11.295
REMARK  Name = 4413
REMARK  6 active torsions:
REMARK  status: ('A' for Active; 'I' for Inactive)
REMARK    1  A    between atoms: O_1  and  C_9
REMARK    2  A    between atoms: O_1  and  C_19
REMARK    3  A    between atoms: C_6  and  C_14
REMARK    4  A    between atoms: C_19  and  C_20
REMARK    5  A    between atoms: C_23  and  N_26
REMARK    6  A    between atoms: N_26  and  C_29
REMARK                            x       y       z     vdW  Elec       q    Type
REMARK                         _______ _______ _______ _____ _____    ______ ____
ROOT
ATOM      1  O   UNL     1      35.301 -19.122 -22.664  0.00  0.00    -0.421 OA
ENDROOT
BRANCH   1   9
ATOM      2  C   UNL     1      33.513 -16.216 -25.060  0.00  0.00    +0.000 C 
ATOM      3  C   UNL     1      33.180 -17.581 -25.236  0.00  0.00    +0.003 C 
ATOM      4  C   UNL     1      32.902 -15.249 -25.875  0.00  0.00    +0.003 C 
ATOM      5  C   UNL     1      33.792 -18.546 -24.421  0.00  0.00    +0.038 C 
ATOM      6  C   UNL     1      31.976 -15.622 -26.849  0.00  0.00    +0.031 C 
ATOM      7  C   UNL     1      32.246 -17.938 -26.221  0.00  0.00    +0.000 C 
ATOM      8  C   UNL     1      34.448 -15.858 -24.074  0.00  0.00    +0.003 C 
ATOM      9  C   UNL     1      34.719 -18.174 -23.446  0.00  0.00    +0.149 C 
ATOM     10  C   UNL     1      31.648 -16.964 -27.023  0.00  0.00    +0.003 C 
ATOM     11  C   UNL     1      35.045 -16.832 -23.274  0.00  0.00    +0.038 C 
BRANCH   6  14
ATOM     12  N   UNL     1      30.035 -14.743 -28.126  0.00  0.00    -0.343 N 
ATOM     13  N   UNL     1      32.037 -13.539 -28.044  0.00  0.00    -0.285 NA
ATOM     14  C   UNL     1      31.351 -14.610 -27.686  0.00  0.00    +0.117 C 
ATOM     15  H   UNL     1      29.633 -14.044 -28.691  0.00  0.00    +0.144 HD
ATOM     16  H   UNL     1      29.509 -15.534 -27.871  0.00  0.00    +0.144 HD
ATOM     17  H   UNL     1      31.616 -12.852 -28.611  0.00  0.00    +0.188 HD
ENDBRANCH   6  14
ENDBRANCH   1   9
BRANCH   1  19
ATOM     18  O   UNL     1      35.503 -17.825 -20.740  0.00  0.00    -0.244 OA
ATOM     19  C   UNL     1      35.209 -18.874 -21.293  0.00  0.00    +0.346 C 
BRANCH  19  20
ATOM     20  C   UNL     1      34.690 -20.059 -20.564  0.00  0.00    +0.076 C 
ATOM     21  C   UNL     1      33.326 -20.252 -20.489  0.00  0.00    +0.008 C 
ATOM     22  C   UNL     1      35.589 -20.932 -19.986  0.00  0.00    +0.008 C 
ATOM     23  C   UNL     1      33.726 -22.264 -19.214  0.00  0.00    +0.084 C 
ATOM     24  C   UNL     1      32.840 -21.366 -19.807  0.00  0.00    +0.019 C 
ATOM     25  C   UNL     1      35.102 -22.047 -19.303  0.00  0.00    +0.019 C 
BRANCH  23  26
ATOM     26  N   UNL     1      33.239 -23.380 -18.528  0.00  0.00    -0.214 NA
BRANCH  26  29
ATOM     27  N   UNL     1      31.685 -23.095 -16.808  0.00  0.00    -0.370 N 
ATOM     28  N   UNL     1      33.874 -23.310 -16.204  0.00  0.00    -0.370 N 
ATOM     29  C   UNL     1      32.976 -23.272 -17.247  0.00  0.00    +0.193 C 
ATOM     30  H   UNL     1      30.945 -23.050 -17.456  0.00  0.00    +0.159 HD
ATOM     31  H   UNL     1      31.499 -23.014 -15.844  0.00  0.00    +0.159 HD
ATOM     32  H   UNL     1      34.834 -23.432 -16.386  0.00  0.00    +0.159 HD
ATOM     33  H   UNL     1      33.557 -23.217 -15.276  0.00  0.00    +0.159 HD
ENDBRANCH  26  29
ENDBRANCH  23  26
ENDBRANCH  19  20
ENDBRANCH   1  19
TORSDOF 6
ENDMDL
MODEL 5
REMARK VINA RESULT:     -11.6      1.186      8.978
REMARK  Name = 4413
REMARK  6 active torsions:
REMARK  status: ('A' for Active; 'I' for Inactive)
REMARK    1  A    between atoms: O_1  and  C_9
REMARK    2  A    between atoms: O_1  and  C_19
REMARK    3  A    between atoms: C_6  and  C_14
REMARK    4  A    between atoms: C_19  and  C_20
REMARK    5  A    between atoms: C_23  and  N_26
REMARK    6  A    between atoms: N_26  and  C_29
REMARK                            x       y       z     vdW  Elec       q    Type
REMARK                         _______ _______ _______ _____ _____    ______ ____
ROOT
ATOM      1  O   UNL     1      34.165 -23.170 -18.133  0.00  0.00    -0.421 OA
ENDROOT
BRANCH   1   9
ATOM      2  C   UNL     1      33.958 -19.948 -20.771  0.00  0.00    +0.000 C 
ATOM      3  C   UNL     1      35.216 -20.404 -20.308  0.00  0.00    +0.003 C 
ATOM      4  C   UNL     1      33.906 -18.861 -21.659  0.00  0.00    +0.003 C 
ATOM      5  C   UNL     1      35.267 -21.491 -19.420  0.00  0.00    +0.038 C 
ATOM      6  C   UNL     1      35.077 -18.234 -22.086  0.00  0.00    +0.031 C 
ATOM      7  C   UNL     1      36.384 -19.762 -20.748  0.00  0.00    +0.000 C 
ATOM      8  C   UNL     1      32.790 -20.591 -20.330  0.00  0.00    +0.003 C 
ATOM      9  C   UNL     1      34.096 -22.118 -18.993  0.00  0.00    +0.149 C 
ATOM     10  C   UNL     1      36.314 -18.683 -21.631  0.00  0.00    +0.003 C 
ATOM     11  C   UNL     1      32.861 -21.669 -19.448  0.00  0.00    +0.038 C 
BRANCH   6  14
ATOM     12  N   UNL     1      35.032 -17.300 -24.387  0.00  0.00    -0.343 N 
ATOM     13  N   UNL     1      34.919 -15.879 -22.534  0.00  0.00    -0.285 NA
ATOM     14  C   UNL     1      35.007 -17.110 -23.006  0.00  0.00    +0.117 C 
ATOM     15  H   UNL     1      34.982 -16.524 -24.990  0.00  0.00    +0.144 HD
ATOM     16  H   UNL     1      35.099 -18.209 -24.757  0.00  0.00    +0.144 HD
ATOM     17  H   UNL     1      34.871 -15.116 -23.156  0.00  0.00    +0.188 HD
ENDBRANCH   6  14
ENDBRANCH   1   9
BRANCH   1  19
ATOM     18  O   UNL     1      32.010 -22.956 -17.272  0.00  0.00    -0.244 OA
ATOM     19  C   UNL     1      33.207 -23.147 -17.117  0.00  0.00    +0.346 C 
BRANCH  19  20
ATOM     20  C   UNL     1      33.824 -23.398 -15.790  0.00  0.00    +0.076 C 
ATOM     21  C   UNL     1      33.035 -23.882 -14.768  0.00  0.00    +0.008 C 
ATOM     22  C   UNL     1      35.169 -23.140 -15.621  0.00  0.00    +0.008 C 
ATOM     23  C   UNL     1      34.973 -23.869 -13.325  0.00  0.00    +0.084 C 
ATOM     24  C   UNL     1      33.615 -24.119 -13.522  0.00  0.00    +0.019 C 
ATOM     25  C   UNL     1      35.750 -23.378 -14.375  0.00  0.00    +0.019 C 
BRANCH  23  26
ATOM     26  N   UNL     1      35.555 -24.105 -12.077  0.00  0.00    -0.214 NA
BRANCH  26  29
ATOM     27  N   UNL     1      37.849 -24.030 -11.640  0.00  0.00    -0.370 N 
ATOM     28  N   UNL     1      36.986 -26.029 -12.323  0.00  0.00    -0.370 N 
ATOM     29  C   UNL     1      36.717 -24.712 -12.024  0.00  0.00    +0.193 C 
ATOM     30  H   UNL     1      37.791 -23.077 -11.399  0.00  0.00    +0.159 HD
ATOM     31  H   UNL     1      38.716 -24.496 -11.605  0.00  0.00    +0.159 HD
ATOM     32  H   UNL     1      36.259 -26.626 -12.612  0.00  0.00    +0.159 HD
ATOM     33  H   UNL     1      37.905 -26.375 -12.246  0.00  0.00    +0.159 HD
ENDBRANCH  26  29
ENDBRANCH  23  26
ENDBRANCH  19  20
ENDBRANCH   1  19
TORSDOF 6
ENDMDL
MODEL 6
REMARK VINA RESULT:     -11.0      4.229      6.857
REMARK  Name = 4413
REMARK  6 active torsions:
REMARK  status: ('A' for Active; 'I' for Inactive)
REMARK    1  A    between atoms: O_1  and  C_9
REMARK    2  A    between atoms: O_1  and  C_19
REMARK    3  A    between atoms: C_6  and  C_14
REMARK    4  A    between atoms: C_19  and  C_20
REMARK    5  A    between atoms: C_23  and  N_26
REMARK    6  A    between atoms: N_26  and  C_29
REMARK                            x       y       z     vdW  Elec       q    Type
REMARK                         _______ _______ _______ _____ _____    ______ ____
ROOT
ATOM      1  O   UNL     1      35.550 -18.047 -23.007  0.00  0.00    -0.421 OA
ENDROOT
BRANCH   1   9
ATOM      2  C   UNL     1      33.780 -20.643 -20.265  0.00  0.00    +0.000 C 
ATOM      3  C   UNL     1      35.186 -20.478 -20.278  0.00  0.00    +0.003 C 
ATOM      4  C   UNL     1      33.200 -21.521 -19.336  0.00  0.00    +0.003 C 
ATOM      5  C   UNL     1      35.766 -19.599 -21.208  0.00  0.00    +0.038 C 
ATOM      6  C   UNL     1      33.994 -22.225 -18.430  0.00  0.00    +0.031 C 
ATOM      7  C   UNL     1      35.970 -21.194 -19.359  0.00  0.00    +0.000 C 
ATOM      8  C   UNL     1      32.996 -19.926 -21.185  0.00  0.00    +0.003 C 
ATOM      9  C   UNL     1      34.972 -18.895 -22.114  0.00  0.00    +0.149 C 
ATOM     10  C   UNL     1      35.376 -22.062 -18.442  0.00  0.00    +0.003 C 
ATOM     11  C   UNL     1      33.590 -19.058 -22.101  0.00  0.00    +0.038 C 
BRANCH   6  14
ATOM     12  N   UNL     1      31.994 -23.283 -17.407  0.00  0.00    -0.343 N 
ATOM     13  N   UNL     1      34.135 -23.826 -16.644  0.00  0.00    -0.285 NA
ATOM     14  C   UNL     1      33.378 -23.130 -17.474  0.00  0.00    +0.117 C 
ATOM     15  H   UNL     1      31.599 -23.902 -16.751  0.00  0.00    +0.144 HD
ATOM     16  H   UNL     1      31.412 -22.771 -18.014  0.00  0.00    +0.144 HD
ATOM     17  H   UNL     1      33.720 -24.440 -15.996  0.00  0.00    +0.188 HD
ENDBRANCH   6  14
ENDBRANCH   1   9
BRANCH   1  19
ATOM     18  O   UNL     1      34.397 -18.441 -24.993  0.00  0.00    -0.244 OA
ATOM     19  C   UNL     1      34.731 -17.697 -24.082  0.00  0.00    +0.346 C 
BRANCH  19  20
ATOM     20  C   UNL     1      34.290 -16.282 -23.986  0.00  0.00    +0.076 C 
ATOM     21  C   UNL     1      33.549 -15.742 -25.016  0.00  0.00    +0.008 C 
ATOM     22  C   UNL     1      34.635 -15.553 -22.866  0.00  0.00    +0.008 C 
ATOM     23  C   UNL     1      33.468 -13.655 -23.803  0.00  0.00    +0.084 C 
ATOM     24  C   UNL     1      33.134 -14.414 -24.923  0.00  0.00    +0.019 C 
ATOM     25  C   UNL     1      34.219 -14.224 -22.774  0.00  0.00    +0.019 C 
BRANCH  23  26
ATOM     26  N   UNL     1      33.053 -12.323 -23.710  0.00  0.00    -0.214 NA
BRANCH  26  29
ATOM     27  N   UNL     1      34.819 -10.950 -24.385  0.00  0.00    -0.370 N 
ATOM     28  N   UNL     1      32.926 -10.910 -25.659  0.00  0.00    -0.370 N 
ATOM     29  C   UNL     1      33.547 -11.446 -24.552  0.00  0.00    +0.193 C 
ATOM     30  H   UNL     1      35.371 -11.255 -23.629  0.00  0.00    +0.159 HD
ATOM     31  H   UNL     1      35.179 -10.292 -25.023  0.00  0.00    +0.159 HD
ATOM     32  H   UNL     1      32.010 -11.183 -25.890  0.00  0.00    +0.159 HD
ATOM     33  H   UNL     1      33.401 -10.254 -26.221  0.00  0.00    +0.159 HD
ENDBRANCH  26  29
ENDBRANCH  23  26
ENDBRANCH  19  20
ENDBRANCH   1  19
TORSDOF 6
ENDMDL
MODEL 7
REMARK VINA RESULT:     -11.0      1.735      9.462
REMARK  Name = 4413
REMARK  6 active torsions:
REMARK  status: ('A' for Active; 'I' for Inactive)
REMARK    1  A    between atoms: O_1  and  C_9
REMARK    2  A    between atoms: O_1  and  C_19
REMARK    3  A    between atoms: C_6  and  C_14
REMARK    4  A    between atoms: C_19  and  C_20
REMARK    5  A    between atoms: C_23  and  N_26
REMARK    6  A    between atoms: N_26  and  C_29
REMARK                            x       y       z     vdW  Elec       q    Type
REMARK                         _______ _______ _______ _____ _____    ______ ____
ROOT
ATOM      1  O   UNL     1      35.135 -22.495 -18.211  0.00  0.00    -0.421 OA
ENDROOT
BRANCH   1   9
ATOM      2  C   UNL     1      34.102 -19.768 -21.191  0.00  0.00    +0.000 C 
ATOM      3  C   UNL     1      35.461 -19.955 -20.844  0.00  0.00    +0.003 C 
ATOM      4  C   UNL     1      33.770 -18.846 -22.197  0.00  0.00    +0.003 C 
ATOM      5  C   UNL     1      35.792 -20.878 -19.838  0.00  0.00    +0.038 C 
ATOM      6  C   UNL     1      34.765 -18.120 -22.852  0.00  0.00    +0.031 C 
ATOM      7  C   UNL     1      36.449 -19.217 -21.514  0.00  0.00    +0.000 C 
ATOM      8  C   UNL     1      33.113 -20.507 -20.520  0.00  0.00    +0.003 C 
ATOM      9  C   UNL     1      34.797 -21.604 -19.182  0.00  0.00    +0.149 C 
ATOM     10  C   UNL     1      36.102 -18.304 -22.511  0.00  0.00    +0.003 C 
ATOM     11  C   UNL     1      33.461 -21.419 -19.524  0.00  0.00    +0.038 C 
BRANCH   6  14
ATOM     12  N   UNL     1      33.329 -17.400 -24.746  0.00  0.00    -0.343 N 
ATOM     13  N   UNL     1      35.109 -16.059 -24.040  0.00  0.00    -0.285 NA
ATOM     14  C   UNL     1      34.406 -17.168 -23.892  0.00  0.00    +0.117 C 
ATOM     15  H   UNL     1      33.104 -16.742 -25.443  0.00  0.00    +0.144 HD
ATOM     16  H   UNL     1      32.795 -18.221 -24.653  0.00  0.00    +0.144 HD
ATOM     17  H   UNL     1      34.867 -15.414 -24.743  0.00  0.00    +0.188 HD
ENDBRANCH   6  14
ENDBRANCH   1   9
BRANCH   1  19
ATOM     18  O   UNL     1      36.756 -21.026 -17.409  0.00  0.00    -0.244 OA
ATOM     19  C   UNL     1      36.031 -21.999 -17.262  0.00  0.00    +0.346 C 
BRANCH  19  20
ATOM     20  C   UNL     1      35.995 -22.804 -16.014  0.00  0.00    +0.076 C 
ATOM     21  C   UNL     1      34.789 -22.983 -15.369  0.00  0.00    +0.008 C 
ATOM     22  C   UNL     1      37.171 -23.351 -15.541  0.00  0.00    +0.008 C 
ATOM     23  C   UNL     1      35.929 -24.305 -13.700  0.00  0.00    +0.084 C 
ATOM     24  C   UNL     1      34.756 -23.741 -14.200  0.00  0.00    +0.019 C 
ATOM     25  C   UNL     1      37.137 -24.110 -14.370  0.00  0.00    +0.019 C 
BRANCH  23  26
ATOM     26  N   UNL     1      35.897 -25.064 -12.526  0.00  0.00    -0.214 NA
BRANCH  26  29
ATOM     27  N   UNL     1      37.152 -23.698 -11.106  0.00  0.00    -0.370 N 
ATOM     28  N   UNL     1      35.154 -24.464 -10.313  0.00  0.00    -0.370 N 
ATOM     29  C   UNL     1      36.034 -24.453 -11.373  0.00  0.00    +0.193 C 
ATOM     30  H   UNL     1      37.859 -23.609 -11.785  0.00  0.00    +0.159 HD
ATOM     31  H   UNL     1      37.244 -23.244 -10.237  0.00  0.00    +0.159 HD
ATOM     32  H   UNL     1      34.312 -24.969 -10.377  0.00  0.00    +0.159 HD
ATOM     33  H   UNL     1      35.366 -23.963  -9.491  0.00  0.00    +0.159 HD
ENDBRANCH  26  29
ENDBRANCH  23  26
ENDBRANCH  19  20
ENDBRANCH   1  19
TORSDOF 6
ENDMDL
MODEL 8
REMARK VINA RESULT:     -11.0      4.444     11.209
REMARK  Name = 4413
REMARK  6 active torsions:
REMARK  status: ('A' for Active; 'I' for Inactive)
REMARK    1  A    between atoms: O_1  and  C_9
REMARK    2  A    between atoms: O_1  and  C_19
REMARK    3  A    between atoms: C_6  and  C_14
REMARK    4  A    between atoms: C_19  and  C_20
REMARK    5  A    between atoms: C_23  and  N_26
REMARK    6  A    between atoms: N_26  and  C_29
REMARK                            x       y       z     vdW  Elec       q    Type
REMARK                         _______ _______ _______ _____ _____    ______ ____
ROOT
ATOM      1  O   UNL     1      35.249 -18.931 -22.673  0.00  0.00    -0.421 OA
ENDROOT
BRANCH   1   9
ATOM      2  C   UNL     1      33.625 -16.034 -25.194  0.00  0.00    +0.000 C 
ATOM      3  C   UNL     1      34.114 -15.667 -23.917  0.00  0.00    +0.003 C 
ATOM      4  C   UNL     1      33.081 -15.046 -26.031  0.00  0.00    +0.003 C 
ATOM      5  C   UNL     1      34.658 -16.655 -23.081  0.00  0.00    +0.038 C 
ATOM      6  C   UNL     1      33.021 -13.716 -25.616  0.00  0.00    +0.031 C 
ATOM      7  C   UNL     1      34.046 -14.324 -23.516  0.00  0.00    +0.000 C 
ATOM      8  C   UNL     1      33.693 -17.379 -25.595  0.00  0.00    +0.003 C 
ATOM      9  C   UNL     1      34.718 -17.986 -23.495  0.00  0.00    +0.149 C 
ATOM     10  C   UNL     1      33.502 -13.355 -24.361  0.00  0.00    +0.003 C 
ATOM     11  C   UNL     1      34.236 -18.346 -24.750  0.00  0.00    +0.038 C 
BRANCH   6  14
ATOM     12  N   UNL     1      31.566 -13.045 -27.514  0.00  0.00    -0.343 N 
ATOM     13  N   UNL     1      32.784 -11.435 -26.335  0.00  0.00    -0.285 NA
ATOM     14  C   UNL     1      32.455 -12.705 -26.495  0.00  0.00    +0.117 C 
ATOM     15  H   UNL     1      31.195 -12.344 -28.096  0.00  0.00    +0.144 HD
ATOM     16  H   UNL     1      31.311 -13.986 -27.651  0.00  0.00    +0.144 HD
ATOM     17  H   UNL     1      32.401 -10.749 -26.929  0.00  0.00    +0.188 HD
ENDBRANCH   6  14
ENDBRANCH   1   9
BRANCH   1  19
ATOM     18  O   UNL     1      35.217 -17.614 -20.751  0.00  0.00    -0.244 OA
ATOM     19  C   UNL     1      35.051 -18.687 -21.312  0.00  0.00    +0.346 C 
BRANCH  19  20
ATOM     20  C   UNL     1      34.591 -19.910 -20.607  0.00  0.00    +0.076 C 
ATOM     21  C   UNL     1      35.530 -20.740 -20.030  0.00  0.00    +0.008 C 
ATOM     22  C   UNL     1      33.239 -20.177 -20.549  0.00  0.00    +0.008 C 
ATOM     23  C   UNL     1      33.736 -22.180 -19.292  0.00  0.00    +0.084 C 
ATOM     24  C   UNL     1      35.097 -21.888 -19.366  0.00  0.00    +0.019 C 
ATOM     25  C   UNL     1      32.806 -21.325 -19.884  0.00  0.00    +0.019 C 
BRANCH  23  26
ATOM     26  N   UNL     1      33.302 -23.331 -18.628  0.00  0.00    -0.214 NA
BRANCH  26  29
ATOM     27  N   UNL     1      33.842 -23.340 -16.355  0.00  0.00    -0.370 N 
ATOM     28  N   UNL     1      31.648 -23.032 -16.901  0.00  0.00    -0.370 N 
ATOM     29  C   UNL     1      32.925 -23.235 -17.375  0.00  0.00    +0.193 C 
ATOM     30  H   UNL     1      34.793 -23.487 -16.561  0.00  0.00    +0.159 HD
ATOM     31  H   UNL     1      33.547 -23.267 -15.418  0.00  0.00    +0.159 HD
ATOM     32  H   UNL     1      30.898 -22.940 -17.531  0.00  0.00    +0.159 HD
ATOM     33  H   UNL     1      31.485 -22.977 -15.931  0.00  0.00    +0.159 HD
ENDBRANCH  26  29
ENDBRANCH  23  26
ENDBRANCH  19  20
ENDBRANCH   1  19
TORSDOF 6
ENDMDL
MODEL 9
REMARK VINA RESULT:     -10.9      2.352      8.486
REMARK  Name = 4413
REMARK  6 active torsions:
REMARK  status: ('A' for Active; 'I' for Inactive)
REMARK    1  A    between atoms: O_1  and  C_9
REMARK    2  A    between atoms: O_1  and  C_19
REMARK    3  A    between atoms: C_6  and  C_14
REMARK    4  A    between atoms: C_19  and  C_20
REMARK    5  A    between atoms: C_23  and  N_26
REMARK    6  A    between atoms: N_26  and  C_29
REMARK                            x       y       z     vdW  Elec       q    Type
REMARK                         _______ _______ _______ _____ _____    ______ ____
ROOT
ATOM      1  O   UNL     1      33.184 -23.735 -16.949  0.00  0.00    -0.421 OA
ENDROOT
BRANCH   1   9
ATOM      2  C   UNL     1      34.768 -21.034 -19.702  0.00  0.00    +0.000 C 
ATOM      3  C   UNL     1      33.371 -21.258 -19.653  0.00  0.00    +0.003 C 
ATOM      4  C   UNL     1      35.285 -20.121 -20.635  0.00  0.00    +0.003 C 
ATOM      5  C   UNL     1      32.854 -22.171 -18.720  0.00  0.00    +0.038 C 
ATOM      6  C   UNL     1      34.438 -19.438 -21.507  0.00  0.00    +0.031 C 
ATOM      7  C   UNL     1      32.533 -20.561 -20.538  0.00  0.00    +0.000 C 
ATOM      8  C   UNL     1      35.606 -21.732 -18.817  0.00  0.00    +0.003 C 
ATOM      9  C   UNL     1      33.702 -22.855 -17.848  0.00  0.00    +0.149 C 
ATOM     10  C   UNL     1      33.064 -19.657 -21.459  0.00  0.00    +0.003 C 
ATOM     11  C   UNL     1      35.075 -22.635 -17.896  0.00  0.00    +0.038 C 
BRANCH   6  14
ATOM     12  N   UNL     1      34.173 -17.831 -23.382  0.00  0.00    -0.343 N 
ATOM     13  N   UNL     1      36.289 -18.259 -22.486  0.00  0.00    -0.285 NA
ATOM     14  C   UNL     1      34.989 -18.495 -22.468  0.00  0.00    +0.117 C 
ATOM     15  H   UNL     1      34.568 -17.197 -24.023  0.00  0.00    +0.144 HD
ATOM     16  H   UNL     1      33.202 -17.996 -23.386  0.00  0.00    +0.144 HD
ATOM     17  H   UNL     1      36.664 -17.621 -23.136  0.00  0.00    +0.188 HD
ENDBRANCH   6  14
ENDBRANCH   1   9
BRANCH   1  19
ATOM     18  O   UNL     1      32.605 -22.727 -14.930  0.00  0.00    -0.244 OA
ATOM     19  C   UNL     1      33.381 -23.378 -15.613  0.00  0.00    +0.346 C 
BRANCH  19  20
ATOM     20  C   UNL     1      34.672 -23.903 -15.100  0.00  0.00    +0.076 C 
ATOM     21  C   UNL     1      34.956 -25.244 -15.254  0.00  0.00    +0.008 C 
ATOM     22  C   UNL     1      35.549 -23.031 -14.487  0.00  0.00    +0.008 C 
ATOM     23  C   UNL     1      37.074 -24.876 -14.151  0.00  0.00    +0.084 C 
ATOM     24  C   UNL     1      36.170 -25.735 -14.774  0.00  0.00    +0.019 C 
ATOM     25  C   UNL     1      36.763 -23.523 -14.007  0.00  0.00    +0.019 C 
BRANCH  23  26
ATOM     26  N   UNL     1      38.289 -25.368 -13.668  0.00  0.00    -0.214 NA
BRANCH  26  29
ATOM     27  N   UNL     1      39.412 -24.881 -15.659  0.00  0.00    -0.370 N 
ATOM     28  N   UNL     1      40.178 -26.652 -14.441  0.00  0.00    -0.370 N 
ATOM     29  C   UNL     1      39.247 -25.640 -14.523  0.00  0.00    +0.193 C 
ATOM     30  H   UNL     1      38.809 -24.124 -15.837  0.00  0.00    +0.159 HD
ATOM     31  H   UNL     1      40.134 -25.095 -16.293  0.00  0.00    +0.159 HD
ATOM     32  H   UNL     1      40.168 -27.268 -13.673  0.00  0.00    +0.159 HD
ATOM     33  H   UNL     1      40.855 -26.759 -15.149  0.00  0.00    +0.159 HD
ENDBRANCH  26  29
ENDBRANCH  23  26
ENDBRANCH  19  20
ENDBRANCH   1  19
TORSDOF 6
ENDMDL
