MODEL 1
REMARK VINA RESULT:     -12.8      0.000      0.000
REMARK  Name = 11581936
REMARK  5 active torsions:
REMARK  status: ('A' for Active; 'I' for Inactive)
REMARK    1  A    between atoms: C_1  and  C_9
REMARK    2  A    between atoms: C_4  and  O_19
REMARK    3  A    between atoms: C_10  and  C_14
REMARK    4  A    between atoms: O_19  and  C_20
REMARK    5  A    between atoms: C_20  and  C_22
REMARK                            x       y       z     vdW  Elec       q    Type
REMARK                         _______ _______ _______ _____ _____    ______ ____
ROOT
ATOM      1  C   UNL     1      33.630 -22.941 -16.993  0.00  0.00    +0.019 C 
ATOM      2  C   UNL     1      34.972 -22.565 -16.975  0.00  0.00    +0.005 C 
ATOM      3  C   UNL     1      32.862 -22.734 -18.139  0.00  0.00    +0.005 C 
ATOM      4  C   UNL     1      34.776 -21.778 -19.243  0.00  0.00    +0.139 C 
ATOM      5  C   UNL     1      35.547 -21.981 -18.105  0.00  0.00    +0.037 C 
ATOM      6  C   UNL     1      33.436 -22.151 -19.268  0.00  0.00    +0.037 C 
ENDROOT
BRANCH   1   9
ATOM      7  N   UNL     1      31.535 -24.179 -14.503  0.00  0.00    -0.208 N 
ATOM      8  N   UNL     1      31.707 -23.547 -15.676  0.00  0.00    -0.178 NA
ATOM      9  C   UNL     1      33.038 -23.543 -15.831  0.00  0.00    +0.100 C 
ATOM     10  C   UNL     1      33.704 -24.170 -14.758  0.00  0.00    +0.036 C 
ATOM     11  C   UNL     1      32.700 -24.573 -13.912  0.00  0.00    +0.086 C 
ATOM     12  C   UNL     1      30.202 -24.380 -13.988  0.00  0.00    +0.140 C 
BRANCH  10  14
ATOM     13  N   UNL     1      37.810 -24.835 -13.984  0.00  0.00    -0.242 NA
ATOM     14  C   UNL     1      35.094 -24.395 -14.497  0.00  0.00    +0.006 C 
ATOM     15  C   UNL     1      35.805 -23.519 -13.681  0.00  0.00    +0.021 C 
ATOM     16  C   UNL     1      35.745 -25.492 -15.055  0.00  0.00    +0.021 C 
ATOM     17  C   UNL     1      37.148 -23.781 -13.459  0.00  0.00    +0.099 C 
ATOM     18  C   UNL     1      37.089 -25.666 -14.771  0.00  0.00    +0.099 C 
ENDBRANCH  10  14
ENDBRANCH   1   9
BRANCH   4  19
ATOM     19  O   UNL     1      35.341 -21.205 -20.353  0.00  0.00    -0.468 OA
BRANCH  19  20
ATOM     20  C   UNL     1      36.147 -20.053 -20.138  0.00  0.00    +0.264 C 
BRANCH  20  22
ATOM     21  N   UNL     1      35.362 -17.786 -20.465  0.00  0.00    -0.406 NA
ATOM     22  C   UNL     1      35.698 -18.960 -21.049  0.00  0.00    +0.152 C 
ATOM     23  C   UNL     1      34.866 -16.915 -22.656  0.00  0.00    +0.026 C 
ATOM     24  C   UNL     1      34.951 -16.776 -21.255  0.00  0.00    +0.113 C 
ATOM     25  C   UNL     1      35.646 -19.189 -22.409  0.00  0.00    +0.031 C 
ATOM     26  C   UNL     1      35.223 -18.146 -23.221  0.00  0.00    +0.005 C 
ATOM     27  C   UNL     1      34.432 -15.839 -23.450  0.00  0.00    +0.002 C 
ATOM     28  C   UNL     1      34.597 -15.552 -20.694  0.00  0.00    +0.085 C 
ATOM     29  C   UNL     1      34.083 -14.625 -22.864  0.00  0.00    -0.004 C 
ATOM     30  C   UNL     1      34.165 -14.482 -21.484  0.00  0.00    -0.019 C 
ENDBRANCH  20  22
ENDBRANCH  19  20
ENDBRANCH   4  19
TORSDOF 5
ENDMDL
MODEL 2
REMARK VINA RESULT:     -12.3      1.356      3.515
REMARK  Name = 11581936
REMARK  5 active torsions:
REMARK  status: ('A' for Active; 'I' for Inactive)
REMARK    1  A    between atoms: C_1  and  C_9
REMARK    2  A    between atoms: C_4  and  O_19
REMARK    3  A    between atoms: C_10  and  C_14
REMARK    4  A    between atoms: O_19  and  C_20
REMARK    5  A    between atoms: C_20  and  C_22
REMARK                            x       y       z     vdW  Elec       q    Type
REMARK                         _______ _______ _______ _____ _____    ______ ____
ROOT
ATOM      1  C   UNL     1      34.285 -23.012 -16.575  0.00  0.00    +0.019 C 
ATOM      2  C   UNL     1      33.159 -23.029 -17.397  0.00  0.00    +0.005 C 
ATOM      3  C   UNL     1      35.451 -22.377 -17.001  0.00  0.00    +0.005 C 
ATOM      4  C   UNL     1      34.365 -21.780 -19.066  0.00  0.00    +0.139 C 
ATOM      5  C   UNL     1      33.200 -22.411 -18.647  0.00  0.00    +0.037 C 
ATOM      6  C   UNL     1      35.492 -21.758 -18.251  0.00  0.00    +0.037 C 
ENDROOT
BRANCH   1   9
ATOM      7  N   UNL     1      34.950 -24.522 -13.509  0.00  0.00    -0.208 N 
ATOM      8  N   UNL     1      35.380 -23.954 -14.649  0.00  0.00    -0.178 NA
ATOM      9  C   UNL     1      34.243 -23.648 -15.288  0.00  0.00    +0.100 C 
ATOM     10  C   UNL     1      33.098 -24.021 -14.553  0.00  0.00    +0.036 C 
ATOM     11  C   UNL     1      33.592 -24.585 -13.402  0.00  0.00    +0.086 C 
ATOM     12  C   UNL     1      35.908 -24.994 -12.539  0.00  0.00    +0.140 C 
BRANCH  10  14
ATOM     13  N   UNL     1      28.966 -23.650 -15.383  0.00  0.00    -0.242 NA
ATOM     14  C   UNL     1      31.700 -23.895 -14.835  0.00  0.00    +0.006 C 
ATOM     15  C   UNL     1      30.973 -24.994 -15.284  0.00  0.00    +0.021 C 
ATOM     16  C   UNL     1      31.056 -22.673 -14.661  0.00  0.00    +0.021 C 
ATOM     17  C   UNL     1      29.623 -24.820 -15.541  0.00  0.00    +0.099 C 
ATOM     18  C   UNL     1      29.702 -22.603 -14.946  0.00  0.00    +0.099 C 
ENDBRANCH  10  14
ENDBRANCH   1   9
BRANCH   4  19
ATOM     19  O   UNL     1      34.405 -21.172 -20.294  0.00  0.00    -0.468 OA
BRANCH  19  20
ATOM     20  C   UNL     1      35.617 -20.518 -20.645  0.00  0.00    +0.264 C 
BRANCH  20  22
ATOM     21  N   UNL     1      35.131 -18.147 -20.605  0.00  0.00    -0.406 NA
ATOM     22  C   UNL     1      35.303 -19.251 -21.368  0.00  0.00    +0.152 C 
ATOM     23  C   UNL     1      34.723 -16.897 -22.625  0.00  0.00    +0.026 C 
ATOM     24  C   UNL     1      34.845 -16.984 -21.223  0.00  0.00    +0.113 C 
ATOM     25  C   UNL     1      35.203 -19.262 -22.745  0.00  0.00    +0.031 C 
ATOM     26  C   UNL     1      34.909 -18.063 -23.378  0.00  0.00    +0.005 C 
ATOM     27  C   UNL     1      34.423 -15.667 -23.236  0.00  0.00    +0.002 C 
ATOM     28  C   UNL     1      34.661 -15.824 -20.475  0.00  0.00    +0.085 C 
ATOM     29  C   UNL     1      34.243 -14.522 -22.464  0.00  0.00    -0.004 C 
ATOM     30  C   UNL     1      34.362 -14.601 -21.082  0.00  0.00    -0.019 C 
ENDBRANCH  20  22
ENDBRANCH  19  20
ENDBRANCH   4  19
TORSDOF 5
ENDMDL
MODEL 3
REMARK VINA RESULT:     -12.3      1.126      2.121
REMARK  Name = 11581936
REMARK  5 active torsions:
REMARK  status: ('A' for Active; 'I' for Inactive)
REMARK    1  A    between atoms: C_1  and  C_9
REMARK    2  A    between atoms: C_4  and  O_19
REMARK    3  A    between atoms: C_10  and  C_14
REMARK    4  A    between atoms: O_19  and  C_20
REMARK    5  A    between atoms: C_20  and  C_22
REMARK                            x       y       z     vdW  Elec       q    Type
REMARK                         _______ _______ _______ _____ _____    ______ ____
ROOT
ATOM      1  C   UNL     1      33.741 -22.959 -16.858  0.00  0.00    +0.019 C 
ATOM      2  C   UNL     1      35.065 -22.524 -16.901  0.00  0.00    +0.005 C 
ATOM      3  C   UNL     1      32.932 -22.845 -17.989  0.00  0.00    +0.005 C 
ATOM      4  C   UNL     1      34.769 -21.866 -19.198  0.00  0.00    +0.139 C 
ATOM      5  C   UNL     1      35.581 -21.976 -18.075  0.00  0.00    +0.037 C 
ATOM      6  C   UNL     1      33.448 -22.297 -19.164  0.00  0.00    +0.037 C 
ENDROOT
BRANCH   1   9
ATOM      7  N   UNL     1      31.797 -24.004 -14.165  0.00  0.00    -0.208 N 
ATOM      8  N   UNL     1      31.919 -23.351 -15.333  0.00  0.00    -0.178 NA
ATOM      9  C   UNL     1      33.209 -23.523 -15.649  0.00  0.00    +0.100 C 
ATOM     10  C   UNL     1      33.901 -24.283 -14.683  0.00  0.00    +0.036 C 
ATOM     11  C   UNL     1      32.955 -24.581 -13.733  0.00  0.00    +0.086 C 
ATOM     12  C   UNL     1      30.519 -24.043 -13.497  0.00  0.00    +0.140 C 
BRANCH  10  14
ATOM     13  N   UNL     1      37.934 -25.540 -14.440  0.00  0.00    -0.242 NA
ATOM     14  C   UNL     1      35.266 -24.709 -14.600  0.00  0.00    +0.006 C 
ATOM     15  C   UNL     1      35.678 -25.873 -15.242  0.00  0.00    +0.021 C 
ATOM     16  C   UNL     1      36.191 -23.961 -13.878  0.00  0.00    +0.021 C 
ATOM     17  C   UNL     1      37.009 -26.241 -15.132  0.00  0.00    +0.099 C 
ATOM     18  C   UNL     1      37.499 -24.414 -13.829  0.00  0.00    +0.099 C 
ENDBRANCH  10  14
ENDBRANCH   1   9
BRANCH   4  19
ATOM     19  O   UNL     1      35.277 -21.328 -20.353  0.00  0.00    -0.468 OA
BRANCH  19  20
ATOM     20  C   UNL     1      35.927 -20.068 -20.240  0.00  0.00    +0.264 C 
BRANCH  20  22
ATOM     21  N   UNL     1      35.094 -19.722 -22.487  0.00  0.00    -0.406 NA
ATOM     22  C   UNL     1      35.416 -19.152 -21.302  0.00  0.00    +0.152 C 
ATOM     23  C   UNL     1      34.477 -17.536 -23.293  0.00  0.00    +0.026 C 
ATOM     24  C   UNL     1      34.630 -18.927 -23.470  0.00  0.00    +0.113 C 
ATOM     25  C   UNL     1      35.301 -17.803 -21.036  0.00  0.00    +0.031 C 
ATOM     26  C   UNL     1      34.822 -16.987 -22.051  0.00  0.00    +0.005 C 
ATOM     27  C   UNL     1      33.991 -16.737 -24.341  0.00  0.00    +0.002 C 
ATOM     28  C   UNL     1      34.286 -19.472 -24.704  0.00  0.00    +0.085 C 
ATOM     29  C   UNL     1      33.654 -17.307 -25.566  0.00  0.00    -0.004 C 
ATOM     30  C   UNL     1      33.802 -18.677 -25.747  0.00  0.00    -0.019 C 
ENDBRANCH  20  22
ENDBRANCH  19  20
ENDBRANCH   4  19
TORSDOF 5
ENDMDL
MODEL 4
REMARK VINA RESULT:     -12.1      1.314      1.894
REMARK  Name = 11581936
REMARK  5 active torsions:
REMARK  status: ('A' for Active; 'I' for Inactive)
REMARK    1  A    between atoms: C_1  and  C_9
REMARK    2  A    between atoms: C_4  and  O_19
REMARK    3  A    between atoms: C_10  and  C_14
REMARK    4  A    between atoms: O_19  and  C_20
REMARK    5  A    between atoms: C_20  and  C_22
REMARK                            x       y       z     vdW  Elec       q    Type
REMARK                         _______ _______ _______ _____ _____    ______ ____
ROOT
ATOM      1  C   UNL     1      33.219 -22.163 -18.364  0.00  0.00    +0.019 C 
ATOM      2  C   UNL     1      32.566 -21.295 -19.239  0.00  0.00    +0.005 C 
ATOM      3  C   UNL     1      34.586 -22.399 -18.506  0.00  0.00    +0.005 C 
ATOM      4  C   UNL     1      34.644 -20.903 -20.392  0.00  0.00    +0.139 C 
ATOM      5  C   UNL     1      33.281 -20.664 -20.257  0.00  0.00    +0.037 C 
ATOM      6  C   UNL     1      35.302 -21.766 -19.523  0.00  0.00    +0.037 C 
ENDROOT
BRANCH   1   9
ATOM      7  N   UNL     1      30.823 -23.524 -16.236  0.00  0.00    -0.208 N 
ATOM      8  N   UNL     1      31.145 -22.852 -17.354  0.00  0.00    -0.178 NA
ATOM      9  C   UNL     1      32.483 -22.814 -17.317  0.00  0.00    +0.100 C 
ATOM     10  C   UNL     1      33.006 -23.462 -16.178  0.00  0.00    +0.036 C 
ATOM     11  C   UNL     1      31.902 -23.913 -15.497  0.00  0.00    +0.086 C 
ATOM     12  C   UNL     1      29.436 -23.770 -15.923  0.00  0.00    +0.140 C 
BRANCH  10  14
ATOM     13  N   UNL     1      36.976 -24.063 -14.845  0.00  0.00    -0.242 NA
ATOM     14  C   UNL     1      34.349 -23.666 -15.728  0.00  0.00    +0.006 C 
ATOM     15  C   UNL     1      35.205 -22.580 -15.558  0.00  0.00    +0.021 C 
ATOM     16  C   UNL     1      34.811 -24.950 -15.454  0.00  0.00    +0.021 C 
ATOM     17  C   UNL     1      36.495 -22.830 -15.119  0.00  0.00    +0.099 C 
ATOM     18  C   UNL     1      36.118 -25.094 -15.020  0.00  0.00    +0.099 C 
ENDBRANCH  10  14
ENDBRANCH   1   9
BRANCH   4  19
ATOM     19  O   UNL     1      35.347 -20.281 -21.391  0.00  0.00    -0.468 OA
BRANCH  19  20
ATOM     20  C   UNL     1      35.778 -18.950 -21.138  0.00  0.00    +0.264 C 
BRANCH  20  22
ATOM     21  N   UNL     1      35.027 -16.741 -21.781  0.00  0.00    -0.406 NA
ATOM     22  C   UNL     1      35.175 -18.034 -22.150  0.00  0.00    +0.152 C 
ATOM     23  C   UNL     1      34.076 -16.302 -23.952  0.00  0.00    +0.026 C 
ATOM     24  C   UNL     1      34.486 -15.884 -22.669  0.00  0.00    +0.113 C 
ATOM     25  C   UNL     1      34.804 -18.535 -23.381  0.00  0.00    +0.031 C 
ATOM     26  C   UNL     1      34.247 -17.650 -24.293  0.00  0.00    +0.005 C 
ATOM     27  C   UNL     1      33.514 -15.381 -24.852  0.00  0.00    +0.002 C 
ATOM     28  C   UNL     1      34.317 -14.544 -22.330  0.00  0.00    +0.085 C 
ATOM     29  C   UNL     1      33.355 -14.046 -24.488  0.00  0.00    -0.004 C 
ATOM     30  C   UNL     1      33.757 -13.628 -23.225  0.00  0.00    -0.019 C 
ENDBRANCH  20  22
ENDBRANCH  19  20
ENDBRANCH   4  19
TORSDOF 5
ENDMDL
MODEL 5
REMARK VINA RESULT:     -12.1      1.966      2.906
REMARK  Name = 11581936
REMARK  5 active torsions:
REMARK  status: ('A' for Active; 'I' for Inactive)
REMARK    1  A    between atoms: C_1  and  C_9
REMARK    2  A    between atoms: C_4  and  O_19
REMARK    3  A    between atoms: C_10  and  C_14
REMARK    4  A    between atoms: O_19  and  C_20
REMARK    5  A    between atoms: C_20  and  C_22
REMARK                            x       y       z     vdW  Elec       q    Type
REMARK                         _______ _______ _______ _____ _____    ______ ____
ROOT
ATOM      1  C   UNL     1      33.320 -22.064 -18.522  0.00  0.00    +0.019 C 
ATOM      2  C   UNL     1      32.562 -21.201 -19.313  0.00  0.00    +0.005 C 
ATOM      3  C   UNL     1      34.672 -22.259 -18.799  0.00  0.00    +0.005 C 
ATOM      4  C   UNL     1      34.508 -20.731 -20.653  0.00  0.00    +0.139 C 
ATOM      5  C   UNL     1      33.159 -20.533 -20.383  0.00  0.00    +0.037 C 
ATOM      6  C   UNL     1      35.269 -21.590 -19.868  0.00  0.00    +0.037 C 
ENDROOT
BRANCH   1   9
ATOM      7  N   UNL     1      31.182 -23.589 -16.236  0.00  0.00    -0.208 N 
ATOM      8  N   UNL     1      31.378 -22.921 -17.385  0.00  0.00    -0.178 NA
ATOM      9  C   UNL     1      32.706 -22.753 -17.421  0.00  0.00    +0.100 C 
ATOM     10  C   UNL     1      33.348 -23.314 -16.297  0.00  0.00    +0.036 C 
ATOM     11  C   UNL     1      32.330 -23.850 -15.547  0.00  0.00    +0.086 C 
ATOM     12  C   UNL     1      29.844 -23.959 -15.842  0.00  0.00    +0.140 C 
BRANCH  10  14
ATOM     13  N   UNL     1      37.421 -23.491 -15.167  0.00  0.00    -0.242 NA
ATOM     14  C   UNL     1      34.726 -23.374 -15.916  0.00  0.00    +0.006 C 
ATOM     15  C   UNL     1      35.531 -22.242 -16.012  0.00  0.00    +0.021 C 
ATOM     16  C   UNL     1      35.273 -24.565 -15.443  0.00  0.00    +0.021 C 
ATOM     17  C   UNL     1      36.858 -22.352 -15.629  0.00  0.00    +0.099 C 
ATOM     18  C   UNL     1      36.611 -24.571 -15.086  0.00  0.00    +0.099 C 
ENDBRANCH  10  14
ENDBRANCH   1   9
BRANCH   4  19
ATOM     19  O   UNL     1      35.094 -20.074 -21.703  0.00  0.00    -0.468 OA
BRANCH  19  20
ATOM     20  C   UNL     1      35.342 -18.684 -21.530  0.00  0.00    +0.264 C 
BRANCH  20  22
ATOM     21  N   UNL     1      33.977 -18.639 -23.529  0.00  0.00    -0.406 NA
ATOM     22  C   UNL     1      34.757 -17.932 -22.679  0.00  0.00    +0.152 C 
ATOM     23  C   UNL     1      33.655 -16.620 -24.805  0.00  0.00    +0.026 C 
ATOM     24  C   UNL     1      33.431 -17.993 -24.578  0.00  0.00    +0.113 C 
ATOM     25  C   UNL     1      35.032 -16.587 -22.819  0.00  0.00    +0.031 C 
ATOM     26  C   UNL     1      34.468 -15.925 -23.900  0.00  0.00    +0.005 C 
ATOM     27  C   UNL     1      33.070 -15.979 -25.910  0.00  0.00    +0.002 C 
ATOM     28  C   UNL     1      32.622 -18.683 -25.477  0.00  0.00    +0.085 C 
ATOM     29  C   UNL     1      32.265 -16.692 -26.795  0.00  0.00    -0.004 C 
ATOM     30  C   UNL     1      32.041 -18.046 -26.577  0.00  0.00    -0.019 C 
ENDBRANCH  20  22
ENDBRANCH  19  20
ENDBRANCH   4  19
TORSDOF 5
ENDMDL
MODEL 6
REMARK VINA RESULT:     -12.0      4.177     11.843
REMARK  Name = 11581936
REMARK  5 active torsions:
REMARK  status: ('A' for Active; 'I' for Inactive)
REMARK    1  A    between atoms: C_1  and  C_9
REMARK    2  A    between atoms: C_4  and  O_19
REMARK    3  A    between atoms: C_10  and  C_14
REMARK    4  A    between atoms: O_19  and  C_20
REMARK    5  A    between atoms: C_20  and  C_22
REMARK                            x       y       z     vdW  Elec       q    Type
REMARK                         _______ _______ _______ _____ _____    ______ ____
ROOT
ATOM      1  C   UNL     1      33.147 -13.453 -22.738  0.00  0.00    +0.019 C 
ATOM      2  C   UNL     1      33.886 -14.071 -21.729  0.00  0.00    +0.005 C 
ATOM      3  C   UNL     1      33.078 -14.031 -24.005  0.00  0.00    +0.005 C 
ATOM      4  C   UNL     1      34.481 -15.838 -23.253  0.00  0.00    +0.139 C 
ATOM      5  C   UNL     1      34.555 -15.267 -21.988  0.00  0.00    +0.037 C 
ATOM      6  C   UNL     1      33.746 -15.228 -24.264  0.00  0.00    +0.037 C 
ENDROOT
BRANCH   1   9
ATOM      7  N   UNL     1      31.132 -10.878 -21.542  0.00  0.00    -0.208 N 
ATOM      8  N   UNL     1      31.551 -12.154 -21.489  0.00  0.00    -0.178 NA
ATOM      9  C   UNL     1      32.458 -12.222 -22.471  0.00  0.00    +0.100 C 
ATOM     10  C   UNL     1      32.613 -10.991 -23.144  0.00  0.00    +0.036 C 
ATOM     11  C   UNL     1      31.737 -10.140 -22.516  0.00  0.00    +0.086 C 
ATOM     12  C   UNL     1      30.128 -10.415 -20.615  0.00  0.00    +0.140 C 
BRANCH  10  14
ATOM     13  N   UNL     1      35.084  -9.830 -26.375  0.00  0.00    -0.242 NA
ATOM     14  C   UNL     1      33.449 -10.599 -24.237  0.00  0.00    +0.006 C 
ATOM     15  C   UNL     1      33.120 -10.965 -25.540  0.00  0.00    +0.021 C 
ATOM     16  C   UNL     1      34.598  -9.847 -24.007  0.00  0.00    +0.021 C 
ATOM     17  C   UNL     1      33.962 -10.559 -26.563  0.00  0.00    +0.099 C 
ATOM     18  C   UNL     1      35.374  -9.492 -25.098  0.00  0.00    +0.099 C 
ENDBRANCH  10  14
ENDBRANCH   1   9
BRANCH   4  19
ATOM     19  O   UNL     1      35.138 -17.014 -23.508  0.00  0.00    -0.468 OA
BRANCH  19  20
ATOM     20  C   UNL     1      34.357 -18.202 -23.478  0.00  0.00    +0.264 C 
BRANCH  20  22
ATOM     21  N   UNL     1      33.774 -19.745 -21.707  0.00  0.00    -0.406 NA
ATOM     22  C   UNL     1      34.755 -19.024 -22.298  0.00  0.00    +0.152 C 
ATOM     23  C   UNL     1      35.410 -20.551 -20.131  0.00  0.00    +0.026 C 
ATOM     24  C   UNL     1      34.095 -20.500 -20.638  0.00  0.00    +0.113 C 
ATOM     25  C   UNL     1      36.068 -19.011 -21.873  0.00  0.00    +0.031 C 
ATOM     26  C   UNL     1      36.395 -19.789 -20.772  0.00  0.00    +0.005 C 
ATOM     27  C   UNL     1      35.708 -21.348 -19.013  0.00  0.00    +0.002 C 
ATOM     28  C   UNL     1      33.116 -21.258 -20.001  0.00  0.00    +0.085 C 
ATOM     29  C   UNL     1      34.710 -22.097 -18.394  0.00  0.00    -0.004 C 
ATOM     30  C   UNL     1      33.413 -22.051 -18.888  0.00  0.00    -0.019 C 
ENDBRANCH  20  22
ENDBRANCH  19  20
ENDBRANCH   4  19
TORSDOF 5
ENDMDL
MODEL 7
REMARK VINA RESULT:     -11.9      1.682      3.869
REMARK  Name = 11581936
REMARK  5 active torsions:
REMARK  status: ('A' for Active; 'I' for Inactive)
REMARK    1  A    between atoms: C_1  and  C_9
REMARK    2  A    between atoms: C_4  and  O_19
REMARK    3  A    between atoms: C_10  and  C_14
REMARK    4  A    between atoms: O_19  and  C_20
REMARK    5  A    between atoms: C_20  and  C_22
REMARK                            x       y       z     vdW  Elec       q    Type
REMARK                         _______ _______ _______ _____ _____    ______ ____
ROOT
ATOM      1  C   UNL     1      34.266 -23.054 -16.455  0.00  0.00    +0.019 C 
ATOM      2  C   UNL     1      35.421 -22.392 -16.871  0.00  0.00    +0.005 C 
ATOM      3  C   UNL     1      33.156 -23.118 -17.297  0.00  0.00    +0.005 C 
ATOM      4  C   UNL     1      34.355 -21.861 -18.964  0.00  0.00    +0.139 C 
ATOM      5  C   UNL     1      35.465 -21.794 -18.130  0.00  0.00    +0.037 C 
ATOM      6  C   UNL     1      33.200 -22.520 -18.556  0.00  0.00    +0.037 C 
ENDROOT
BRANCH   1   9
ATOM      7  N   UNL     1      34.921 -24.513 -13.362  0.00  0.00    -0.208 N 
ATOM      8  N   UNL     1      35.354 -23.959 -14.507  0.00  0.00    -0.178 NA
ATOM      9  C   UNL     1      34.220 -23.671 -15.159  0.00  0.00    +0.100 C 
ATOM     10  C   UNL     1      33.073 -24.042 -14.427  0.00  0.00    +0.036 C 
ATOM     11  C   UNL     1      33.562 -24.584 -13.264  0.00  0.00    +0.086 C 
ATOM     12  C   UNL     1      35.876 -24.963 -12.378  0.00  0.00    +0.140 C 
BRANCH  10  14
ATOM     13  N   UNL     1      28.944 -23.715 -15.291  0.00  0.00    -0.242 NA
ATOM     14  C   UNL     1      31.676 -23.931 -14.720  0.00  0.00    +0.006 C 
ATOM     15  C   UNL     1      30.937 -25.062 -15.055  0.00  0.00    +0.021 C 
ATOM     16  C   UNL     1      31.044 -22.691 -14.670  0.00  0.00    +0.021 C 
ATOM     17  C   UNL     1      29.588 -24.902 -15.329  0.00  0.00    +0.099 C 
ATOM     18  C   UNL     1      29.691 -22.637 -14.962  0.00  0.00    +0.099 C 
ENDBRANCH  10  14
ENDBRANCH   1   9
BRANCH   4  19
ATOM     19  O   UNL     1      34.398 -21.273 -20.202  0.00  0.00    -0.468 OA
BRANCH  19  20
ATOM     20  C   UNL     1      35.566 -20.524 -20.514  0.00  0.00    +0.264 C 
BRANCH  20  22
ATOM     21  N   UNL     1      34.814 -19.773 -22.689  0.00  0.00    -0.406 NA
ATOM     22  C   UNL     1      35.206 -19.414 -21.445  0.00  0.00    +0.152 C 
ATOM     23  C   UNL     1      34.535 -17.435 -23.202  0.00  0.00    +0.026 C 
ATOM     24  C   UNL     1      34.481 -18.798 -23.557  0.00  0.00    +0.113 C 
ATOM     25  C   UNL     1      35.289 -18.108 -21.007  0.00  0.00    +0.031 C 
ATOM     26  C   UNL     1      34.947 -17.107 -21.904  0.00  0.00    +0.005 C 
ATOM     27  C   UNL     1      34.182 -16.445 -24.134  0.00  0.00    +0.002 C 
ATOM     28  C   UNL     1      34.071 -19.125 -24.847  0.00  0.00    +0.085 C 
ATOM     29  C   UNL     1      33.775 -16.798 -25.419  0.00  0.00    -0.004 C 
ATOM     30  C   UNL     1      33.720 -18.139 -25.775  0.00  0.00    -0.019 C 
ENDBRANCH  20  22
ENDBRANCH  19  20
ENDBRANCH   4  19
TORSDOF 5
ENDMDL
MODEL 8
REMARK VINA RESULT:     -11.8      1.985      9.742
REMARK  Name = 11581936
REMARK  5 active torsions:
REMARK  status: ('A' for Active; 'I' for Inactive)
REMARK    1  A    between atoms: C_1  and  C_9
REMARK    2  A    between atoms: C_4  and  O_19
REMARK    3  A    between atoms: C_10  and  C_14
REMARK    4  A    between atoms: O_19  and  C_20
REMARK    5  A    between atoms: C_20  and  C_22
REMARK                            x       y       z     vdW  Elec       q    Type
REMARK                         _______ _______ _______ _____ _____    ______ ____
ROOT
ATOM      1  C   UNL     1      34.524 -19.023 -20.832  0.00  0.00    +0.019 C 
ATOM      2  C   UNL     1      35.708 -19.677 -20.491  0.00  0.00    +0.005 C 
ATOM      3  C   UNL     1      33.296 -19.651 -20.628  0.00  0.00    +0.005 C 
ATOM      4  C   UNL     1      34.434 -21.579 -19.743  0.00  0.00    +0.139 C 
ATOM      5  C   UNL     1      35.662 -20.960 -19.944  0.00  0.00    +0.037 C 
ATOM      6  C   UNL     1      33.250 -20.934 -20.080  0.00  0.00    +0.037 C 
ENDROOT
BRANCH   1   9
ATOM      7  N   UNL     1      34.740 -15.607 -21.466  0.00  0.00    -0.208 N 
ATOM      8  N   UNL     1      34.755 -16.637 -20.605  0.00  0.00    -0.178 NA
ATOM      9  C   UNL     1      34.570 -17.703 -21.395  0.00  0.00    +0.100 C 
ATOM     10  C   UNL     1      34.439 -17.346 -22.754  0.00  0.00    +0.036 C 
ATOM     11  C   UNL     1      34.555 -15.977 -22.766  0.00  0.00    +0.086 C 
ATOM     12  C   UNL     1      34.912 -14.261 -20.975  0.00  0.00    +0.140 C 
BRANCH  10  14
ATOM     13  N   UNL     1      33.825 -19.667 -26.237  0.00  0.00    -0.242 NA
ATOM     14  C   UNL     1      34.230 -18.132 -23.932  0.00  0.00    +0.006 C 
ATOM     15  C   UNL     1      33.477 -17.626 -24.988  0.00  0.00    +0.021 C 
ATOM     16  C   UNL     1      34.781 -19.406 -24.032  0.00  0.00    +0.021 C 
ATOM     17  C   UNL     1      33.305 -18.426 -26.106  0.00  0.00    +0.099 C 
ATOM     18  C   UNL     1      34.551 -20.126 -25.193  0.00  0.00    +0.099 C 
ENDBRANCH  10  14
ENDBRANCH   1   9
BRANCH   4  19
ATOM     19  O   UNL     1      34.390 -22.839 -19.205  0.00  0.00    -0.468 OA
BRANCH  19  20
ATOM     20  C   UNL     1      33.216 -23.185 -18.481  0.00  0.00    +0.264 C 
BRANCH  20  22
ATOM     21  N   UNL     1      34.876 -23.361 -16.727  0.00  0.00    -0.406 NA
ATOM     22  C   UNL     1      33.559 -23.360 -17.039  0.00  0.00    +0.152 C 
ATOM     23  C   UNL     1      34.261 -23.676 -14.419  0.00  0.00    +0.026 C 
ATOM     24  C   UNL     1      35.224 -23.516 -15.435  0.00  0.00    +0.113 C 
ATOM     25  C   UNL     1      32.546 -23.509 -16.114  0.00  0.00    +0.031 C 
ATOM     26  C   UNL     1      32.908 -23.668 -14.784  0.00  0.00    +0.005 C 
ATOM     27  C   UNL     1      34.660 -23.836 -13.081  0.00  0.00    +0.002 C 
ATOM     28  C   UNL     1      36.568 -23.523 -15.072  0.00  0.00    +0.085 C 
ATOM     29  C   UNL     1      36.011 -23.840 -12.744  0.00  0.00    -0.004 C 
ATOM     30  C   UNL     1      36.966 -23.683 -13.741  0.00  0.00    -0.019 C 
ENDBRANCH  20  22
ENDBRANCH  19  20
ENDBRANCH   4  19
TORSDOF 5
ENDMDL
MODEL 9
REMARK VINA RESULT:     -11.8      2.264      9.751
REMARK  Name = 11581936
REMARK  5 active torsions:
REMARK  status: ('A' for Active; 'I' for Inactive)
REMARK    1  A    between atoms: C_1  and  C_9
REMARK    2  A    between atoms: C_4  and  O_19
REMARK    3  A    between atoms: C_10  and  C_14
REMARK    4  A    between atoms: O_19  and  C_20
REMARK    5  A    between atoms: C_20  and  C_22
REMARK                            x       y       z     vdW  Elec       q    Type
REMARK                         _______ _______ _______ _____ _____    ______ ____
ROOT
ATOM      1  C   UNL     1      34.694 -18.650 -21.012  0.00  0.00    +0.019 C 
ATOM      2  C   UNL     1      35.929 -19.197 -20.665  0.00  0.00    +0.005 C 
ATOM      3  C   UNL     1      33.525 -19.384 -20.812  0.00  0.00    +0.005 C 
ATOM      4  C   UNL     1      34.825 -21.204 -19.921  0.00  0.00    +0.139 C 
ATOM      5  C   UNL     1      35.994 -20.478 -20.118  0.00  0.00    +0.037 C 
ATOM      6  C   UNL     1      33.590 -20.665 -20.264  0.00  0.00    +0.037 C 
ENDROOT
BRANCH   1   9
ATOM      7  N   UNL     1      34.666 -15.228 -21.655  0.00  0.00    -0.208 N 
ATOM      8  N   UNL     1      34.797 -16.254 -20.797  0.00  0.00    -0.178 NA
ATOM      9  C   UNL     1      34.626 -17.331 -21.575  0.00  0.00    +0.100 C 
ATOM     10  C   UNL     1      34.388 -16.986 -22.922  0.00  0.00    +0.036 C 
ATOM     11  C   UNL     1      34.422 -15.613 -22.941  0.00  0.00    +0.086 C 
ATOM     12  C   UNL     1      34.789 -13.873 -21.175  0.00  0.00    +0.140 C 
BRANCH  10  14
ATOM     13  N   UNL     1      33.690 -19.353 -26.359  0.00  0.00    -0.242 NA
ATOM     14  C   UNL     1      34.153 -17.786 -24.086  0.00  0.00    +0.006 C 
ATOM     15  C   UNL     1      34.672 -19.075 -24.167  0.00  0.00    +0.021 C 
ATOM     16  C   UNL     1      33.401 -17.283 -25.144  0.00  0.00    +0.021 C 
ATOM     17  C   UNL     1      34.415 -19.810 -25.314  0.00  0.00    +0.099 C 
ATOM     18  C   UNL     1      33.201 -18.097 -26.247  0.00  0.00    +0.099 C 
ENDBRANCH  10  14
ENDBRANCH   1   9
BRANCH   4  19
ATOM     19  O   UNL     1      34.889 -22.463 -19.383  0.00  0.00    -0.468 OA
BRANCH  19  20
ATOM     20  C   UNL     1      33.668 -23.186 -19.299  0.00  0.00    +0.264 C 
BRANCH  20  22
ATOM     21  N   UNL     1      31.878 -23.155 -17.670  0.00  0.00    -0.406 NA
ATOM     22  C   UNL     1      33.213 -23.224 -17.878  0.00  0.00    +0.152 C 
ATOM     23  C   UNL     1      32.309 -23.286 -15.302  0.00  0.00    +0.026 C 
ATOM     24  C   UNL     1      31.429 -23.187 -16.400  0.00  0.00    +0.113 C 
ATOM     25  C   UNL     1      34.149 -23.323 -16.868  0.00  0.00    +0.031 C 
ATOM     26  C   UNL     1      33.684 -23.354 -15.562  0.00  0.00    +0.005 C 
ATOM     27  C   UNL     1      31.805 -23.315 -13.991  0.00  0.00    +0.002 C 
ATOM     28  C   UNL     1      30.063 -23.119 -16.142  0.00  0.00    +0.085 C 
ATOM     29  C   UNL     1      30.434 -23.245 -13.760  0.00  0.00    -0.004 C 
ATOM     30  C   UNL     1      29.562 -23.147 -14.837  0.00  0.00    -0.019 C 
ENDBRANCH  20  22
ENDBRANCH  19  20
ENDBRANCH   4  19
TORSDOF 5
ENDMDL
