MODEL 1
REMARK VINA RESULT:     -13.4      0.000      0.000
REMARK  Name = 10138993
REMARK  4 active torsions:
REMARK  status: ('A' for Active; 'I' for Inactive)
REMARK    1  A    between atoms: C_5  and  N_18
REMARK    2  A    between atoms: C_12  and  C_22
REMARK    3  A    between atoms: C_22  and  C_26
REMARK    4  A    between atoms: C_23  and  N_29
REMARK                            x       y       z     vdW  Elec       q    Type
REMARK                         _______ _______ _______ _____ _____    ______ ____
ROOT
ATOM      1  O   UNL     1      32.835 -21.143 -20.434  0.00  0.00    -0.274 OA
ATOM      2  N   UNL     1      31.761 -23.216 -16.939  0.00  0.00    -0.275 N 
ATOM      3  N   UNL     1      34.317 -21.764 -18.722  0.00  0.00    -0.268 N 
ATOM      4  N   UNL     1      32.176 -22.553 -18.030  0.00  0.00    -0.157 NA
ATOM      5  C   UNL     1      35.133 -23.756 -14.674  0.00  0.00    +0.069 C 
ATOM      6  C   UNL     1      35.130 -23.098 -15.910  0.00  0.00    +0.020 C 
ATOM      7  C   UNL     1      33.954 -24.275 -14.134  0.00  0.00    +0.018 C 
ATOM      8  C   UNL     1      33.914 -22.971 -16.601  0.00  0.00    +0.052 A 
ATOM      9  C   UNL     1      32.755 -23.498 -16.041  0.00  0.00    +0.077 A 
ATOM     10  C   UNL     1      32.735 -24.157 -14.809  0.00  0.00    +0.020 C 
ATOM     11  C   UNL     1      33.476 -22.415 -17.810  0.00  0.00    +0.155 A 
ATOM     12  C   UNL     1      33.955 -21.189 -19.936  0.00  0.00    +0.232 C 
ATOM     13  H   UNL     1      30.822 -23.478 -16.797  0.00  0.00    +0.189 HD
ATOM     14  H   UNL     1      35.269 -21.708 -18.477  0.00  0.00    +0.156 HD
ENDROOT
BRANCH   5  18
ATOM     15  S   UNL     1      37.631 -24.892 -14.632  0.00  0.00    +0.057 S 
ATOM     16  O   UNL     1      37.063 -26.090 -15.220  0.00  0.00    -0.154 OA
ATOM     17  O   UNL     1      38.570 -24.054 -15.347  0.00  0.00    -0.154 OA
ATOM     18  N   UNL     1      36.380 -23.898 -13.943  0.00  0.00    -0.194 N 
ATOM     19  C   UNL     1      38.333 -25.336 -13.050  0.00  0.00    +0.174 C 
ATOM     20  C   UNL     1      37.836 -24.274 -12.083  0.00  0.00    +0.051 C 
ATOM     21  C   UNL     1      36.379 -24.011 -12.456  0.00  0.00    +0.117 C 
ENDBRANCH   5  18
BRANCH  12  22
ATOM     22  C   UNL     1      35.169 -20.579 -20.632  0.00  0.00    +0.112 C 
BRANCH  22  26
ATOM     23  C   UNL     1      34.227 -17.239 -23.184  0.00  0.00    +0.048 C 
ATOM     24  C   UNL     1      34.106 -18.562 -23.650  0.00  0.00    +0.014 C 
ATOM     25  C   UNL     1      34.664 -17.038 -21.861  0.00  0.00    +0.014 C 
ATOM     26  C   UNL     1      34.843 -19.422 -21.515  0.00  0.00    -0.013 C 
ATOM     27  C   UNL     1      34.412 -19.644 -22.824  0.00  0.00    -0.003 C 
ATOM     28  C   UNL     1      34.969 -18.119 -21.034  0.00  0.00    -0.003 C 
BRANCH  23  29
ATOM     29  N   UNL     1      33.920 -16.153 -24.014  0.00  0.00    -0.307 N 
ATOM     30  C   UNL     1      33.419 -13.932 -25.788  0.00  0.00    +0.004 C 
ATOM     31  C   UNL     1      33.255 -13.796 -24.280  0.00  0.00    +0.021 C 
ATOM     32  C   UNL     1      33.149 -15.369 -26.219  0.00  0.00    +0.021 C 
ATOM     33  C   UNL     1      34.141 -14.787 -23.524  0.00  0.00    +0.091 C 
ATOM     34  C   UNL     1      34.040 -16.354 -25.465  0.00  0.00    +0.091 C 
ENDBRANCH  23  29
ENDBRANCH  22  26
ENDBRANCH  12  22
TORSDOF 4
ENDMDL
MODEL 2
REMARK VINA RESULT:     -13.2      1.277      1.463
REMARK  Name = 10138993
REMARK  4 active torsions:
REMARK  status: ('A' for Active; 'I' for Inactive)
REMARK    1  A    between atoms: C_5  and  N_18
REMARK    2  A    between atoms: C_12  and  C_22
REMARK    3  A    between atoms: C_22  and  C_26
REMARK    4  A    between atoms: C_23  and  N_29
REMARK                            x       y       z     vdW  Elec       q    Type
REMARK                         _______ _______ _______ _____ _____    ______ ____
ROOT
ATOM      1  O   UNL     1      32.620 -21.075 -20.066  0.00  0.00    -0.274 OA
ATOM      2  N   UNL     1      31.467 -23.233 -16.648  0.00  0.00    -0.275 N 
ATOM      3  N   UNL     1      34.096 -22.038 -18.513  0.00  0.00    -0.268 N 
ATOM      4  N   UNL     1      31.909 -22.555 -17.720  0.00  0.00    -0.157 NA
ATOM      5  C   UNL     1      34.854 -24.435 -14.680  0.00  0.00    +0.069 C 
ATOM      6  C   UNL     1      34.873 -23.690 -15.865  0.00  0.00    +0.020 C 
ATOM      7  C   UNL     1      33.647 -24.815 -14.090  0.00  0.00    +0.018 C 
ATOM      8  C   UNL     1      33.649 -23.333 -16.454  0.00  0.00    +0.052 A 
ATOM      9  C   UNL     1      32.461 -23.726 -15.847  0.00  0.00    +0.077 A 
ATOM     10  C   UNL     1      32.419 -24.468 -14.664  0.00  0.00    +0.020 C 
ATOM     11  C   UNL     1      33.225 -22.626 -17.587  0.00  0.00    +0.155 A 
ATOM     12  C   UNL     1      33.749 -21.323 -19.656  0.00  0.00    +0.232 C 
ATOM     13  H   UNL     1      30.510 -23.365 -16.455  0.00  0.00    +0.189 HD
ATOM     14  H   UNL     1      35.059 -22.140 -18.336  0.00  0.00    +0.156 HD
ENDROOT
BRANCH   5  18
ATOM     15  S   UNL     1      36.305 -24.513 -12.351  0.00  0.00    +0.057 S 
ATOM     16  O   UNL     1      35.746 -23.223 -11.996  0.00  0.00    -0.154 OA
ATOM     17  O   UNL     1      35.993 -25.718 -11.612  0.00  0.00    -0.154 OA
ATOM     18  N   UNL     1      36.109 -24.814 -14.054  0.00  0.00    -0.194 N 
ATOM     19  C   UNL     1      38.080 -24.334 -12.453  0.00  0.00    +0.174 C 
ATOM     20  C   UNL     1      38.474 -25.012 -13.755  0.00  0.00    +0.051 C 
ATOM     21  C   UNL     1      37.402 -24.629 -14.772  0.00  0.00    +0.117 C 
ENDBRANCH   5  18
BRANCH  12  22
ATOM     22  C   UNL     1      34.996 -20.845 -20.397  0.00  0.00    +0.112 C 
BRANCH  22  26
ATOM     23  C   UNL     1      34.280 -17.555 -23.083  0.00  0.00    +0.048 C 
ATOM     24  C   UNL     1      34.130 -18.887 -23.515  0.00  0.00    +0.014 C 
ATOM     25  C   UNL     1      34.669 -17.328 -21.750  0.00  0.00    +0.014 C 
ATOM     26  C   UNL     1      34.748 -19.705 -21.327  0.00  0.00    -0.013 C 
ATOM     27  C   UNL     1      34.362 -19.953 -22.645  0.00  0.00    -0.003 C 
ATOM     28  C   UNL     1      34.901 -18.394 -20.880  0.00  0.00    -0.003 C 
BRANCH  23  29
ATOM     29  N   UNL     1      34.046 -16.485 -23.957  0.00  0.00    -0.307 N 
ATOM     30  C   UNL     1      33.701 -14.300 -25.811  0.00  0.00    +0.004 C 
ATOM     31  C   UNL     1      33.423 -14.130 -24.323  0.00  0.00    +0.021 C 
ATOM     32  C   UNL     1      33.452 -15.744 -26.231  0.00  0.00    +0.021 C 
ATOM     33  C   UNL     1      34.240 -15.110 -23.481  0.00  0.00    +0.091 C 
ATOM     34  C   UNL     1      34.274 -16.719 -25.390  0.00  0.00    +0.091 C 
ENDBRANCH  23  29
ENDBRANCH  22  26
ENDBRANCH  12  22
TORSDOF 4
ENDMDL
MODEL 3
REMARK VINA RESULT:     -12.0      4.925     12.341
REMARK  Name = 10138993
REMARK  4 active torsions:
REMARK  status: ('A' for Active; 'I' for Inactive)
REMARK    1  A    between atoms: C_5  and  N_18
REMARK    2  A    between atoms: C_12  and  C_22
REMARK    3  A    between atoms: C_22  and  C_26
REMARK    4  A    between atoms: C_23  and  N_29
REMARK                            x       y       z     vdW  Elec       q    Type
REMARK                         _______ _______ _______ _____ _____    ______ ____
ROOT
ATOM      1  O   UNL     1      34.674 -19.875 -24.280  0.00  0.00    -0.274 OA
ATOM      2  N   UNL     1      32.444 -17.542 -26.974  0.00  0.00    -0.275 N 
ATOM      3  N   UNL     1      34.465 -17.537 -24.192  0.00  0.00    -0.268 N 
ATOM      4  N   UNL     1      33.176 -18.223 -26.076  0.00  0.00    -0.157 NA
ATOM      5  C   UNL     1      32.793 -13.612 -25.868  0.00  0.00    +0.069 C 
ATOM      6  C   UNL     1      33.413 -14.665 -25.183  0.00  0.00    +0.020 C 
ATOM      7  C   UNL     1      32.003 -13.854 -26.994  0.00  0.00    +0.018 C 
ATOM      8  C   UNL     1      33.223 -15.975 -25.653  0.00  0.00    +0.052 A 
ATOM      9  C   UNL     1      32.431 -16.188 -26.775  0.00  0.00    +0.077 A 
ATOM     10  C   UNL     1      31.804 -15.153 -27.473  0.00  0.00    +0.020 C 
ATOM     11  C   UNL     1      33.637 -17.263 -25.288  0.00  0.00    +0.155 A 
ATOM     12  C   UNL     1      34.916 -18.786 -23.772  0.00  0.00    +0.232 C 
ATOM     13  H   UNL     1      31.958 -17.980 -27.709  0.00  0.00    +0.189 HD
ATOM     14  H   UNL     1      34.761 -16.764 -23.661  0.00  0.00    +0.156 HD
ENDROOT
BRANCH   5  18
ATOM     15  S   UNL     1      33.438 -11.035 -26.558  0.00  0.00    +0.057 S 
ATOM     16  O   UNL     1      34.425 -11.561 -27.480  0.00  0.00    -0.154 OA
ATOM     17  O   UNL     1      32.256 -10.333 -27.012  0.00  0.00    -0.154 OA
ATOM     18  N   UNL     1      32.976 -12.249 -25.400  0.00  0.00    -0.194 N 
ATOM     19  C   UNL     1      34.291 -10.025 -25.356  0.00  0.00    +0.174 C 
ATOM     20  C   UNL     1      33.741 -10.460 -24.008  0.00  0.00    +0.051 C 
ATOM     21  C   UNL     1      33.608 -11.979 -24.077  0.00  0.00    +0.117 C 
ENDBRANCH   5  18
BRANCH  12  22
ATOM     22  C   UNL     1      35.801 -18.655 -22.535  0.00  0.00    +0.112 C 
BRANCH  22  26
ATOM     23  C   UNL     1      34.656 -21.238 -19.283  0.00  0.00    +0.048 C 
ATOM     24  C   UNL     1      36.013 -20.994 -19.570  0.00  0.00    +0.014 C 
ATOM     25  C   UNL     1      33.684 -20.614 -20.089  0.00  0.00    +0.014 C 
ATOM     26  C   UNL     1      35.404 -19.549 -21.409  0.00  0.00    -0.013 C 
ATOM     27  C   UNL     1      36.384 -20.158 -20.623  0.00  0.00    -0.003 C 
ATOM     28  C   UNL     1      34.055 -19.778 -21.142  0.00  0.00    -0.003 C 
BRANCH  23  29
ATOM     29  N   UNL     1      34.284 -22.077 -18.225  0.00  0.00    -0.307 N 
ATOM     30  C   UNL     1      33.622 -23.901 -16.089  0.00  0.00    +0.004 C 
ATOM     31  C   UNL     1      32.556 -23.370 -17.038  0.00  0.00    +0.021 C 
ATOM     32  C   UNL     1      34.752 -22.888 -15.946  0.00  0.00    +0.021 C 
ATOM     33  C   UNL     1      33.147 -22.990 -18.395  0.00  0.00    +0.091 C 
ATOM     34  C   UNL     1      35.342 -22.516 -17.304  0.00  0.00    +0.091 C 
ENDBRANCH  23  29
ENDBRANCH  22  26
ENDBRANCH  12  22
TORSDOF 4
ENDMDL
MODEL 4
REMARK VINA RESULT:     -11.9      4.694     12.270
REMARK  Name = 10138993
REMARK  4 active torsions:
REMARK  status: ('A' for Active; 'I' for Inactive)
REMARK    1  A    between atoms: C_5  and  N_18
REMARK    2  A    between atoms: C_12  and  C_22
REMARK    3  A    between atoms: C_22  and  C_26
REMARK    4  A    between atoms: C_23  and  N_29
REMARK                            x       y       z     vdW  Elec       q    Type
REMARK                         _______ _______ _______ _____ _____    ______ ____
ROOT
ATOM      1  O   UNL     1      34.372 -19.791 -24.361  0.00  0.00    -0.274 OA
ATOM      2  N   UNL     1      32.144 -17.545 -27.128  0.00  0.00    -0.275 N 
ATOM      3  N   UNL     1      34.292 -17.445 -24.445  0.00  0.00    -0.268 N 
ATOM      4  N   UNL     1      32.880 -18.197 -26.213  0.00  0.00    -0.157 NA
ATOM      5  C   UNL     1      32.751 -13.569 -26.346  0.00  0.00    +0.069 C 
ATOM      6  C   UNL     1      33.347 -14.600 -25.610  0.00  0.00    +0.020 C 
ATOM      7  C   UNL     1      31.897 -13.850 -27.416  0.00  0.00    +0.018 C 
ATOM      8  C   UNL     1      33.066 -15.930 -25.967  0.00  0.00    +0.052 A 
ATOM      9  C   UNL     1      32.212 -16.181 -27.035  0.00  0.00    +0.077 A 
ATOM     10  C   UNL     1      31.608 -15.168 -27.783  0.00  0.00    +0.020 C 
ATOM     11  C   UNL     1      33.428 -17.208 -25.522  0.00  0.00    +0.155 A 
ATOM     12  C   UNL     1      34.695 -18.682 -23.949  0.00  0.00    +0.232 C 
ATOM     13  H   UNL     1      31.601 -18.009 -27.806  0.00  0.00    +0.189 HD
ATOM     14  H   UNL     1      34.652 -16.651 -23.989  0.00  0.00    +0.156 HD
ENDROOT
BRANCH   5  18
ATOM     15  S   UNL     1      33.154 -11.775 -24.308  0.00  0.00    +0.057 S 
ATOM     16  O   UNL     1      32.139 -12.469 -23.539  0.00  0.00    -0.154 OA
ATOM     17  O   UNL     1      34.548 -11.772 -23.919  0.00  0.00    -0.154 OA
ATOM     18  N   UNL     1      33.028 -12.187 -25.994  0.00  0.00    -0.194 N 
ATOM     19  C   UNL     1      32.609 -10.090 -24.544  0.00  0.00    +0.174 C 
ATOM     20  C   UNL     1      32.829  -9.803 -26.020  0.00  0.00    +0.051 C 
ATOM     21  C   UNL     1      32.410 -11.070 -26.763  0.00  0.00    +0.117 C 
ENDBRANCH   5  18
BRANCH  12  22
ATOM     22  C   UNL     1      35.644 -18.509 -22.765  0.00  0.00    +0.112 C 
BRANCH  22  26
ATOM     23  C   UNL     1      34.773 -21.099 -19.436  0.00  0.00    +0.048 C 
ATOM     24  C   UNL     1      33.741 -20.593 -20.248  0.00  0.00    +0.014 C 
ATOM     25  C   UNL     1      36.099 -20.735 -19.742  0.00  0.00    +0.014 C 
ATOM     26  C   UNL     1      35.343 -19.406 -21.612  0.00  0.00    -0.013 C 
ATOM     27  C   UNL     1      34.022 -19.754 -21.326  0.00  0.00    -0.003 C 
ATOM     28  C   UNL     1      36.380 -19.896 -20.820  0.00  0.00    -0.003 C 
BRANCH  23  29
ATOM     29  N   UNL     1      34.490 -21.942 -18.353  0.00  0.00    -0.307 N 
ATOM     30  C   UNL     1      34.013 -23.771 -16.172  0.00  0.00    +0.004 C 
ATOM     31  C   UNL     1      32.877 -23.278 -17.058  0.00  0.00    +0.021 C 
ATOM     32  C   UNL     1      35.118 -22.723 -16.102  0.00  0.00    +0.021 C 
ATOM     33  C   UNL     1      33.374 -22.890 -18.450  0.00  0.00    +0.091 C 
ATOM     34  C   UNL     1      35.615 -22.343 -17.495  0.00  0.00    +0.091 C 
ENDBRANCH  23  29
ENDBRANCH  22  26
ENDBRANCH  12  22
TORSDOF 4
ENDMDL
MODEL 5
REMARK VINA RESULT:     -11.6      7.705     13.050
REMARK  Name = 10138993
REMARK  4 active torsions:
REMARK  status: ('A' for Active; 'I' for Inactive)
REMARK    1  A    between atoms: C_5  and  N_18
REMARK    2  A    between atoms: C_12  and  C_22
REMARK    3  A    between atoms: C_22  and  C_26
REMARK    4  A    between atoms: C_23  and  N_29
REMARK                            x       y       z     vdW  Elec       q    Type
REMARK                         _______ _______ _______ _____ _____    ______ ____
ROOT
ATOM      1  O   UNL     1      34.183 -13.782 -28.133  0.00  0.00    -0.274 OA
ATOM      2  N   UNL     1      34.875  -9.981 -26.476  0.00  0.00    -0.275 N 
ATOM      3  N   UNL     1      33.139 -12.936 -26.206  0.00  0.00    -0.268 N 
ATOM      4  N   UNL     1      34.604 -11.209 -26.949  0.00  0.00    -0.157 NA
ATOM      5  C   UNL     1      32.524  -9.581 -23.143  0.00  0.00    +0.069 C 
ATOM      6  C   UNL     1      32.543 -10.732 -23.942  0.00  0.00    +0.020 C 
ATOM      7  C   UNL     1      33.329  -8.482 -23.449  0.00  0.00    +0.018 C 
ATOM      8  C   UNL     1      33.389 -10.758 -25.063  0.00  0.00    +0.052 A 
ATOM      9  C   UNL     1      34.179  -9.649 -25.345  0.00  0.00    +0.077 A 
ATOM     10  C   UNL     1      34.177  -8.492 -24.562  0.00  0.00    +0.020 C 
ATOM     11  C   UNL     1      33.707 -11.662 -26.085  0.00  0.00    +0.155 A 
ATOM     12  C   UNL     1      33.405 -13.884 -27.190  0.00  0.00    +0.232 C 
ATOM     13  H   UNL     1      35.518  -9.372 -26.906  0.00  0.00    +0.189 HD
ATOM     14  H   UNL     1      32.481 -13.190 -25.520  0.00  0.00    +0.156 HD
ENDROOT
BRANCH   5  18
ATOM     15  S   UNL     1      31.849  -8.213 -20.862  0.00  0.00    +0.057 S 
ATOM     16  O   UNL     1      33.254  -7.921 -20.658  0.00  0.00    -0.154 OA
ATOM     17  O   UNL     1      30.884  -7.180 -21.170  0.00  0.00    -0.154 OA
ATOM     18  N   UNL     1      31.657  -9.533 -21.979  0.00  0.00    -0.194 N 
ATOM     19  C   UNL     1      31.273  -9.149 -19.453  0.00  0.00    +0.174 C 
ATOM     20  C   UNL     1      30.492 -10.313 -20.041  0.00  0.00    +0.051 C 
ATOM     21  C   UNL     1      31.287 -10.783 -21.257  0.00  0.00    +0.117 C 
ENDBRANCH   5  18
BRANCH  12  22
ATOM     22  C   UNL     1      32.579 -15.148 -26.965  0.00  0.00    +0.112 C 
BRANCH  22  26
ATOM     23  C   UNL     1      34.010 -17.617 -23.738  0.00  0.00    +0.048 C 
ATOM     24  C   UNL     1      34.131 -16.215 -23.685  0.00  0.00    +0.014 C 
ATOM     25  C   UNL     1      33.408 -18.190 -24.875  0.00  0.00    +0.014 C 
ATOM     26  C   UNL     1      33.074 -16.004 -25.847  0.00  0.00    -0.013 C 
ATOM     27  C   UNL     1      33.668 -15.415 -24.730  0.00  0.00    -0.003 C 
ATOM     28  C   UNL     1      32.945 -17.390 -25.920  0.00  0.00    -0.003 C 
BRANCH  23  29
ATOM     29  N   UNL     1      34.475 -18.420 -22.688  0.00  0.00    -0.307 N 
ATOM     30  C   UNL     1      35.504 -20.157 -20.625  0.00  0.00    +0.004 C 
ATOM     31  C   UNL     1      34.017 -19.838 -20.727  0.00  0.00    +0.021 C 
ATOM     32  C   UNL     1      36.329 -18.997 -21.171  0.00  0.00    +0.021 C 
ATOM     33  C   UNL     1      33.613 -19.483 -22.158  0.00  0.00    +0.091 C 
ATOM     34  C   UNL     1      35.924 -18.650 -22.602  0.00  0.00    +0.091 C 
ENDBRANCH  23  29
ENDBRANCH  22  26
ENDBRANCH  12  22
TORSDOF 4
ENDMDL
MODEL 6
REMARK VINA RESULT:     -11.2      5.356     12.828
REMARK  Name = 10138993
REMARK  4 active torsions:
REMARK  status: ('A' for Active; 'I' for Inactive)
REMARK    1  A    between atoms: C_5  and  N_18
REMARK    2  A    between atoms: C_12  and  C_22
REMARK    3  A    between atoms: C_22  and  C_26
REMARK    4  A    between atoms: C_23  and  N_29
REMARK                            x       y       z     vdW  Elec       q    Type
REMARK                         _______ _______ _______ _____ _____    ______ ____
ROOT
ATOM      1  O   UNL     1      33.927 -18.226 -25.116  0.00  0.00    -0.274 OA
ATOM      2  N   UNL     1      31.743 -15.486 -27.438  0.00  0.00    -0.275 N 
ATOM      3  N   UNL     1      34.084 -15.888 -24.952  0.00  0.00    -0.268 N 
ATOM      4  N   UNL     1      32.474 -16.302 -26.661  0.00  0.00    -0.157 NA
ATOM      5  C   UNL     1      32.816 -11.696 -26.308  0.00  0.00    +0.069 C 
ATOM      6  C   UNL     1      33.355 -12.855 -25.735  0.00  0.00    +0.020 C 
ATOM      7  C   UNL     1      31.861 -11.775 -27.324  0.00  0.00    +0.018 C 
ATOM      8  C   UNL     1      32.912 -14.104 -26.201  0.00  0.00    +0.052 A 
ATOM      9  C   UNL     1      31.959 -14.154 -27.212  0.00  0.00    +0.077 A 
ATOM     10  C   UNL     1      31.409 -13.011 -27.798  0.00  0.00    +0.020 C 
ATOM     11  C   UNL     1      33.172 -15.452 -25.922  0.00  0.00    +0.155 A 
ATOM     12  C   UNL     1      34.393 -17.205 -24.622  0.00  0.00    +0.232 C 
ATOM     13  H   UNL     1      31.105 -15.818 -28.111  0.00  0.00    +0.189 HD
ATOM     14  H   UNL     1      34.558 -15.187 -24.450  0.00  0.00    +0.156 HD
ENDROOT
BRANCH   5  18
ATOM     15  S   UNL     1      33.624 -10.205 -24.150  0.00  0.00    +0.057 S 
ATOM     16  O   UNL     1      32.649 -10.907 -23.339  0.00  0.00    -0.154 OA
ATOM     17  O   UNL     1      35.050 -10.359 -23.947  0.00  0.00    -0.154 OA
ATOM     18  N   UNL     1      33.261 -10.395 -25.841  0.00  0.00    -0.194 N 
ATOM     19  C   UNL     1      33.215  -8.467 -24.122  0.00  0.00    +0.174 C 
ATOM     20  C   UNL     1      33.283  -8.018 -25.572  0.00  0.00    +0.051 C 
ATOM     21  C   UNL     1      32.662  -9.146 -26.392  0.00  0.00    +0.117 C 
ENDBRANCH   5  18
BRANCH  12  22
ATOM     22  C   UNL     1      35.441 -17.254 -23.512  0.00  0.00    +0.112 C 
BRANCH  22  26
ATOM     23  C   UNL     1      34.627 -20.196 -20.472  0.00  0.00    +0.048 C 
ATOM     24  C   UNL     1      33.610 -19.750 -21.339  0.00  0.00    +0.014 C 
ATOM     25  C   UNL     1      35.917 -19.654 -20.628  0.00  0.00    +0.014 C 
ATOM     26  C   UNL     1      35.159 -18.273 -22.459  0.00  0.00    -0.013 C 
ATOM     27  C   UNL     1      33.873 -18.797 -22.323  0.00  0.00    -0.003 C 
ATOM     28  C   UNL     1      36.180 -18.701 -21.612  0.00  0.00    -0.003 C 
BRANCH  23  29
ATOM     29  N   UNL     1      34.362 -21.153 -19.484  0.00  0.00    -0.307 N 
ATOM     30  C   UNL     1      33.907 -23.218 -17.520  0.00  0.00    +0.004 C 
ATOM     31  C   UNL     1      32.748 -22.500 -18.201  0.00  0.00    +0.021 C 
ATOM     32  C   UNL     1      35.120 -22.299 -17.439  0.00  0.00    +0.021 C 
ATOM     33  C   UNL     1      33.145 -21.968 -19.578  0.00  0.00    +0.091 C 
ATOM     34  C   UNL     1      35.515 -21.774 -18.817  0.00  0.00    +0.091 C 
ENDBRANCH  23  29
ENDBRANCH  22  26
ENDBRANCH  12  22
TORSDOF 4
ENDMDL
MODEL 7
REMARK VINA RESULT:     -10.8      7.620     14.794
REMARK  Name = 10138993
REMARK  4 active torsions:
REMARK  status: ('A' for Active; 'I' for Inactive)
REMARK    1  A    between atoms: C_5  and  N_18
REMARK    2  A    between atoms: C_12  and  C_22
REMARK    3  A    between atoms: C_22  and  C_26
REMARK    4  A    between atoms: C_23  and  N_29
REMARK                            x       y       z     vdW  Elec       q    Type
REMARK                         _______ _______ _______ _____ _____    ______ ____
ROOT
ATOM      1  O   UNL     1      32.365 -13.317 -21.809  0.00  0.00    -0.274 OA
ATOM      2  N   UNL     1      30.595  -9.507 -21.956  0.00  0.00    -0.275 N 
ATOM      3  N   UNL     1      32.994 -11.590 -23.271  0.00  0.00    -0.268 N 
ATOM      4  N   UNL     1      31.207 -10.703 -21.966  0.00  0.00    -0.157 NA
ATOM      5  C   UNL     1      32.478  -7.325 -24.869  0.00  0.00    +0.069 C 
ATOM      6  C   UNL     1      32.819  -8.645 -24.552  0.00  0.00    +0.020 C 
ATOM      7  C   UNL     1      31.450  -6.666 -24.191  0.00  0.00    +0.018 C 
ATOM      8  C   UNL     1      32.104  -9.298 -23.533  0.00  0.00    +0.052 A 
ATOM      9  C   UNL     1      31.086  -8.618 -22.874  0.00  0.00    +0.077 A 
ATOM     10  C   UNL     1      30.729  -7.301 -23.174  0.00  0.00    +0.020 C 
ATOM     11  C   UNL     1      32.114 -10.558 -22.921  0.00  0.00    +0.155 A 
ATOM     12  C   UNL     1      33.061 -12.863 -22.710  0.00  0.00    +0.232 C 
ATOM     13  H   UNL     1      29.857  -9.289 -21.342  0.00  0.00    +0.189 HD
ATOM     14  H   UNL     1      33.635 -11.395 -23.991  0.00  0.00    +0.156 HD
ENDROOT
BRANCH   5  18
ATOM     15  S   UNL     1      32.301  -6.000 -27.266  0.00  0.00    +0.057 S 
ATOM     16  O   UNL     1      31.273  -6.937 -27.673  0.00  0.00    -0.154 OA
ATOM     17  O   UNL     1      32.020  -4.598 -27.038  0.00  0.00    -0.154 OA
ATOM     18  N   UNL     1      33.204  -6.632 -25.919  0.00  0.00    -0.194 N 
ATOM     19  C   UNL     1      33.662  -6.143 -28.414  0.00  0.00    +0.174 C 
ATOM     20  C   UNL     1      34.908  -6.224 -27.548  0.00  0.00    +0.051 C 
ATOM     21  C   UNL     1      34.541  -7.117 -26.365  0.00  0.00    +0.117 C 
ENDBRANCH   5  18
BRANCH  12  22
ATOM     22  C   UNL     1      34.158 -13.692 -23.374  0.00  0.00    +0.112 C 
BRANCH  22  26
ATOM     23  C   UNL     1      34.729 -17.575 -21.600  0.00  0.00    +0.048 C 
ATOM     24  C   UNL     1      34.726 -16.411 -20.808  0.00  0.00    +0.014 C 
ATOM     25  C   UNL     1      34.540 -17.434 -22.988  0.00  0.00    +0.014 C 
ATOM     26  C   UNL     1      34.356 -15.037 -22.760  0.00  0.00    -0.013 C 
ATOM     27  C   UNL     1      34.541 -15.153 -21.382  0.00  0.00    -0.003 C 
ATOM     28  C   UNL     1      34.356 -16.177 -23.563  0.00  0.00    -0.003 C 
BRANCH  23  29
ATOM     29  N   UNL     1      34.914 -18.838 -21.023  0.00  0.00    -0.307 N 
ATOM     30  C   UNL     1      35.365 -21.483 -19.958  0.00  0.00    +0.004 C 
ATOM     31  C   UNL     1      33.976 -20.858 -19.970  0.00  0.00    +0.021 C 
ATOM     32  C   UNL     1      36.430 -20.396 -19.863  0.00  0.00    +0.021 C 
ATOM     33  C   UNL     1      33.831 -19.826 -21.089  0.00  0.00    +0.091 C 
ATOM     34  C   UNL     1      36.283 -19.372 -20.986  0.00  0.00    +0.091 C 
ENDBRANCH  23  29
ENDBRANCH  22  26
ENDBRANCH  12  22
TORSDOF 4
ENDMDL
MODEL 8
REMARK VINA RESULT:     -10.8      6.988     10.889
REMARK  Name = 10138993
REMARK  4 active torsions:
REMARK  status: ('A' for Active; 'I' for Inactive)
REMARK    1  A    between atoms: C_5  and  N_18
REMARK    2  A    between atoms: C_12  and  C_22
REMARK    3  A    between atoms: C_22  and  C_26
REMARK    4  A    between atoms: C_23  and  N_29
REMARK                            x       y       z     vdW  Elec       q    Type
REMARK                         _______ _______ _______ _____ _____    ______ ____
ROOT
ATOM      1  O   UNL     1      32.709 -11.919 -28.128  0.00  0.00    -0.274 OA
ATOM      2  N   UNL     1      31.284 -15.856 -27.752  0.00  0.00    -0.275 N 
ATOM      3  N   UNL     1      33.460 -13.484 -26.544  0.00  0.00    -0.268 N 
ATOM      4  N   UNL     1      31.787 -14.612 -27.814  0.00  0.00    -0.157 NA
ATOM      5  C   UNL     1      33.294 -17.665 -24.673  0.00  0.00    +0.069 C 
ATOM      6  C   UNL     1      33.522 -16.342 -25.073  0.00  0.00    +0.020 C 
ATOM      7  C   UNL     1      32.343 -18.457 -25.320  0.00  0.00    +0.018 C 
ATOM      8  C   UNL     1      32.773 -15.825 -26.143  0.00  0.00    +0.052 A 
ATOM      9  C   UNL     1      31.834 -16.636 -26.770  0.00  0.00    +0.077 A 
ATOM     10  C   UNL     1      31.590 -17.957 -26.388  0.00  0.00    +0.020 C 
ATOM     11  C   UNL     1      32.683 -14.612 -26.837  0.00  0.00    +0.155 A 
ATOM     12  C   UNL     1      33.424 -12.250 -27.188  0.00  0.00    +0.232 C 
ATOM     13  H   UNL     1      30.582 -16.180 -28.361  0.00  0.00    +0.189 HD
ATOM     14  H   UNL     1      34.101 -13.573 -25.803  0.00  0.00    +0.156 HD
ENDROOT
BRANCH   5  18
ATOM     15  S   UNL     1      35.042 -17.141 -22.623  0.00  0.00    +0.057 S 
ATOM     16  O   UNL     1      35.711 -16.181 -23.479  0.00  0.00    -0.154 OA
ATOM     17  O   UNL     1      34.311 -16.739 -21.439  0.00  0.00    -0.154 OA
ATOM     18  N   UNL     1      34.057 -18.220 -23.568  0.00  0.00    -0.194 N 
ATOM     19  C   UNL     1      36.227 -18.401 -22.178  0.00  0.00    +0.174 C 
ATOM     20  C   UNL     1      35.507 -19.721 -22.400  0.00  0.00    +0.051 C 
ATOM     21  C   UNL     1      34.709 -19.554 -23.691  0.00  0.00    +0.117 C 
ENDBRANCH   5  18
BRANCH  12  22
ATOM     22  C   UNL     1      34.429 -11.283 -26.565  0.00  0.00    +0.112 C 
BRANCH  22  26
ATOM     23  C   UNL     1      32.983  -9.293 -23.029  0.00  0.00    +0.048 C 
ATOM     24  C   UNL     1      33.890  -8.656 -23.898  0.00  0.00    +0.014 C 
ATOM     25  C   UNL     1      32.562 -10.598 -23.348  0.00  0.00    +0.014 C 
ATOM     26  C   UNL     1      33.928 -10.595 -25.341  0.00  0.00    -0.013 C 
ATOM     27  C   UNL     1      34.359  -9.301 -25.043  0.00  0.00    -0.003 C 
ATOM     28  C   UNL     1      33.030 -11.242 -24.493  0.00  0.00    -0.003 C 
BRANCH  23  29
ATOM     29  N   UNL     1      32.513  -8.645 -21.880  0.00  0.00    -0.307 N 
ATOM     30  C   UNL     1      31.408  -7.306 -19.574  0.00  0.00    +0.004 C 
ATOM     31  C   UNL     1      32.661  -6.789 -20.268  0.00  0.00    +0.021 C 
ATOM     32  C   UNL     1      31.300  -8.817 -19.741  0.00  0.00    +0.021 C 
ATOM     33  C   UNL     1      32.700  -7.196 -21.741  0.00  0.00    +0.091 C 
ATOM     34  C   UNL     1      31.334  -9.218 -21.214  0.00  0.00    +0.091 C 
ENDBRANCH  23  29
ENDBRANCH  22  26
ENDBRANCH  12  22
TORSDOF 4
ENDMDL
MODEL 9
REMARK VINA RESULT:     -10.7      3.347      5.096
REMARK  Name = 10138993
REMARK  4 active torsions:
REMARK  status: ('A' for Active; 'I' for Inactive)
REMARK    1  A    between atoms: C_5  and  N_18
REMARK    2  A    between atoms: C_12  and  C_22
REMARK    3  A    between atoms: C_22  and  C_26
REMARK    4  A    between atoms: C_23  and  N_29
REMARK                            x       y       z     vdW  Elec       q    Type
REMARK                         _______ _______ _______ _____ _____    ______ ____
ROOT
ATOM      1  O   UNL     1      36.824 -22.170 -18.157  0.00  0.00    -0.274 OA
ATOM      2  N   UNL     1      34.922 -22.956 -14.491  0.00  0.00    -0.275 N 
ATOM      3  N   UNL     1      34.516 -22.506 -17.876  0.00  0.00    -0.268 N 
ATOM      4  N   UNL     1      35.461 -22.708 -15.697  0.00  0.00    -0.157 NA
ATOM      5  C   UNL     1      30.904 -23.368 -15.188  0.00  0.00    +0.069 C 
ATOM      6  C   UNL     1      31.839 -23.099 -16.195  0.00  0.00    +0.020 C 
ATOM      7  C   UNL     1      31.304 -23.514 -13.858  0.00  0.00    +0.018 C 
ATOM      8  C   UNL     1      33.193 -22.978 -15.841  0.00  0.00    +0.052 A 
ATOM      9  C   UNL     1      33.564 -23.127 -14.509  0.00  0.00    +0.077 A 
ATOM     10  C   UNL     1      32.648 -23.396 -13.488  0.00  0.00    +0.020 C 
ATOM     11  C   UNL     1      34.405 -22.725 -16.497  0.00  0.00    +0.155 A 
ATOM     12  C   UNL     1      35.681 -22.251 -18.594  0.00  0.00    +0.232 C 
ATOM     13  H   UNL     1      35.457 -23.007 -13.667  0.00  0.00    +0.189 HD
ATOM     14  H   UNL     1      33.680 -22.536 -18.394  0.00  0.00    +0.156 HD
ENDROOT
BRANCH   5  18
ATOM     15  S   UNL     1      28.822 -25.097 -15.644  0.00  0.00    +0.057 S 
ATOM     16  O   UNL     1      29.754 -25.999 -16.292  0.00  0.00    -0.154 OA
ATOM     17  O   UNL     1      28.171 -25.429 -14.395  0.00  0.00    -0.154 OA
ATOM     18  N   UNL     1      29.499 -23.498 -15.533  0.00  0.00    -0.194 N 
ATOM     19  C   UNL     1      27.583 -24.631 -16.843  0.00  0.00    +0.174 C 
ATOM     20  C   UNL     1      27.458 -23.122 -16.721  0.00  0.00    +0.051 C 
ATOM     21  C   UNL     1      28.879 -22.594 -16.543  0.00  0.00    +0.117 C 
ENDBRANCH   5  18
BRANCH  12  22
ATOM     22  C   UNL     1      35.375 -22.071 -20.079  0.00  0.00    +0.112 C 
BRANCH  22  26
ATOM     23  C   UNL     1      34.766 -17.972 -21.255  0.00  0.00    +0.048 C 
ATOM     24  C   UNL     1      36.062 -18.477 -21.036  0.00  0.00    +0.014 C 
ATOM     25  C   UNL     1      33.674 -18.845 -21.080  0.00  0.00    +0.014 C 
ATOM     26  C   UNL     1      35.163 -20.652 -20.487  0.00  0.00    -0.013 C 
ATOM     27  C   UNL     1      36.259 -19.805 -20.655  0.00  0.00    -0.003 C 
ATOM     28  C   UNL     1      33.872 -20.172 -20.699  0.00  0.00    -0.003 C 
BRANCH  23  29
ATOM     29  N   UNL     1      34.567 -16.640 -21.638  0.00  0.00    -0.307 N 
ATOM     30  C   UNL     1      34.302 -13.887 -22.466  0.00  0.00    +0.004 C 
ATOM     31  C   UNL     1      33.839 -14.351 -21.091  0.00  0.00    +0.021 C 
ATOM     32  C   UNL     1      34.201 -15.031 -23.468  0.00  0.00    +0.021 C 
ATOM     33  C   UNL     1      34.612 -15.583 -20.621  0.00  0.00    +0.091 C 
ATOM     34  C   UNL     1      34.980 -16.257 -22.996  0.00  0.00    +0.091 C 
ENDBRANCH  23  29
ENDBRANCH  22  26
ENDBRANCH  12  22
TORSDOF 4
ENDMDL
