MODEL 1
REMARK VINA RESULT:     -12.8      0.000      0.000
REMARK  Name = 24963046
REMARK  6 active torsions:
REMARK  status: ('A' for Active; 'I' for Inactive)
REMARK    1  A    between atoms: N_1  and  C_27
REMARK    2  A    between atoms: C_4  and  C_16
REMARK    3  A    between atoms: C_13  and  C_22
REMARK    4  A    between atoms: N_21  and  C_24
REMARK    5  A    between atoms: C_27  and  C_28
REMARK    6  A    between atoms: C_28  and  N_30
REMARK                            x       y       z     vdW  Elec       q    Type
REMARK                         _______ _______ _______ _____ _____    ______ ____
ROOT
ATOM      1  N   UNL     1      35.496 -22.420 -17.289  0.00  0.00    -0.270 N 
ATOM      2  N   UNL     1      36.000 -20.959 -19.025  0.00  0.00    -0.338 NA
ATOM      3  N   UNL     1      33.806 -21.931 -18.801  0.00  0.00    -0.170 NA
ATOM      4  C   UNL     1      34.792 -18.896 -22.439  0.00  0.00    -0.000 C 
ATOM      5  C   UNL     1      33.889 -19.718 -21.771  0.00  0.00    +0.004 C 
ATOM      6  C   UNL     1      34.293 -20.416 -20.620  0.00  0.00    +0.050 C 
ATOM      7  C   UNL     1      35.080 -21.741 -18.422  0.00  0.00    +0.145 C 
ATOM      8  C   UNL     1      36.091 -18.770 -21.958  0.00  0.00    +0.003 C 
ATOM      9  C   UNL     1      35.603 -20.297 -20.125  0.00  0.00    +0.146 C 
ATOM     10  C   UNL     1      36.484 -19.467 -20.813  0.00  0.00    +0.033 C 
ATOM     11  C   UNL     1      33.441 -21.253 -19.906  0.00  0.00    +0.114 C 
ATOM     12  H   UNL     1      34.844 -22.998 -16.829  0.00  0.00    +0.159 HD
ENDROOT
BRANCH   4  16
ATOM     13  C   UNL     1      33.709 -16.100 -24.658  0.00  0.00    +0.053 C 
ATOM     14  C   UNL     1      34.106 -16.813 -23.528  0.00  0.00    +0.004 C 
ATOM     15  C   UNL     1      33.587 -16.749 -25.886  0.00  0.00    +0.004 C 
ATOM     16  C   UNL     1      34.381 -18.177 -23.625  0.00  0.00    -0.004 C 
ATOM     17  C   UNL     1      34.259 -18.827 -24.854  0.00  0.00    -0.022 C 
ATOM     18  C   UNL     1      33.862 -18.113 -25.984  0.00  0.00    -0.004 C 
ATOM     19  C   UNL     1      34.546 -20.288 -24.997  0.00  0.00    +0.031 C 
BRANCH  13  22
ATOM     20  O   UNL     1      33.521 -14.086 -23.468  0.00  0.00    -0.270 OA
ATOM     21  N   UNL     1      33.015 -14.025 -25.728  0.00  0.00    -0.302 N 
ATOM     22  C   UNL     1      33.422 -14.677 -24.558  0.00  0.00    +0.246 C 
ATOM     23  H   UNL     1      32.956 -14.550 -26.560  0.00  0.00    +0.150 HD
BRANCH  21  24
ATOM     24  C   UNL     1      32.678 -12.629 -25.778  0.00  0.00    +0.072 C 
ATOM     25  C   UNL     1      33.671 -11.606 -26.246  0.00  0.00    +0.021 C 
ATOM     26  C   UNL     1      32.470 -11.927 -27.086  0.00  0.00    +0.021 C 
ENDBRANCH  21  24
ENDBRANCH  13  22
ENDBRANCH   4  16
BRANCH   1  27
ATOM     27  C   UNL     1      36.829 -22.330 -16.744  0.00  0.00    +0.075 C 
BRANCH  27  28
ATOM     28  C   UNL     1      36.854 -22.936 -15.347  0.00  0.00    -0.055 C 
BRANCH  28  30
ATOM     29  O   UNL     1      37.547 -26.926 -14.242  0.00  0.00    -0.358 OA
ATOM     30  N   UNL     1      37.190 -24.357 -15.415  0.00  0.00    +0.391 N 
ATOM     31  C   UNL     1      36.043 -25.184 -15.012  0.00  0.00    -0.045 C 
ATOM     32  C   UNL     1      38.352 -24.660 -14.569  0.00  0.00    -0.045 C 
ATOM     33  C   UNL     1      36.421 -26.661 -15.080  0.00  0.00    +0.119 C 
ATOM     34  C   UNL     1      38.676 -26.150 -14.648  0.00  0.00    +0.119 C 
ATOM     35  H   UNL     1      37.424 -24.576 -16.384  0.00  0.00    -0.079 HD
ENDBRANCH  28  30
ENDBRANCH  27  28
ENDBRANCH   1  27
TORSDOF 6
ENDMDL
MODEL 2
REMARK VINA RESULT:     -12.3      3.140     11.457
REMARK  Name = 24963046
REMARK  6 active torsions:
REMARK  status: ('A' for Active; 'I' for Inactive)
REMARK    1  A    between atoms: N_1  and  C_27
REMARK    2  A    between atoms: C_4  and  C_16
REMARK    3  A    between atoms: C_13  and  C_22
REMARK    4  A    between atoms: N_21  and  C_24
REMARK    5  A    between atoms: C_27  and  C_28
REMARK    6  A    between atoms: C_28  and  N_30
REMARK                            x       y       z     vdW  Elec       q    Type
REMARK                         _______ _______ _______ _____ _____    ______ ____
ROOT
ATOM      1  N   UNL     1      32.643 -15.509 -27.635  0.00  0.00    -0.270 N 
ATOM      2  N   UNL     1      33.683 -15.916 -25.597  0.00  0.00    -0.338 NA
ATOM      3  N   UNL     1      32.485 -17.652 -26.763  0.00  0.00    -0.170 NA
ATOM      4  C   UNL     1      34.627 -18.565 -22.520  0.00  0.00    -0.000 C 
ATOM      5  C   UNL     1      33.874 -19.004 -23.605  0.00  0.00    +0.004 C 
ATOM      6  C   UNL     1      33.553 -18.113 -24.644  0.00  0.00    +0.050 C 
ATOM      7  C   UNL     1      32.949 -16.401 -26.620  0.00  0.00    +0.145 C 
ATOM      8  C   UNL     1      35.059 -17.244 -22.474  0.00  0.00    +0.003 C 
ATOM      9  C   UNL     1      33.983 -16.776 -24.608  0.00  0.00    +0.146 C 
ATOM     10  C   UNL     1      34.736 -16.365 -23.512  0.00  0.00    +0.033 C 
ATOM     11  C   UNL     1      32.804 -18.488 -25.755  0.00  0.00    +0.114 C 
ATOM     12  H   UNL     1      32.110 -15.836 -28.395  0.00  0.00    +0.159 HD
ENDROOT
BRANCH   4  16
ATOM     13  C   UNL     1      34.227 -21.044 -19.761  0.00  0.00    +0.053 C 
ATOM     14  C   UNL     1      33.931 -20.158 -20.797  0.00  0.00    +0.004 C 
ATOM     15  C   UNL     1      35.551 -21.249 -19.376  0.00  0.00    +0.004 C 
ATOM     16  C   UNL     1      34.959 -19.477 -21.448  0.00  0.00    -0.004 C 
ATOM     17  C   UNL     1      36.284 -19.683 -21.062  0.00  0.00    -0.022 C 
ATOM     18  C   UNL     1      36.580 -20.569 -20.027  0.00  0.00    -0.004 C 
ATOM     19  C   UNL     1      37.414 -18.971 -21.737  0.00  0.00    +0.031 C 
BRANCH  13  22
ATOM     20  O   UNL     1      31.964 -21.499 -19.336  0.00  0.00    -0.270 OA
ATOM     21  N   UNL     1      33.527 -22.709 -18.127  0.00  0.00    -0.302 N 
ATOM     22  C   UNL     1      33.154 -21.754 -19.081  0.00  0.00    +0.246 C 
ATOM     23  H   UNL     1      34.488 -22.864 -17.971  0.00  0.00    +0.150 HD
BRANCH  21  24
ATOM     24  C   UNL     1      32.580 -23.473 -17.363  0.00  0.00    +0.072 C 
ATOM     25  C   UNL     1      32.656 -23.531 -15.866  0.00  0.00    +0.021 C 
ATOM     26  C   UNL     1      31.529 -22.798 -16.533  0.00  0.00    +0.021 C 
ENDBRANCH  21  24
ENDBRANCH  13  22
ENDBRANCH   4  16
BRANCH   1  27
ATOM     27  C   UNL     1      33.063 -14.128 -27.643  0.00  0.00    +0.075 C 
BRANCH  27  28
ATOM     28  C   UNL     1      31.999 -13.266 -26.974  0.00  0.00    -0.055 C 
BRANCH  28  30
ATOM     29  O   UNL     1      34.794 -10.874 -24.953  0.00  0.00    -0.358 OA
ATOM     30  N   UNL     1      32.619 -12.133 -26.290  0.00  0.00    +0.391 N 
ATOM     31  C   UNL     1      33.806 -11.667 -27.023  0.00  0.00    -0.045 C 
ATOM     32  C   UNL     1      32.986 -12.491 -24.913  0.00  0.00    -0.045 C 
ATOM     33  C   UNL     1      34.442 -10.494 -26.284  0.00  0.00    +0.119 C 
ATOM     34  C   UNL     1      33.641 -11.297 -24.224  0.00  0.00    +0.119 C 
ATOM     35  H   UNL     1      31.937 -11.375 -26.260  0.00  0.00    -0.079 HD
ENDBRANCH  28  30
ENDBRANCH  27  28
ENDBRANCH   1  27
TORSDOF 6
ENDMDL
MODEL 3
REMARK VINA RESULT:     -12.1      1.561      1.883
REMARK  Name = 24963046
REMARK  6 active torsions:
REMARK  status: ('A' for Active; 'I' for Inactive)
REMARK    1  A    between atoms: N_1  and  C_27
REMARK    2  A    between atoms: C_4  and  C_16
REMARK    3  A    between atoms: C_13  and  C_22
REMARK    4  A    between atoms: N_21  and  C_24
REMARK    5  A    between atoms: C_27  and  C_28
REMARK    6  A    between atoms: C_28  and  N_30
REMARK                            x       y       z     vdW  Elec       q    Type
REMARK                         _______ _______ _______ _____ _____    ______ ____
ROOT
ATOM      1  N   UNL     1      33.695 -23.449 -16.901  0.00  0.00    -0.270 N 
ATOM      2  N   UNL     1      34.784 -22.065 -18.418  0.00  0.00    -0.338 NA
ATOM      3  N   UNL     1      32.384 -22.280 -18.416  0.00  0.00    -0.170 NA
ATOM      4  C   UNL     1      34.592 -19.382 -21.601  0.00  0.00    -0.000 C 
ATOM      5  C   UNL     1      33.420 -19.926 -21.082  0.00  0.00    +0.004 C 
ATOM      6  C   UNL     1      33.482 -20.831 -20.009  0.00  0.00    +0.050 C 
ATOM      7  C   UNL     1      33.615 -22.559 -17.959  0.00  0.00    +0.145 C 
ATOM      8  C   UNL     1      35.817 -19.740 -21.050  0.00  0.00    +0.003 C 
ATOM      9  C   UNL     1      34.714 -21.201 -19.444  0.00  0.00    +0.146 C 
ATOM     10  C   UNL     1      35.869 -20.641 -19.983  0.00  0.00    +0.033 C 
ATOM     11  C   UNL     1      32.349 -21.410 -19.444  0.00  0.00    +0.114 C 
ATOM     12  H   UNL     1      32.856 -23.824 -16.546  0.00  0.00    +0.159 HD
ENDROOT
BRANCH   4  16
ATOM     13  C   UNL     1      34.349 -16.172 -23.486  0.00  0.00    +0.053 C 
ATOM     14  C   UNL     1      34.407 -17.088 -22.437  0.00  0.00    +0.004 C 
ATOM     15  C   UNL     1      34.419 -16.617 -24.806  0.00  0.00    +0.004 C 
ATOM     16  C   UNL     1      34.534 -18.451 -22.706  0.00  0.00    -0.004 C 
ATOM     17  C   UNL     1      34.603 -18.896 -24.027  0.00  0.00    -0.022 C 
ATOM     18  C   UNL     1      34.547 -17.980 -25.077  0.00  0.00    -0.004 C 
ATOM     19  C   UNL     1      34.740 -20.349 -24.355  0.00  0.00    +0.031 C 
BRANCH  13  22
ATOM     20  O   UNL     1      34.783 -14.243 -22.221  0.00  0.00    -0.270 OA
ATOM     21  N   UNL     1      33.416 -14.001 -24.076  0.00  0.00    -0.302 N 
ATOM     22  C   UNL     1      34.217 -14.751 -23.206  0.00  0.00    +0.246 C 
ATOM     23  H   UNL     1      32.995 -14.462 -24.838  0.00  0.00    +0.150 HD
BRANCH  21  24
ATOM     24  C   UNL     1      33.176 -12.594 -23.914  0.00  0.00    +0.072 C 
ATOM     25  C   UNL     1      34.232 -11.582 -24.249  0.00  0.00    +0.021 C 
ATOM     26  C   UNL     1      33.001 -11.694 -25.101  0.00  0.00    +0.021 C 
ENDBRANCH  21  24
ENDBRANCH  13  22
ENDBRANCH   4  16
BRANCH   1  27
ATOM     27  C   UNL     1      34.936 -23.858 -16.289  0.00  0.00    +0.075 C 
BRANCH  27  28
ATOM     28  C   UNL     1      34.646 -24.731 -15.075  0.00  0.00    -0.055 C 
BRANCH  28  30
ATOM     29  O   UNL     1      37.235 -25.690 -11.913  0.00  0.00    -0.358 OA
ATOM     30  N   UNL     1      35.769 -24.693 -14.140  0.00  0.00    +0.391 N 
ATOM     31  C   UNL     1      36.568 -25.923 -14.235  0.00  0.00    -0.045 C 
ATOM     32  C   UNL     1      35.296 -24.505 -12.762  0.00  0.00    -0.045 C 
ATOM     33  C   UNL     1      37.726 -25.865 -13.244  0.00  0.00    +0.119 C 
ATOM     34  C   UNL     1      36.485 -24.479 -11.806  0.00  0.00    +0.119 C 
ATOM     35  H   UNL     1      36.360 -23.901 -14.395  0.00  0.00    -0.079 HD
ENDBRANCH  28  30
ENDBRANCH  27  28
ENDBRANCH   1  27
TORSDOF 6
ENDMDL
MODEL 4
REMARK VINA RESULT:     -11.8      2.295     11.825
REMARK  Name = 24963046
REMARK  6 active torsions:
REMARK  status: ('A' for Active; 'I' for Inactive)
REMARK    1  A    between atoms: N_1  and  C_27
REMARK    2  A    between atoms: C_4  and  C_16
REMARK    3  A    between atoms: C_13  and  C_22
REMARK    4  A    between atoms: N_21  and  C_24
REMARK    5  A    between atoms: C_27  and  C_28
REMARK    6  A    between atoms: C_28  and  N_30
REMARK                            x       y       z     vdW  Elec       q    Type
REMARK                         _______ _______ _______ _____ _____    ______ ____
ROOT
ATOM      1  N   UNL     1      35.696 -18.314 -23.211  0.00  0.00    -0.270 N 
ATOM      2  N   UNL     1      34.556 -19.680 -21.716  0.00  0.00    -0.338 NA
ATOM      3  N   UNL     1      36.877 -19.123 -21.385  0.00  0.00    -0.170 NA
ATOM      4  C   UNL     1      34.559 -21.974 -18.235  0.00  0.00    -0.000 C 
ATOM      5  C   UNL     1      35.721 -21.321 -18.636  0.00  0.00    +0.004 C 
ATOM      6  C   UNL     1      35.724 -20.547 -19.809  0.00  0.00    +0.050 C 
ATOM      7  C   UNL     1      35.712 -19.073 -22.052  0.00  0.00    +0.145 C 
ATOM      8  C   UNL     1      33.405 -21.853 -19.002  0.00  0.00    +0.003 C 
ATOM      9  C   UNL     1      34.565 -20.418 -20.592  0.00  0.00    +0.146 C 
ATOM     10  C   UNL     1      33.416 -21.081 -20.167  0.00  0.00    +0.033 C 
ATOM     11  C   UNL     1      36.851 -19.871 -20.265  0.00  0.00    +0.114 C 
ATOM     12  H   UNL     1      36.527 -17.859 -23.479  0.00  0.00    +0.159 HD
ENDROOT
BRANCH   4  16
ATOM     13  C   UNL     1      35.768 -23.740 -15.179  0.00  0.00    +0.053 C 
ATOM     14  C   UNL     1      35.750 -22.974 -16.345  0.00  0.00    +0.004 C 
ATOM     15  C   UNL     1      34.587 -24.304 -14.698  0.00  0.00    +0.004 C 
ATOM     16  C   UNL     1      34.552 -22.773 -17.030  0.00  0.00    -0.004 C 
ATOM     17  C   UNL     1      33.371 -23.338 -16.548  0.00  0.00    -0.022 C 
ATOM     18  C   UNL     1      33.388 -24.103 -15.382  0.00  0.00    -0.004 C 
ATOM     19  C   UNL     1      32.067 -23.143 -17.254  0.00  0.00    +0.031 C 
BRANCH  13  22
ATOM     20  O   UNL     1      37.495 -23.055 -13.746  0.00  0.00    -0.270 OA
ATOM     21  N   UNL     1      37.652 -25.186 -14.642  0.00  0.00    -0.302 N 
ATOM     22  C   UNL     1      37.017 -23.950 -14.465  0.00  0.00    +0.246 C 
ATOM     23  H   UNL     1      37.222 -25.853 -15.225  0.00  0.00    +0.150 HD
BRANCH  21  24
ATOM     24  C   UNL     1      38.900 -25.528 -14.018  0.00  0.00    +0.072 C 
ATOM     25  C   UNL     1      39.887 -26.430 -14.698  0.00  0.00    +0.021 C 
ATOM     26  C   UNL     1      40.198 -24.973 -14.523  0.00  0.00    +0.021 C 
ENDBRANCH  21  24
ENDBRANCH  13  22
ENDBRANCH   4  16
BRANCH   1  27
ATOM     27  C   UNL     1      34.531 -18.152 -24.046  0.00  0.00    +0.075 C 
BRANCH  27  28
ATOM     28  C   UNL     1      34.304 -16.672 -24.327  0.00  0.00    -0.055 C 
BRANCH  28  30
ATOM     29  O   UNL     1      31.947 -16.696 -27.800  0.00  0.00    -0.358 OA
ATOM     30  N   UNL     1      33.177 -16.495 -25.241  0.00  0.00    +0.391 N 
ATOM     31  C   UNL     1      32.736 -17.789 -25.782  0.00  0.00    -0.045 C 
ATOM     32  C   UNL     1      33.533 -15.585 -26.339  0.00  0.00    -0.045 C 
ATOM     33  C   UNL     1      31.568 -17.577 -26.741  0.00  0.00    +0.119 C 
ATOM     34  C   UNL     1      32.346 -15.425 -27.284  0.00  0.00    +0.119 C 
ATOM     35  H   UNL     1      32.408 -16.084 -24.712  0.00  0.00    -0.079 HD
ENDBRANCH  28  30
ENDBRANCH  27  28
ENDBRANCH   1  27
TORSDOF 6
ENDMDL
MODEL 5
REMARK VINA RESULT:     -11.8      2.723      3.457
REMARK  Name = 24963046
REMARK  6 active torsions:
REMARK  status: ('A' for Active; 'I' for Inactive)
REMARK    1  A    between atoms: N_1  and  C_27
REMARK    2  A    between atoms: C_4  and  C_16
REMARK    3  A    between atoms: C_13  and  C_22
REMARK    4  A    between atoms: N_21  and  C_24
REMARK    5  A    between atoms: C_27  and  C_28
REMARK    6  A    between atoms: C_28  and  N_30
REMARK                            x       y       z     vdW  Elec       q    Type
REMARK                         _______ _______ _______ _____ _____    ______ ____
ROOT
ATOM      1  N   UNL     1      34.907 -22.939 -17.130  0.00  0.00    -0.270 N 
ATOM      2  N   UNL     1      33.846 -21.756 -18.827  0.00  0.00    -0.338 NA
ATOM      3  N   UNL     1      36.234 -21.640 -18.521  0.00  0.00    -0.170 NA
ATOM      4  C   UNL     1      34.085 -19.152 -22.072  0.00  0.00    -0.000 C 
ATOM      5  C   UNL     1      35.242 -19.518 -21.391  0.00  0.00    +0.004 C 
ATOM      6  C   UNL     1      35.165 -20.395 -20.296  0.00  0.00    +0.050 C 
ATOM      7  C   UNL     1      35.002 -22.072 -18.207  0.00  0.00    +0.145 C 
ATOM      8  C   UNL     1      32.857 -19.661 -21.662  0.00  0.00    +0.003 C 
ATOM      9  C   UNL     1      33.931 -20.916 -19.872  0.00  0.00    +0.146 C 
ATOM     10  C   UNL     1      32.790 -20.534 -20.572  0.00  0.00    +0.033 C 
ATOM     11  C   UNL     1      36.283 -20.800 -19.573  0.00  0.00    +0.114 C 
ATOM     12  H   UNL     1      35.736 -23.187 -16.660  0.00  0.00    +0.159 HD
ENDROOT
BRANCH   4  16
ATOM     13  C   UNL     1      34.137 -15.985 -24.043  0.00  0.00    +0.053 C 
ATOM     14  C   UNL     1      34.068 -16.875 -22.972  0.00  0.00    +0.004 C 
ATOM     15  C   UNL     1      34.298 -16.467 -25.341  0.00  0.00    +0.004 C 
ATOM     16  C   UNL     1      34.159 -18.248 -23.199  0.00  0.00    -0.004 C 
ATOM     17  C   UNL     1      34.320 -18.731 -24.498  0.00  0.00    -0.022 C 
ATOM     18  C   UNL     1      34.390 -17.840 -25.570  0.00  0.00    -0.004 C 
ATOM     19  C   UNL     1      34.423 -20.196 -24.781  0.00  0.00    +0.031 C 
BRANCH  13  22
ATOM     20  O   UNL     1      34.583 -14.037 -22.813  0.00  0.00    -0.270 OA
ATOM     21  N   UNL     1      33.304 -13.802 -24.731  0.00  0.00    -0.302 N 
ATOM     22  C   UNL     1      34.042 -14.553 -23.807  0.00  0.00    +0.246 C 
ATOM     23  H   UNL     1      32.900 -14.271 -25.498  0.00  0.00    +0.150 HD
BRANCH  21  24
ATOM     24  C   UNL     1      33.106 -12.383 -24.617  0.00  0.00    +0.072 C 
ATOM     25  C   UNL     1      34.219 -11.418 -24.901  0.00  0.00    +0.021 C 
ATOM     26  C   UNL     1      33.046 -11.509 -25.834  0.00  0.00    +0.021 C 
ENDBRANCH  21  24
ENDBRANCH  13  22
ENDBRANCH   4  16
BRANCH   1  27
ATOM     27  C   UNL     1      33.663 -23.499 -16.659  0.00  0.00    +0.075 C 
BRANCH  27  28
ATOM     28  C   UNL     1      33.642 -23.490 -15.136  0.00  0.00    -0.055 C 
BRANCH  28  30
ATOM     29  O   UNL     1      29.600 -24.430 -14.506  0.00  0.00    -0.358 OA
ATOM     30  N   UNL     1      32.265 -23.441 -14.647  0.00  0.00    +0.391 N 
ATOM     31  C   UNL     1      31.936 -24.659 -13.891  0.00  0.00    -0.045 C 
ATOM     32  C   UNL     1      31.322 -23.268 -15.760  0.00  0.00    -0.045 C 
ATOM     33  C   UNL     1      30.493 -24.590 -13.402  0.00  0.00    +0.119 C 
ATOM     34  C   UNL     1      29.893 -23.231 -15.226  0.00  0.00    +0.119 C 
ATOM     35  H   UNL     1      32.184 -22.639 -14.022  0.00  0.00    -0.079 HD
ENDBRANCH  28  30
ENDBRANCH  27  28
ENDBRANCH   1  27
TORSDOF 6
ENDMDL
MODEL 6
REMARK VINA RESULT:     -11.5      3.464     11.404
REMARK  Name = 24963046
REMARK  6 active torsions:
REMARK  status: ('A' for Active; 'I' for Inactive)
REMARK    1  A    between atoms: N_1  and  C_27
REMARK    2  A    between atoms: C_4  and  C_16
REMARK    3  A    between atoms: C_13  and  C_22
REMARK    4  A    between atoms: N_21  and  C_24
REMARK    5  A    between atoms: C_27  and  C_28
REMARK    6  A    between atoms: C_28  and  N_30
REMARK                            x       y       z     vdW  Elec       q    Type
REMARK                         _______ _______ _______ _____ _____    ______ ____
ROOT
ATOM      1  N   UNL     1      35.135 -17.378 -24.291  0.00  0.00    -0.270 N 
ATOM      2  N   UNL     1      33.871 -18.623 -22.789  0.00  0.00    -0.338 NA
ATOM      3  N   UNL     1      36.272 -18.506 -22.613  0.00  0.00    -0.170 NA
ATOM      4  C   UNL     1      33.698 -21.118 -19.454  0.00  0.00    -0.000 C 
ATOM      5  C   UNL     1      34.929 -20.653 -19.909  0.00  0.00    +0.004 C 
ATOM      6  C   UNL     1      34.991 -19.812 -21.033  0.00  0.00    +0.050 C 
ATOM      7  C   UNL     1      35.093 -18.206 -23.181  0.00  0.00    +0.145 C 
ATOM      8  C   UNL     1      32.536 -20.743 -20.119  0.00  0.00    +0.003 C 
ATOM      9  C   UNL     1      33.824 -19.427 -21.713  0.00  0.00    +0.146 C 
ATOM     10  C   UNL     1      32.606 -19.906 -21.236  0.00  0.00    +0.033 C 
ATOM     11  C   UNL     1      36.188 -19.313 -21.538  0.00  0.00    +0.114 C 
ATOM     12  H   UNL     1      36.014 -17.058 -24.599  0.00  0.00    +0.159 HD
ENDROOT
BRANCH   4  16
ATOM     13  C   UNL     1      32.290 -23.225 -16.717  0.00  0.00    +0.053 C 
ATOM     14  C   UNL     1      32.380 -22.389 -17.830  0.00  0.00    +0.004 C 
ATOM     15  C   UNL     1      33.449 -23.656 -16.073  0.00  0.00    +0.004 C 
ATOM     16  C   UNL     1      33.630 -21.984 -18.298  0.00  0.00    -0.004 C 
ATOM     17  C   UNL     1      34.789 -22.416 -17.653  0.00  0.00    -0.022 C 
ATOM     18  C   UNL     1      34.699 -23.252 -16.541  0.00  0.00    -0.004 C 
ATOM     19  C   UNL     1      36.147 -22.002 -18.127  0.00  0.00    +0.031 C 
BRANCH  13  22
ATOM     20  O   UNL     1      30.876 -24.658 -15.510  0.00  0.00    -0.270 OA
ATOM     21  N   UNL     1      29.881 -22.884 -16.619  0.00  0.00    -0.302 N 
ATOM     22  C   UNL     1      30.987 -23.648 -16.228  0.00  0.00    +0.246 C 
ATOM     23  H   UNL     1      30.035 -22.095 -17.189  0.00  0.00    +0.150 HD
BRANCH  21  24
ATOM     24  C   UNL     1      28.532 -23.192 -16.232  0.00  0.00    +0.072 C 
ATOM     25  C   UNL     1      27.362 -22.714 -17.041  0.00  0.00    +0.021 C 
ATOM     26  C   UNL     1      27.707 -24.174 -17.008  0.00  0.00    +0.021 C 
ENDBRANCH  21  24
ENDBRANCH  13  22
ENDBRANCH   4  16
BRANCH   1  27
ATOM     27  C   UNL     1      33.963 -16.956 -25.021  0.00  0.00    +0.075 C 
BRANCH  27  28
ATOM     28  C   UNL     1      33.558 -15.557 -24.574  0.00  0.00    -0.055 C 
BRANCH  28  30
ATOM     29  O   UNL     1      32.046 -13.766 -28.056  0.00  0.00    -0.358 OA
ATOM     30  N   UNL     1      32.639 -14.961 -25.542  0.00  0.00    +0.391 N 
ATOM     31  C   UNL     1      32.596 -15.755 -26.778  0.00  0.00    -0.045 C 
ATOM     32  C   UNL     1      33.026 -13.576 -25.845  0.00  0.00    -0.045 C 
ATOM     33  C   UNL     1      31.641 -15.107 -27.776  0.00  0.00    +0.119 C 
ATOM     34  C   UNL     1      32.059 -12.980 -26.864  0.00  0.00    +0.119 C 
ATOM     35  H   UNL     1      31.707 -14.956 -25.125  0.00  0.00    -0.079 HD
ENDBRANCH  28  30
ENDBRANCH  27  28
ENDBRANCH   1  27
TORSDOF 6
ENDMDL
MODEL 7
REMARK VINA RESULT:     -11.2      5.208      9.251
REMARK  Name = 24963046
REMARK  6 active torsions:
REMARK  status: ('A' for Active; 'I' for Inactive)
REMARK    1  A    between atoms: N_1  and  C_27
REMARK    2  A    between atoms: C_4  and  C_16
REMARK    3  A    between atoms: C_13  and  C_22
REMARK    4  A    between atoms: N_21  and  C_24
REMARK    5  A    between atoms: C_27  and  C_28
REMARK    6  A    between atoms: C_28  and  N_30
REMARK                            x       y       z     vdW  Elec       q    Type
REMARK                         _______ _______ _______ _____ _____    ______ ____
ROOT
ATOM      1  N   UNL     1      32.807 -17.734 -26.426  0.00  0.00    -0.270 N 
ATOM      2  N   UNL     1      33.114 -15.916 -25.011  0.00  0.00    -0.338 NA
ATOM      3  N   UNL     1      32.886 -15.627 -27.393  0.00  0.00    -0.170 NA
ATOM      4  C   UNL     1      33.524 -11.799 -24.500  0.00  0.00    -0.000 C 
ATOM      5  C   UNL     1      33.343 -12.324 -25.776  0.00  0.00    +0.004 C 
ATOM      6  C   UNL     1      33.205 -13.712 -25.952  0.00  0.00    +0.050 C 
ATOM      7  C   UNL     1      32.942 -16.364 -26.272  0.00  0.00    +0.145 C 
ATOM      8  C   UNL     1      33.566 -12.656 -23.405  0.00  0.00    +0.003 C 
ATOM      9  C   UNL     1      33.245 -14.587 -24.854  0.00  0.00    +0.146 C 
ATOM     10  C   UNL     1      33.427 -14.035 -23.589  0.00  0.00    +0.033 C 
ATOM     11  C   UNL     1      33.021 -14.300 -27.200  0.00  0.00    +0.114 C 
ATOM     12  H   UNL     1      32.680 -18.088 -27.336  0.00  0.00    +0.159 HD
ENDROOT
BRANCH   4  16
ATOM     13  C   UNL     1      32.896  -8.331 -23.278  0.00  0.00    +0.053 C 
ATOM     14  C   UNL     1      32.776  -9.707 -23.473  0.00  0.00    +0.004 C 
ATOM     15  C   UNL     1      33.907  -7.621 -23.924  0.00  0.00    +0.004 C 
ATOM     16  C   UNL     1      33.668 -10.373 -24.314  0.00  0.00    -0.004 C 
ATOM     17  C   UNL     1      34.680  -9.661 -24.960  0.00  0.00    -0.022 C 
ATOM     18  C   UNL     1      34.800  -8.286 -24.764  0.00  0.00    -0.004 C 
ATOM     19  C   UNL     1      35.655 -10.341 -25.868  0.00  0.00    +0.031 C 
BRANCH  13  22
ATOM     20  O   UNL     1      30.738  -7.766 -22.549  0.00  0.00    -0.270 OA
ATOM     21  N   UNL     1      32.518  -6.812 -21.413  0.00  0.00    -0.302 N 
ATOM     22  C   UNL     1      31.966  -7.636 -22.401  0.00  0.00    +0.246 C 
ATOM     23  H   UNL     1      33.499  -6.752 -21.348  0.00  0.00    +0.150 HD
BRANCH  21  24
ATOM     24  C   UNL     1      31.726  -6.048 -20.489  0.00  0.00    +0.072 C 
ATOM     25  C   UNL     1      31.231  -6.650 -19.207  0.00  0.00    +0.021 C 
ATOM     26  C   UNL     1      32.290  -5.588 -19.178  0.00  0.00    +0.021 C 
ENDBRANCH  21  24
ENDBRANCH  13  22
ENDBRANCH   4  16
BRANCH   1  27
ATOM     27  C   UNL     1      32.842 -18.672 -25.329  0.00  0.00    +0.075 C 
BRANCH  27  28
ATOM     28  C   UNL     1      34.231 -18.675 -24.702  0.00  0.00    -0.055 C 
BRANCH  28  30
ATOM     29  O   UNL     1      35.250 -18.269 -20.651  0.00  0.00    -0.358 OA
ATOM     30  N   UNL     1      34.142 -18.400 -23.269  0.00  0.00    +0.391 N 
ATOM     31  C   UNL     1      35.079 -17.335 -22.884  0.00  0.00    -0.045 C 
ATOM     32  C   UNL     1      34.410 -19.614 -22.487  0.00  0.00    -0.045 C 
ATOM     33  C   UNL     1      34.977 -17.074 -21.384  0.00  0.00    +0.119 C 
ATOM     34  C   UNL     1      34.322 -19.299 -20.996  0.00  0.00    +0.119 C 
ATOM     35  H   UNL     1      33.192 -18.085 -23.070  0.00  0.00    -0.079 HD
ENDBRANCH  28  30
ENDBRANCH  27  28
ENDBRANCH   1  27
TORSDOF 6
ENDMDL
MODEL 8
REMARK VINA RESULT:     -11.0      2.230      3.873
REMARK  Name = 24963046
REMARK  6 active torsions:
REMARK  status: ('A' for Active; 'I' for Inactive)
REMARK    1  A    between atoms: N_1  and  C_27
REMARK    2  A    between atoms: C_4  and  C_16
REMARK    3  A    between atoms: C_13  and  C_22
REMARK    4  A    between atoms: N_21  and  C_24
REMARK    5  A    between atoms: C_27  and  C_28
REMARK    6  A    between atoms: C_28  and  N_30
REMARK                            x       y       z     vdW  Elec       q    Type
REMARK                         _______ _______ _______ _____ _____    ______ ____
ROOT
ATOM      1  N   UNL     1      36.036 -19.947 -19.869  0.00  0.00    -0.270 N 
ATOM      2  N   UNL     1      35.111 -19.633 -21.978  0.00  0.00    -0.338 NA
ATOM      3  N   UNL     1      35.508 -17.776 -20.493  0.00  0.00    -0.170 NA
ATOM      4  C   UNL     1      33.577 -17.055 -24.872  0.00  0.00    -0.000 C 
ATOM      5  C   UNL     1      34.026 -16.544 -23.658  0.00  0.00    +0.004 C 
ATOM      6  C   UNL     1      34.543 -17.411 -22.679  0.00  0.00    +0.050 C 
ATOM      7  C   UNL     1      35.529 -19.078 -20.821  0.00  0.00    +0.145 C 
ATOM      8  C   UNL     1      33.647 -18.423 -25.109  0.00  0.00    +0.003 C 
ATOM      9  C   UNL     1      34.618 -18.795 -22.906  0.00  0.00    +0.146 C 
ATOM     10  C   UNL     1      34.163 -19.278 -24.131  0.00  0.00    +0.033 C 
ATOM     11  C   UNL     1      35.008 -16.965 -21.446  0.00  0.00    +0.114 C 
ATOM     12  H   UNL     1      36.349 -19.569 -19.015  0.00  0.00    +0.159 HD
ENDROOT
BRANCH   4  16
ATOM     13  C   UNL     1      33.034 -13.991 -26.930  0.00  0.00    +0.053 C 
ATOM     14  C   UNL     1      33.534 -14.864 -25.965  0.00  0.00    +0.004 C 
ATOM     15  C   UNL     1      32.044 -14.420 -27.813  0.00  0.00    +0.004 C 
ATOM     16  C   UNL     1      33.043 -16.167 -25.881  0.00  0.00    -0.004 C 
ATOM     17  C   UNL     1      32.052 -16.596 -26.765  0.00  0.00    -0.022 C 
ATOM     18  C   UNL     1      31.553 -15.723 -27.731  0.00  0.00    -0.004 C 
ATOM     19  C   UNL     1      31.502 -17.986 -26.707  0.00  0.00    +0.031 C 
BRANCH  13  22
ATOM     20  O   UNL     1      34.026 -12.202 -28.081  0.00  0.00    -0.270 OA
ATOM     21  N   UNL     1      33.487 -11.853 -25.855  0.00  0.00    -0.302 N 
ATOM     22  C   UNL     1      33.545 -12.632 -27.017  0.00  0.00    +0.246 C 
ATOM     23  H   UNL     1      33.095 -12.252 -25.044  0.00  0.00    +0.150 HD
BRANCH  21  24
ATOM     24  C   UNL     1      33.973 -10.503 -25.784  0.00  0.00    +0.072 C 
ATOM     25  C   UNL     1      34.393  -9.895 -24.478  0.00  0.00    +0.021 C 
ATOM     26  C   UNL     1      35.421 -10.211 -25.525  0.00  0.00    +0.021 C 
ENDBRANCH  21  24
ENDBRANCH  13  22
ENDBRANCH   4  16
BRANCH   1  27
ATOM     27  C   UNL     1      36.132 -21.375 -20.057  0.00  0.00    +0.075 C 
BRANCH  27  28
ATOM     28  C   UNL     1      34.953 -22.062 -19.380  0.00  0.00    -0.055 C 
BRANCH  28  30
ATOM     29  O   UNL     1      35.851 -23.149 -15.427  0.00  0.00    -0.358 OA
ATOM     30  N   UNL     1      35.102 -22.013 -17.927  0.00  0.00    +0.391 N 
ATOM     31  C   UNL     1      36.513 -22.161 -17.543  0.00  0.00    -0.045 C 
ATOM     32  C   UNL     1      34.292 -23.057 -17.284  0.00  0.00    -0.045 C 
ATOM     33  C   UNL     1      36.643 -22.119 -16.023  0.00  0.00    +0.119 C 
ATOM     34  C   UNL     1      34.474 -22.993 -15.770  0.00  0.00    +0.119 C 
ATOM     35  H   UNL     1      34.772 -21.101 -17.610  0.00  0.00    -0.079 HD
ENDBRANCH  28  30
ENDBRANCH  27  28
ENDBRANCH   1  27
TORSDOF 6
ENDMDL
MODEL 9
REMARK VINA RESULT:     -10.9      3.749     11.984
REMARK  Name = 24963046
REMARK  6 active torsions:
REMARK  status: ('A' for Active; 'I' for Inactive)
REMARK    1  A    between atoms: N_1  and  C_27
REMARK    2  A    between atoms: C_4  and  C_16
REMARK    3  A    between atoms: C_13  and  C_22
REMARK    4  A    between atoms: N_21  and  C_24
REMARK    5  A    between atoms: C_27  and  C_28
REMARK    6  A    between atoms: C_28  and  N_30
REMARK                            x       y       z     vdW  Elec       q    Type
REMARK                         _______ _______ _______ _____ _____    ______ ____
ROOT
ATOM      1  N   UNL     1      32.636  -9.250 -25.472  0.00  0.00    -0.270 N 
ATOM      2  N   UNL     1      33.276 -11.103 -24.225  0.00  0.00    -0.338 NA
ATOM      3  N   UNL     1      32.571 -11.318 -26.519  0.00  0.00    -0.170 NA
ATOM      4  C   UNL     1      33.890 -15.219 -23.976  0.00  0.00    -0.000 C 
ATOM      5  C   UNL     1      33.438 -14.657 -25.166  0.00  0.00    +0.004 C 
ATOM      6  C   UNL     1      33.229 -13.269 -25.253  0.00  0.00    +0.050 C 
ATOM      7  C   UNL     1      32.835 -10.619 -25.404  0.00  0.00    +0.145 C 
ATOM      8  C   UNL     1      34.135 -14.399 -22.879  0.00  0.00    +0.003 C 
ATOM      9  C   UNL     1      33.472 -12.431 -24.152  0.00  0.00    +0.146 C 
ATOM     10  C   UNL     1      33.925 -13.020 -22.975  0.00  0.00    +0.033 C 
ATOM     11  C   UNL     1      32.778 -12.645 -26.412  0.00  0.00    +0.114 C 
ATOM     12  H   UNL     1      32.315  -8.869 -26.322  0.00  0.00    +0.159 HD
ENDROOT
BRANCH   4  16
ATOM     13  C   UNL     1      34.693 -18.567 -22.539  0.00  0.00    +0.053 C 
ATOM     14  C   UNL     1      34.480 -17.193 -22.654  0.00  0.00    +0.004 C 
ATOM     15  C   UNL     1      34.530 -19.393 -23.650  0.00  0.00    +0.004 C 
ATOM     16  C   UNL     1      34.106 -16.645 -23.881  0.00  0.00    -0.004 C 
ATOM     17  C   UNL     1      33.943 -17.473 -24.993  0.00  0.00    -0.022 C 
ATOM     18  C   UNL     1      34.155 -18.847 -24.878  0.00  0.00    -0.004 C 
ATOM     19  C   UNL     1      33.542 -16.922 -26.324  0.00  0.00    +0.031 C 
BRANCH  13  22
ATOM     20  O   UNL     1      36.062 -18.690 -20.637  0.00  0.00    -0.270 OA
ATOM     21  N   UNL     1      34.325 -20.215 -20.785  0.00  0.00    -0.302 N 
ATOM     22  C   UNL     1      35.083 -19.138 -21.260  0.00  0.00    +0.246 C 
ATOM     23  H   UNL     1      33.561 -20.524 -21.326  0.00  0.00    +0.150 HD
BRANCH  21  24
ATOM     24  C   UNL     1      34.604 -20.894 -19.549  0.00  0.00    +0.072 C 
ATOM     25  C   UNL     1      34.476 -22.384 -19.435  0.00  0.00    +0.021 C 
ATOM     26  C   UNL     1      35.831 -21.740 -19.389  0.00  0.00    +0.021 C 
ENDBRANCH  21  24
ENDBRANCH  13  22
ENDBRANCH   4  16
BRANCH   1  27
ATOM     27  C   UNL     1      32.872  -8.349 -24.368  0.00  0.00    +0.075 C 
BRANCH  27  28
ATOM     28  C   UNL     1      31.540  -7.855 -23.817  0.00  0.00    -0.055 C 
BRANCH  28  30
ATOM     29  O   UNL     1      32.604  -8.696 -19.845  0.00  0.00    -0.358 OA
ATOM     30  N   UNL     1      31.567  -7.846 -22.356  0.00  0.00    +0.391 N 
ATOM     31  C   UNL     1      32.866  -7.369 -21.861  0.00  0.00    -0.045 C 
ATOM     32  C   UNL     1      31.284  -9.185 -21.821  0.00  0.00    -0.045 C 
ATOM     33  C   UNL     1      32.874  -7.381 -20.335  0.00  0.00    +0.119 C 
ATOM     34  C   UNL     1      31.328  -9.153 -20.296  0.00  0.00    +0.119 C 
ATOM     35  H   UNL     1      30.841  -7.205 -22.034  0.00  0.00    -0.079 HD
ENDBRANCH  28  30
ENDBRANCH  27  28
ENDBRANCH   1  27
TORSDOF 6
ENDMDL
