MODEL 1
REMARK VINA RESULT:     -11.5      0.000      0.000
REMARK  Name = 491941
REMARK  5 active torsions:
REMARK  status: ('A' for Active; 'I' for Inactive)
REMARK    1  A    between atoms: C_5  and  C_17
REMARK    2  A    between atoms: C_7  and  S_11
REMARK    3  A    between atoms: S_11  and  N_14
REMARK    4  A    between atoms: C_17  and  C_18
REMARK    5  A    between atoms: C_21  and  C_25
REMARK                            x       y       z     vdW  Elec       q    Type
REMARK                         _______ _______ _______ _____ _____    ______ ____
ROOT
ATOM      1  S   UNL     1      34.068 -15.595 -24.659  0.00  0.00    -0.035 S 
ATOM      2  O   UNL     1      34.730 -19.887 -23.943  0.00  0.00    -0.274 OA
ATOM      3  N   UNL     1      34.585 -17.675 -23.151  0.00  0.00    -0.227 N 
ATOM      4  N   UNL     1      33.006 -17.934 -24.952  0.00  0.00    -0.386 NA
ATOM      5  C   UNL     1      34.988 -19.032 -23.090  0.00  0.00    +0.236 C 
ATOM      6  C   UNL     1      33.821 -17.221 -24.268  0.00  0.00    +0.217 C 
ATOM      7  C   UNL     1      32.941 -15.810 -25.933  0.00  0.00    +0.247 C 
ATOM      8  C   UNL     1      32.484 -17.112 -25.932  0.00  0.00    +0.123 C 
ATOM      9  C   UNL     1      34.938 -16.722 -22.085  0.00  0.00    +0.123 C 
ATOM     10  C   UNL     1      31.503 -17.684 -26.875  0.00  0.00    +0.064 C 
ENDROOT
BRANCH   7  11
ATOM     11  S   UNL     1      32.627 -14.391 -26.912  0.00  0.00    +0.052 S 
ATOM     12  O   UNL     1      32.833 -13.241 -26.037  0.00  0.00    -0.157 OA
ATOM     13  O   UNL     1      33.441 -14.563 -28.110  0.00  0.00    -0.157 OA
BRANCH  11  14
ATOM     14  N   UNL     1      30.972 -14.396 -27.381  0.00  0.00    -0.206 NA
ATOM     15  H   UNL     1      30.462 -15.077 -26.820  0.00  0.00    +0.144 HD
ATOM     16  H   UNL     1      30.900 -14.644 -28.368  0.00  0.00    +0.144 HD
ENDBRANCH  11  14
ENDBRANCH   7  11
BRANCH   5  17
ATOM     17  C   UNL     1      35.842 -19.431 -21.880  0.00  0.00    +0.112 C 
BRANCH  17  18
ATOM     18  C   UNL     1      35.103 -20.207 -20.844  0.00  0.00    -0.013 C 
ATOM     19  C   UNL     1      33.711 -20.134 -20.779  0.00  0.00    -0.004 C 
ATOM     20  C   UNL     1      35.802 -21.006 -19.940  0.00  0.00    -0.004 C 
ATOM     21  C   UNL     1      33.719 -21.658 -18.905  0.00  0.00    +0.018 C 
ATOM     22  C   UNL     1      33.019 -20.860 -19.810  0.00  0.00    +0.001 C 
ATOM     23  C   UNL     1      35.110 -21.732 -18.970  0.00  0.00    +0.001 C 
BRANCH  21  25
ATOM     24  N   UNL     1      31.657 -22.302 -17.958  0.00  0.00    -0.244 NA
ATOM     25  C   UNL     1      33.002 -22.412 -17.899  0.00  0.00    +0.081 C 
ATOM     26  C   UNL     1      33.681 -23.176 -16.967  0.00  0.00    +0.019 C 
ATOM     27  C   UNL     1      32.929 -23.875 -16.030  0.00  0.00    +0.003 C 
ATOM     28  C   UNL     1      30.959 -22.995 -17.030  0.00  0.00    +0.099 C 
ATOM     29  C   UNL     1      31.541 -23.788 -16.055  0.00  0.00    +0.021 C 
ENDBRANCH  21  25
ENDBRANCH  17  18
ENDBRANCH   5  17
TORSDOF 5
ENDMDL
MODEL 2
REMARK VINA RESULT:     -11.1      6.443     11.486
REMARK  Name = 491941
REMARK  5 active torsions:
REMARK  status: ('A' for Active; 'I' for Inactive)
REMARK    1  A    between atoms: C_5  and  C_17
REMARK    2  A    between atoms: C_7  and  S_11
REMARK    3  A    between atoms: S_11  and  N_14
REMARK    4  A    between atoms: C_17  and  C_18
REMARK    5  A    between atoms: C_21  and  C_25
REMARK                            x       y       z     vdW  Elec       q    Type
REMARK                         _______ _______ _______ _____ _____    ______ ____
ROOT
ATOM      1  S   UNL     1      34.022 -24.426 -13.632  0.00  0.00    -0.035 S 
ATOM      2  O   UNL     1      35.383 -22.825 -17.500  0.00  0.00    -0.274 OA
ATOM      3  N   UNL     1      33.675 -23.204 -15.925  0.00  0.00    -0.227 N 
ATOM      4  N   UNL     1      35.731 -22.824 -14.727  0.00  0.00    -0.386 NA
ATOM      5  C   UNL     1      34.186 -22.930 -17.218  0.00  0.00    +0.236 C 
ATOM      6  C   UNL     1      34.582 -23.380 -14.838  0.00  0.00    +0.217 C 
ATOM      7  C   UNL     1      35.495 -24.136 -12.805  0.00  0.00    +0.247 C 
ATOM      8  C   UNL     1      36.273 -23.263 -13.536  0.00  0.00    +0.123 C 
ATOM      9  C   UNL     1      32.227 -23.312 -15.679  0.00  0.00    +0.123 C 
ATOM     10  C   UNL     1      37.611 -22.770 -13.153  0.00  0.00    +0.064 C 
ENDROOT
BRANCH   7  11
ATOM     11  S   UNL     1      35.680 -24.973 -11.276  0.00  0.00    +0.052 S 
ATOM     12  O   UNL     1      34.329 -25.299 -10.826  0.00  0.00    -0.157 OA
ATOM     13  O   UNL     1      36.649 -26.032 -11.533  0.00  0.00    -0.157 OA
BRANCH  11  14
ATOM     14  N   UNL     1      36.361 -23.888 -10.128  0.00  0.00    -0.206 NA
ATOM     15  H   UNL     1      37.019 -23.267 -10.597  0.00  0.00    +0.144 HD
ATOM     16  H   UNL     1      36.849 -24.419  -9.406  0.00  0.00    +0.144 HD
ENDBRANCH  11  14
ENDBRANCH   7  11
BRANCH   5  17
ATOM     17  C   UNL     1      33.149 -22.796 -18.341  0.00  0.00    +0.112 C 
BRANCH  17  18
ATOM     18  C   UNL     1      33.448 -21.711 -19.318  0.00  0.00    -0.013 C 
ATOM     19  C   UNL     1      34.769 -21.435 -19.672  0.00  0.00    -0.004 C 
ATOM     20  C   UNL     1      32.407 -20.972 -19.880  0.00  0.00    -0.004 C 
ATOM     21  C   UNL     1      34.008 -19.680 -21.147  0.00  0.00    +0.018 C 
ATOM     22  C   UNL     1      35.049 -20.420 -20.586  0.00  0.00    +0.001 C 
ATOM     23  C   UNL     1      32.687 -19.956 -20.794  0.00  0.00    +0.001 C 
BRANCH  21  25
ATOM     24  N   UNL     1      34.665 -17.451 -21.544  0.00  0.00    -0.244 NA
ATOM     25  C   UNL     1      34.298 -18.627 -22.096  0.00  0.00    +0.081 C 
ATOM     26  C   UNL     1      34.194 -18.851 -23.457  0.00  0.00    +0.019 C 
ATOM     27  C   UNL     1      34.488 -17.794 -24.312  0.00  0.00    +0.003 C 
ATOM     28  C   UNL     1      34.943 -16.446 -22.406  0.00  0.00    +0.099 C 
ATOM     29  C   UNL     1      34.870 -16.566 -23.784  0.00  0.00    +0.021 C 
ENDBRANCH  21  25
ENDBRANCH  17  18
ENDBRANCH   5  17
TORSDOF 5
ENDMDL
MODEL 3
REMARK VINA RESULT:     -10.2      6.073     11.175
REMARK  Name = 491941
REMARK  5 active torsions:
REMARK  status: ('A' for Active; 'I' for Inactive)
REMARK    1  A    between atoms: C_5  and  C_17
REMARK    2  A    between atoms: C_7  and  S_11
REMARK    3  A    between atoms: S_11  and  N_14
REMARK    4  A    between atoms: C_17  and  C_18
REMARK    5  A    between atoms: C_21  and  C_25
REMARK                            x       y       z     vdW  Elec       q    Type
REMARK                         _______ _______ _______ _____ _____    ______ ____
ROOT
ATOM      1  S   UNL     1      34.822 -24.988 -14.874  0.00  0.00    -0.035 S 
ATOM      2  O   UNL     1      35.349 -22.574 -18.516  0.00  0.00    -0.274 OA
ATOM      3  N   UNL     1      34.082 -23.188 -16.630  0.00  0.00    -0.227 N 
ATOM      4  N   UNL     1      36.416 -23.323 -16.045  0.00  0.00    -0.386 NA
ATOM      5  C   UNL     1      34.269 -22.637 -17.922  0.00  0.00    +0.236 C 
ATOM      6  C   UNL     1      35.205 -23.723 -15.929  0.00  0.00    +0.217 C 
ATOM      7  C   UNL     1      36.488 -25.059 -14.479  0.00  0.00    +0.247 C 
ATOM      8  C   UNL     1      37.176 -24.103 -15.196  0.00  0.00    +0.123 C 
ATOM      9  C   UNL     1      32.755 -23.221 -15.995  0.00  0.00    +0.123 C 
ATOM     10  C   UNL     1      38.630 -23.852 -15.130  0.00  0.00    +0.064 C 
ENDROOT
BRANCH   7  11
ATOM     11  S   UNL     1      36.933 -26.277 -13.299  0.00  0.00    +0.052 S 
ATOM     12  O   UNL     1      36.393 -27.539 -13.795  0.00  0.00    -0.157 OA
ATOM     13  O   UNL     1      38.369 -26.114 -13.103  0.00  0.00    -0.157 OA
BRANCH  11  14
ATOM     14  N   UNL     1      36.145 -25.923 -11.812  0.00  0.00    -0.206 NA
ATOM     15  H   UNL     1      36.803 -25.475 -11.176  0.00  0.00    +0.144 HD
ATOM     16  H   UNL     1      35.803 -26.789 -11.394  0.00  0.00    +0.144 HD
ENDBRANCH  11  14
ENDBRANCH   7  11
BRANCH   5  17
ATOM     17  C   UNL     1      33.008 -22.122 -18.627  0.00  0.00    +0.112 C 
BRANCH  17  18
ATOM     18  C   UNL     1      33.278 -21.146 -19.720  0.00  0.00    -0.013 C 
ATOM     19  C   UNL     1      32.220 -20.614 -20.458  0.00  0.00    -0.004 C 
ATOM     20  C   UNL     1      34.589 -20.763 -20.005  0.00  0.00    -0.004 C 
ATOM     21  C   UNL     1      33.784 -19.319 -21.766  0.00  0.00    +0.018 C 
ATOM     22  C   UNL     1      32.473 -19.700 -21.481  0.00  0.00    +0.001 C 
ATOM     23  C   UNL     1      34.842 -19.850 -21.029  0.00  0.00    +0.001 C 
BRANCH  21  25
ATOM     24  N   UNL     1      33.468 -18.667 -24.011  0.00  0.00    -0.244 NA
ATOM     25  C   UNL     1      34.047 -18.371 -22.827  0.00  0.00    +0.081 C 
ATOM     26  C   UNL     1      34.837 -17.257 -22.604  0.00  0.00    +0.019 C 
ATOM     27  C   UNL     1      35.049 -16.387 -23.668  0.00  0.00    +0.003 C 
ATOM     28  C   UNL     1      33.696 -17.799 -25.023  0.00  0.00    +0.099 C 
ATOM     29  C   UNL     1      34.470 -16.657 -24.904  0.00  0.00    +0.021 C 
ENDBRANCH  21  25
ENDBRANCH  17  18
ENDBRANCH   5  17
TORSDOF 5
ENDMDL
MODEL 4
REMARK VINA RESULT:      -9.9      5.325      7.455
REMARK  Name = 491941
REMARK  5 active torsions:
REMARK  status: ('A' for Active; 'I' for Inactive)
REMARK    1  A    between atoms: C_5  and  C_17
REMARK    2  A    between atoms: C_7  and  S_11
REMARK    3  A    between atoms: S_11  and  N_14
REMARK    4  A    between atoms: C_17  and  C_18
REMARK    5  A    between atoms: C_21  and  C_25
REMARK                            x       y       z     vdW  Elec       q    Type
REMARK                         _______ _______ _______ _____ _____    ______ ____
ROOT
ATOM      1  S   UNL     1      32.653  -8.788 -24.148  0.00  0.00    -0.035 S 
ATOM      2  O   UNL     1      32.042 -12.960 -22.885  0.00  0.00    -0.274 OA
ATOM      3  N   UNL     1      33.311 -11.321 -24.001  0.00  0.00    -0.227 N 
ATOM      4  N   UNL     1      32.278 -10.294 -22.080  0.00  0.00    -0.386 NA
ATOM      5  C   UNL     1      32.893 -12.646 -23.722  0.00  0.00    +0.236 C 
ATOM      6  C   UNL     1      32.726 -10.237 -23.279  0.00  0.00    +0.217 C 
ATOM      7  C   UNL     1      31.920  -8.086 -22.767  0.00  0.00    +0.247 C 
ATOM      8  C   UNL     1      31.803  -9.035 -21.772  0.00  0.00    +0.123 C 
ATOM      9  C   UNL     1      34.336 -11.038 -25.018  0.00  0.00    +0.123 C 
ATOM     10  C   UNL     1      31.224  -8.815 -20.431  0.00  0.00    +0.064 C 
ENDROOT
BRANCH   7  11
ATOM     11  S   UNL     1      31.500  -6.391 -22.913  0.00  0.00    +0.052 S 
ATOM     12  O   UNL     1      32.036  -5.949 -24.197  0.00  0.00    -0.157 OA
ATOM     13  O   UNL     1      30.067  -6.326 -22.649  0.00  0.00    -0.157 OA
BRANCH  11  14
ATOM     14  N   UNL     1      32.314  -5.510 -21.680  0.00  0.00    -0.206 NA
ATOM     15  H   UNL     1      33.221  -5.199 -22.027  0.00  0.00    +0.144 HD
ATOM     16  H   UNL     1      32.448  -6.109 -20.865  0.00  0.00    +0.144 HD
ENDBRANCH  11  14
ENDBRANCH   7  11
BRANCH   5  17
ATOM     17  C   UNL     1      33.537 -13.750 -24.569  0.00  0.00    +0.112 C 
BRANCH  17  18
ATOM     18  C   UNL     1      33.912 -14.968 -23.796  0.00  0.00    -0.013 C 
ATOM     19  C   UNL     1      34.338 -14.851 -22.472  0.00  0.00    -0.004 C 
ATOM     20  C   UNL     1      33.837 -16.226 -24.395  0.00  0.00    -0.004 C 
ATOM     21  C   UNL     1      34.615 -17.247 -22.348  0.00  0.00    +0.018 C 
ATOM     22  C   UNL     1      34.689 -15.990 -21.748  0.00  0.00    +0.001 C 
ATOM     23  C   UNL     1      34.189 -17.365 -23.671  0.00  0.00    +0.001 C 
BRANCH  21  25
ATOM     24  N   UNL     1      36.297 -18.551 -21.333  0.00  0.00    -0.244 NA
ATOM     25  C   UNL     1      34.979 -18.429 -21.597  0.00  0.00    +0.081 C 
ATOM     26  C   UNL     1      34.016 -19.341 -21.199  0.00  0.00    +0.019 C 
ATOM     27  C   UNL     1      34.437 -20.455 -20.481  0.00  0.00    +0.003 C 
ATOM     28  C   UNL     1      36.669 -19.647 -20.633  0.00  0.00    +0.099 C 
ATOM     29  C   UNL     1      35.786 -20.618 -20.188  0.00  0.00    +0.021 C 
ENDBRANCH  21  25
ENDBRANCH  17  18
ENDBRANCH   5  17
TORSDOF 5
ENDMDL
MODEL 5
REMARK VINA RESULT:      -9.8      4.435      9.978
REMARK  Name = 491941
REMARK  5 active torsions:
REMARK  status: ('A' for Active; 'I' for Inactive)
REMARK    1  A    between atoms: C_5  and  C_17
REMARK    2  A    between atoms: C_7  and  S_11
REMARK    3  A    between atoms: S_11  and  N_14
REMARK    4  A    between atoms: C_17  and  C_18
REMARK    5  A    between atoms: C_21  and  C_25
REMARK                            x       y       z     vdW  Elec       q    Type
REMARK                         _______ _______ _______ _____ _____    ______ ____
ROOT
ATOM      1  S   UNL     1      35.941 -22.126 -17.458  0.00  0.00    -0.035 S 
ATOM      2  O   UNL     1      33.853 -19.752 -20.521  0.00  0.00    -0.274 OA
ATOM      3  N   UNL     1      35.739 -20.960 -19.797  0.00  0.00    -0.227 N 
ATOM      4  N   UNL     1      33.776 -22.003 -18.867  0.00  0.00    -0.386 NA
ATOM      5  C   UNL     1      35.056 -20.015 -20.602  0.00  0.00    +0.236 C 
ATOM      6  C   UNL     1      35.015 -21.685 -18.803  0.00  0.00    +0.217 C 
ATOM      7  C   UNL     1      34.527 -22.858 -16.822  0.00  0.00    +0.247 C 
ATOM      8  C   UNL     1      33.482 -22.692 -17.707  0.00  0.00    +0.123 C 
ATOM      9  C   UNL     1      37.180 -21.211 -19.964  0.00  0.00    +0.123 C 
ATOM     10  C   UNL     1      32.102 -23.184 -17.517  0.00  0.00    +0.064 C 
ENDROOT
BRANCH   7  11
ATOM     11  S   UNL     1      34.713 -23.626 -15.258  0.00  0.00    +0.052 S 
ATOM     12  O   UNL     1      34.712 -25.064 -15.509  0.00  0.00    -0.157 OA
ATOM     13  O   UNL     1      35.871 -22.983 -14.649  0.00  0.00    -0.157 OA
BRANCH  11  14
ATOM     14  N   UNL     1      33.332 -23.267 -14.297  0.00  0.00    -0.206 NA
ATOM     15  H   UNL     1      33.632 -22.991 -13.362  0.00  0.00    +0.144 HD
ATOM     16  H   UNL     1      32.738 -24.094 -14.234  0.00  0.00    +0.144 HD
ENDBRANCH  11  14
ENDBRANCH   7  11
BRANCH   5  17
ATOM     17  C   UNL     1      35.912 -19.247 -21.617  0.00  0.00    +0.112 C 
BRANCH  17  18
ATOM     18  C   UNL     1      35.127 -18.596 -22.705  0.00  0.00    -0.013 C 
ATOM     19  C   UNL     1      34.966 -17.210 -22.716  0.00  0.00    -0.004 C 
ATOM     20  C   UNL     1      34.554 -19.373 -23.711  0.00  0.00    -0.004 C 
ATOM     21  C   UNL     1      33.658 -17.379 -24.740  0.00  0.00    +0.018 C 
ATOM     22  C   UNL     1      34.232 -16.602 -23.734  0.00  0.00    +0.001 C 
ATOM     23  C   UNL     1      33.819 -18.764 -24.729  0.00  0.00    +0.001 C 
BRANCH  21  25
ATOM     24  N   UNL     1      33.340 -15.528 -26.165  0.00  0.00    -0.244 NA
ATOM     25  C   UNL     1      32.896 -16.748 -25.796  0.00  0.00    +0.081 C 
ATOM     26  C   UNL     1      31.803 -17.383 -26.358  0.00  0.00    +0.019 C 
ATOM     27  C   UNL     1      31.117 -16.719 -27.370  0.00  0.00    +0.003 C 
ATOM     28  C   UNL     1      32.649 -14.912 -27.151  0.00  0.00    +0.099 C 
ATOM     29  C   UNL     1      31.542 -15.459 -27.779  0.00  0.00    +0.021 C 
ENDBRANCH  21  25
ENDBRANCH  17  18
ENDBRANCH   5  17
TORSDOF 5
ENDMDL
MODEL 6
REMARK VINA RESULT:      -9.6      2.346      3.241
REMARK  Name = 491941
REMARK  5 active torsions:
REMARK  status: ('A' for Active; 'I' for Inactive)
REMARK    1  A    between atoms: C_5  and  C_17
REMARK    2  A    between atoms: C_7  and  S_11
REMARK    3  A    between atoms: S_11  and  N_14
REMARK    4  A    between atoms: C_17  and  C_18
REMARK    5  A    between atoms: C_21  and  C_25
REMARK                            x       y       z     vdW  Elec       q    Type
REMARK                         _______ _______ _______ _____ _____    ______ ____
ROOT
ATOM      1  S   UNL     1      33.959 -15.980 -24.125  0.00  0.00    -0.035 S 
ATOM      2  O   UNL     1      34.427 -18.220 -20.365  0.00  0.00    -0.274 OA
ATOM      3  N   UNL     1      34.874 -17.952 -22.660  0.00  0.00    -0.227 N 
ATOM      4  N   UNL     1      34.721 -15.763 -21.663  0.00  0.00    -0.386 NA
ATOM      5  C   UNL     1      34.769 -18.688 -21.455  0.00  0.00    +0.236 C 
ATOM      6  C   UNL     1      34.569 -16.557 -22.657  0.00  0.00    +0.217 C 
ATOM      7  C   UNL     1      33.862 -14.435 -23.387  0.00  0.00    +0.247 C 
ATOM      8  C   UNL     1      34.308 -14.515 -22.084  0.00  0.00    +0.123 C 
ATOM      9  C   UNL     1      35.291 -18.594 -23.918  0.00  0.00    +0.123 C 
ATOM     10  C   UNL     1      34.379 -13.395 -21.124  0.00  0.00    +0.064 C 
ENDROOT
BRANCH   7  11
ATOM     11  S   UNL     1      33.246 -13.149 -24.406  0.00  0.00    +0.052 S 
ATOM     12  O   UNL     1      33.118 -13.717 -25.744  0.00  0.00    -0.157 OA
ATOM     13  O   UNL     1      32.075 -12.632 -23.707  0.00  0.00    -0.157 OA
BRANCH  11  14
ATOM     14  N   UNL     1      34.421 -11.894 -24.486  0.00  0.00    -0.206 NA
ATOM     15  H   UNL     1      35.217 -12.210 -25.038  0.00  0.00    +0.144 HD
ATOM     16  H   UNL     1      34.731 -11.659 -23.543  0.00  0.00    +0.144 HD
ENDBRANCH  11  14
ENDBRANCH   7  11
BRANCH   5  17
ATOM     17  C   UNL     1      35.072 -20.189 -21.550  0.00  0.00    +0.112 C 
BRANCH  17  18
ATOM     18  C   UNL     1      34.788 -20.947 -20.299  0.00  0.00    -0.013 C 
ATOM     19  C   UNL     1      35.829 -21.273 -19.428  0.00  0.00    -0.004 C 
ATOM     20  C   UNL     1      33.481 -21.331 -19.997  0.00  0.00    -0.004 C 
ATOM     21  C   UNL     1      34.257 -22.366 -17.956  0.00  0.00    +0.018 C 
ATOM     22  C   UNL     1      35.564 -21.982 -18.257  0.00  0.00    +0.001 C 
ATOM     23  C   UNL     1      33.215 -22.041 -18.825  0.00  0.00    +0.001 C 
BRANCH  21  25
ATOM     24  N   UNL     1      35.068 -23.616 -16.128  0.00  0.00    -0.244 NA
ATOM     25  C   UNL     1      33.980 -23.102 -16.741  0.00  0.00    +0.081 C 
ATOM     26  C   UNL     1      32.685 -23.243 -16.277  0.00  0.00    +0.019 C 
ATOM     27  C   UNL     1      32.492 -23.963 -15.103  0.00  0.00    +0.003 C 
ATOM     28  C   UNL     1      34.842 -24.309 -14.990  0.00  0.00    +0.099 C 
ATOM     29  C   UNL     1      33.586 -24.509 -14.440  0.00  0.00    +0.021 C 
ENDBRANCH  21  25
ENDBRANCH  17  18
ENDBRANCH   5  17
TORSDOF 5
ENDMDL
MODEL 7
REMARK VINA RESULT:      -9.6      4.366      6.721
REMARK  Name = 491941
REMARK  5 active torsions:
REMARK  status: ('A' for Active; 'I' for Inactive)
REMARK    1  A    between atoms: C_5  and  C_17
REMARK    2  A    between atoms: C_7  and  S_11
REMARK    3  A    between atoms: S_11  and  N_14
REMARK    4  A    between atoms: C_17  and  C_18
REMARK    5  A    between atoms: C_21  and  C_25
REMARK                            x       y       z     vdW  Elec       q    Type
REMARK                         _______ _______ _______ _____ _____    ______ ____
ROOT
ATOM      1  S   UNL     1      32.615  -9.842 -26.174  0.00  0.00    -0.035 S 
ATOM      2  O   UNL     1      32.578 -13.421 -23.612  0.00  0.00    -0.274 OA
ATOM      3  N   UNL     1      33.331 -12.279 -25.527  0.00  0.00    -0.227 N 
ATOM      4  N   UNL     1      33.034 -10.668 -23.760  0.00  0.00    -0.386 NA
ATOM      5  C   UNL     1      33.067 -13.431 -24.745  0.00  0.00    +0.236 C 
ATOM      6  C   UNL     1      33.022 -10.989 -25.000  0.00  0.00    +0.217 C 
ATOM      7  C   UNL     1      32.411  -8.720 -24.894  0.00  0.00    +0.247 C 
ATOM      8  C   UNL     1      32.677  -9.337 -23.690  0.00  0.00    +0.123 C 
ATOM      9  C   UNL     1      33.918 -12.384 -26.873  0.00  0.00    +0.123 C 
ATOM     10  C   UNL     1      32.611  -8.700 -22.359  0.00  0.00    +0.064 C 
ENDROOT
BRANCH   7  11
ATOM     11  S   UNL     1      31.933  -7.103 -25.376  0.00  0.00    +0.052 S 
ATOM     12  O   UNL     1      33.016  -6.218 -24.956  0.00  0.00    -0.157 OA
ATOM     13  O   UNL     1      31.574  -7.213 -26.785  0.00  0.00    -0.157 OA
BRANCH  11  14
ATOM     14  N   UNL     1      30.525  -6.655 -24.496  0.00  0.00    -0.206 NA
ATOM     15  H   UNL     1      30.705  -6.748 -23.497  0.00  0.00    +0.144 HD
ATOM     16  H   UNL     1      29.751  -7.264 -24.761  0.00  0.00    +0.144 HD
ENDBRANCH  11  14
ENDBRANCH   7  11
BRANCH   5  17
ATOM     17  C   UNL     1      33.387 -14.781 -25.400  0.00  0.00    +0.112 C 
BRANCH  17  18
ATOM     18  C   UNL     1      33.810 -15.837 -24.437  0.00  0.00    -0.013 C 
ATOM     19  C   UNL     1      33.512 -17.176 -24.694  0.00  0.00    -0.004 C 
ATOM     20  C   UNL     1      34.504 -15.487 -23.278  0.00  0.00    -0.004 C 
ATOM     21  C   UNL     1      34.601 -17.815 -22.635  0.00  0.00    +0.018 C 
ATOM     22  C   UNL     1      33.908 -18.164 -23.794  0.00  0.00    +0.001 C 
ATOM     23  C   UNL     1      34.899 -16.477 -22.377  0.00  0.00    +0.001 C 
BRANCH  21  25
ATOM     24  N   UNL     1      36.317 -18.805 -21.357  0.00  0.00    -0.244 NA
ATOM     25  C   UNL     1      35.012 -18.840 -21.700  0.00  0.00    +0.081 C 
ATOM     26  C   UNL     1      34.104 -19.765 -21.218  0.00  0.00    +0.019 C 
ATOM     27  C   UNL     1      34.567 -20.722 -20.322  0.00  0.00    +0.003 C 
ATOM     28  C   UNL     1      36.732 -19.751 -20.484  0.00  0.00    +0.099 C 
ATOM     29  C   UNL     1      35.905 -20.722 -19.943  0.00  0.00    +0.021 C 
ENDBRANCH  21  25
ENDBRANCH  17  18
ENDBRANCH   5  17
TORSDOF 5
ENDMDL
MODEL 8
REMARK VINA RESULT:      -9.5      4.923     10.157
REMARK  Name = 491941
REMARK  5 active torsions:
REMARK  status: ('A' for Active; 'I' for Inactive)
REMARK    1  A    between atoms: C_5  and  C_17
REMARK    2  A    between atoms: C_7  and  S_11
REMARK    3  A    between atoms: S_11  and  N_14
REMARK    4  A    between atoms: C_17  and  C_18
REMARK    5  A    between atoms: C_21  and  C_25
REMARK                            x       y       z     vdW  Elec       q    Type
REMARK                         _______ _______ _______ _____ _____    ______ ____
ROOT
ATOM      1  S   UNL     1      34.381 -22.797 -16.224  0.00  0.00    -0.035 S 
ATOM      2  O   UNL     1      33.178 -20.736 -19.922  0.00  0.00    -0.274 OA
ATOM      3  N   UNL     1      34.751 -21.975 -18.686  0.00  0.00    -0.227 N 
ATOM      4  N   UNL     1      32.546 -22.705 -18.043  0.00  0.00    -0.386 NA
ATOM      5  C   UNL     1      34.339 -21.106 -19.725  0.00  0.00    +0.236 C 
ATOM      6  C   UNL     1      33.778 -22.484 -17.773  0.00  0.00    +0.217 C 
ATOM      7  C   UNL     1      32.802 -23.309 -15.797  0.00  0.00    +0.247 C 
ATOM      8  C   UNL     1      31.966 -23.190 -16.888  0.00  0.00    +0.123 C 
ATOM      9  C   UNL     1      36.162 -22.366 -18.525  0.00  0.00    +0.123 C 
ATOM     10  C   UNL     1      30.529 -23.532 -16.918  0.00  0.00    +0.064 C 
ENDROOT
BRANCH   7  11
ATOM     11  S   UNL     1      32.605 -23.851 -14.142  0.00  0.00    +0.052 S 
ATOM     12  O   UNL     1      33.948 -23.921 -13.575  0.00  0.00    -0.157 OA
ATOM     13  O   UNL     1      31.604 -22.962 -13.564  0.00  0.00    -0.157 OA
BRANCH  11  14
ATOM     14  N   UNL     1      31.963 -25.447 -14.154  0.00  0.00    -0.206 NA
ATOM     15  H   UNL     1      31.108 -25.465 -14.708  0.00  0.00    +0.144 HD
ATOM     16  H   UNL     1      31.757 -25.737 -13.198  0.00  0.00    +0.144 HD
ENDBRANCH  11  14
ENDBRANCH   7  11
BRANCH   5  17
ATOM     17  C   UNL     1      35.449 -20.568 -20.637  0.00  0.00    +0.112 C 
BRANCH  17  18
ATOM     18  C   UNL     1      35.079 -19.331 -21.382  0.00  0.00    -0.013 C 
ATOM     19  C   UNL     1      35.270 -18.080 -20.795  0.00  0.00    -0.004 C 
ATOM     20  C   UNL     1      34.541 -19.425 -22.666  0.00  0.00    -0.004 C 
ATOM     21  C   UNL     1      34.385 -17.016 -22.774  0.00  0.00    +0.018 C 
ATOM     22  C   UNL     1      34.923 -16.922 -21.491  0.00  0.00    +0.001 C 
ATOM     23  C   UNL     1      34.194 -18.266 -23.362  0.00  0.00    +0.001 C 
BRANCH  21  25
ATOM     24  N   UNL     1      33.582 -16.021 -24.756  0.00  0.00    -0.244 NA
ATOM     25  C   UNL     1      34.025 -15.815 -23.497  0.00  0.00    +0.081 C 
ATOM     26  C   UNL     1      34.140 -14.570 -22.906  0.00  0.00    +0.019 C 
ATOM     27  C   UNL     1      33.776 -13.458 -23.658  0.00  0.00    +0.003 C 
ATOM     28  C   UNL     1      33.238 -14.918 -25.458  0.00  0.00    +0.099 C 
ATOM     29  C   UNL     1      33.315 -13.627 -24.960  0.00  0.00    +0.021 C 
ENDBRANCH  21  25
ENDBRANCH  17  18
ENDBRANCH   5  17
TORSDOF 5
ENDMDL
MODEL 9
REMARK VINA RESULT:      -9.1      6.401      9.119
REMARK  Name = 491941
REMARK  5 active torsions:
REMARK  status: ('A' for Active; 'I' for Inactive)
REMARK    1  A    between atoms: C_5  and  C_17
REMARK    2  A    between atoms: C_7  and  S_11
REMARK    3  A    between atoms: S_11  and  N_14
REMARK    4  A    between atoms: C_17  and  C_18
REMARK    5  A    between atoms: C_21  and  C_25
REMARK                            x       y       z     vdW  Elec       q    Type
REMARK                         _______ _______ _______ _____ _____    ______ ____
ROOT
ATOM      1  S   UNL     1      31.758  -7.085 -24.143  0.00  0.00    -0.035 S 
ATOM      2  O   UNL     1      32.323 -11.264 -22.879  0.00  0.00    -0.274 OA
ATOM      3  N   UNL     1      32.779  -9.490 -24.358  0.00  0.00    -0.227 N 
ATOM      4  N   UNL     1      32.477  -8.570 -22.151  0.00  0.00    -0.386 NA
ATOM      5  C   UNL     1      32.706 -10.853 -23.979  0.00  0.00    +0.236 C 
ATOM      6  C   UNL     1      32.386  -8.483 -23.426  0.00  0.00    +0.217 C 
ATOM      7  C   UNL     1      31.555  -6.459 -22.560  0.00  0.00    +0.247 C 
ATOM      8  C   UNL     1      31.991  -7.385 -21.636  0.00  0.00    +0.123 C 
ATOM      9  C   UNL     1      33.250  -9.090 -25.694  0.00  0.00    +0.123 C 
ATOM     10  C   UNL     1      31.980  -7.214 -20.168  0.00  0.00    +0.064 C 
ENDROOT
BRANCH   7  11
ATOM     11  S   UNL     1      30.872  -4.848 -22.467  0.00  0.00    +0.052 S 
ATOM     12  O   UNL     1      30.121  -4.653 -23.704  0.00  0.00    -0.157 OA
ATOM     13  O   UNL     1      30.196  -4.791 -21.176  0.00  0.00    -0.157 OA
BRANCH  11  14
ATOM     14  N   UNL     1      32.154  -3.701 -22.453  0.00  0.00    -0.206 NA
ATOM     15  H   UNL     1      33.009  -4.144 -22.786  0.00  0.00    +0.144 HD
ATOM     16  H   UNL     1      32.294  -3.360 -21.502  0.00  0.00    +0.144 HD
ENDBRANCH  11  14
ENDBRANCH   7  11
BRANCH   5  17
ATOM     17  C   UNL     1      33.104 -11.876 -25.050  0.00  0.00    +0.112 C 
BRANCH  17  18
ATOM     18  C   UNL     1      33.457 -13.218 -24.507  0.00  0.00    -0.013 C 
ATOM     19  C   UNL     1      34.049 -13.329 -23.248  0.00  0.00    -0.004 C 
ATOM     20  C   UNL     1      33.196 -14.365 -25.258  0.00  0.00    -0.004 C 
ATOM     21  C   UNL     1      34.119 -15.731 -23.491  0.00  0.00    +0.018 C 
ATOM     22  C   UNL     1      34.380 -14.585 -22.740  0.00  0.00    +0.001 C 
ATOM     23  C   UNL     1      33.527 -15.622 -24.749  0.00  0.00    +0.001 C 
BRANCH  21  25
ATOM     24  N   UNL     1      34.920 -17.032 -21.695  0.00  0.00    -0.244 NA
ATOM     25  C   UNL     1      34.461 -17.034 -22.965  0.00  0.00    +0.081 C 
ATOM     26  C   UNL     1      34.312 -18.173 -23.737  0.00  0.00    +0.019 C 
ATOM     27  C   UNL     1      34.660 -19.393 -23.167  0.00  0.00    +0.003 C 
ATOM     28  C   UNL     1      35.249 -18.236 -21.174  0.00  0.00    +0.099 C 
ATOM     29  C   UNL     1      35.138 -19.433 -21.862  0.00  0.00    +0.021 C 
ENDBRANCH  21  25
ENDBRANCH  17  18
ENDBRANCH   5  17
TORSDOF 5
ENDMDL
