MODEL 1
REMARK VINA RESULT:     -12.5      0.000      0.000
REMARK  Name = 25174099
REMARK  5 active torsions:
REMARK  status: ('A' for Active; 'I' for Inactive)
REMARK    1  A    between atoms: C_5  and  C_33
REMARK    2  A    between atoms: C_14  and  C_18
REMARK    3  A    between atoms: N_17  and  C_20
REMARK    4  A    between atoms: C_20  and  C_24
REMARK    5  A    between atoms: C_33  and  C_36
REMARK                            x       y       z     vdW  Elec       q    Type
REMARK                         _______ _______ _______ _____ _____    ______ ____
ROOT
ATOM      1  S   UNL     1      34.226 -23.959 -14.718  0.00  0.00    -0.064 S 
ATOM      2  O   UNL     1      31.253 -22.485 -18.379  0.00  0.00    -0.274 OA
ATOM      3  N   UNL     1      35.106 -22.666 -16.890  0.00  0.00    -0.379 NA
ATOM      4  N   UNL     1      33.512 -22.028 -18.555  0.00  0.00    -0.255 N 
ATOM      5  C   UNL     1      30.334 -23.923 -15.747  0.00  0.00    +0.028 C 
ATOM      6  C   UNL     1      29.843 -25.046 -14.800  0.00  0.00    +0.005 C 
ATOM      7  C   UNL     1      31.836 -23.781 -15.672  0.00  0.00    -0.027 C 
ATOM      8  C   UNL     1      30.466 -24.945 -13.401  0.00  0.00    +0.006 C 
ATOM      9  C   UNL     1      31.995 -25.051 -13.448  0.00  0.00    +0.032 C 
ATOM     10  C   UNL     1      32.558 -24.273 -14.598  0.00  0.00    +0.002 C 
ATOM     11  C   UNL     1      32.705 -23.161 -16.629  0.00  0.00    +0.154 C 
ATOM     12  C   UNL     1      34.033 -23.179 -16.223  0.00  0.00    +0.152 C 
ATOM     13  C   UNL     1      32.386 -22.541 -17.913  0.00  0.00    +0.239 C 
ATOM     14  C   UNL     1      34.789 -22.115 -18.021  0.00  0.00    +0.240 C 
ATOM     15  H   UNL     1      33.395 -21.584 -19.426  0.00  0.00    +0.157 HD
ENDROOT
BRANCH  14  18
ATOM     16  O   UNL     1      36.997 -21.941 -18.716  0.00  0.00    -0.266 OA
ATOM     17  N   UNL     1      35.406 -20.524 -19.695  0.00  0.00    -0.294 N 
ATOM     18  C   UNL     1      35.858 -21.515 -18.852  0.00  0.00    +0.290 C 
ATOM     19  H   UNL     1      34.447 -20.299 -19.683  0.00  0.00    +0.150 HD
BRANCH  17  20
ATOM     20  C   UNL     1      36.271 -19.800 -20.599  0.00  0.00    +0.117 C 
BRANCH  20  24
ATOM     21  O   UNL     1      33.276 -16.993 -24.491  0.00  0.00    -0.464 OA
ATOM     22  O   UNL     1      33.951 -13.591 -23.475  0.00  0.00    -0.271 OA
ATOM     23  N   UNL     1      34.708 -15.545 -22.527  0.00  0.00    -0.279 N 
ATOM     24  C   UNL     1      35.491 -19.039 -21.632  0.00  0.00    -0.001 C 
ATOM     25  C   UNL     1      34.755 -16.942 -22.572  0.00  0.00    +0.085 C 
ATOM     26  C   UNL     1      35.476 -17.644 -21.605  0.00  0.00    +0.015 C 
ATOM     27  C   UNL     1      34.045 -17.628 -23.557  0.00  0.00    +0.153 C 
ATOM     28  C   UNL     1      34.779 -19.728 -22.614  0.00  0.00    +0.001 C 
ATOM     29  C   UNL     1      34.049 -19.023 -23.572  0.00  0.00    +0.038 C 
ATOM     30  C   UNL     1      33.621 -15.637 -24.699  0.00  0.00    +0.290 C 
ATOM     31  C   UNL     1      34.077 -14.813 -23.506  0.00  0.00    +0.271 C 
ATOM     32  H   UNL     1      35.137 -15.074 -21.777  0.00  0.00    +0.155 HD
ENDBRANCH  20  24
ENDBRANCH  17  20
ENDBRANCH  14  18
BRANCH   5  33
ATOM     33  C   UNL     1      29.636 -22.597 -15.424  0.00  0.00    +0.089 C 
BRANCH  33  36
ATOM     34  O   UNL     1      27.269 -22.068 -15.473  0.00  0.00    -0.275 OA
ATOM     35  N   UNL     1      28.248 -23.012 -17.328  0.00  0.00    -0.329 N 
ATOM     36  C   UNL     1      28.261 -22.517 -16.042  0.00  0.00    +0.220 C 
ATOM     37  H   UNL     1      27.410 -23.017 -17.845  0.00  0.00    +0.145 HD
ATOM     38  H   UNL     1      29.076 -23.359 -17.730  0.00  0.00    +0.145 HD
ENDBRANCH  33  36
ENDBRANCH   5  33
TORSDOF 5
ENDMDL
MODEL 2
REMARK VINA RESULT:     -12.3      5.065     12.018
REMARK  Name = 25174099
REMARK  5 active torsions:
REMARK  status: ('A' for Active; 'I' for Inactive)
REMARK    1  A    between atoms: C_5  and  C_33
REMARK    2  A    between atoms: C_14  and  C_18
REMARK    3  A    between atoms: N_17  and  C_20
REMARK    4  A    between atoms: C_20  and  C_24
REMARK    5  A    between atoms: C_33  and  C_36
REMARK                            x       y       z     vdW  Elec       q    Type
REMARK                         _______ _______ _______ _____ _____    ______ ____
ROOT
ATOM      1  S   UNL     1      33.542 -10.403 -26.220  0.00  0.00    -0.064 S 
ATOM      2  O   UNL     1      32.426 -12.423 -21.851  0.00  0.00    -0.274 OA
ATOM      3  N   UNL     1      33.436 -13.046 -25.811  0.00  0.00    -0.379 NA
ATOM      4  N   UNL     1      32.873 -13.836 -23.625  0.00  0.00    -0.255 N 
ATOM      5  C   UNL     1      32.492  -9.351 -22.479  0.00  0.00    +0.028 C 
ATOM      6  C   UNL     1      32.991  -7.885 -22.511  0.00  0.00    +0.005 C 
ATOM      7  C   UNL     1      32.868 -10.070 -23.752  0.00  0.00    -0.027 C 
ATOM      8  C   UNL     1      32.656  -7.183 -23.835  0.00  0.00    +0.006 C 
ATOM      9  C   UNL     1      33.298  -7.890 -25.035  0.00  0.00    +0.032 C 
ATOM     10  C   UNL     1      33.194  -9.379 -24.906  0.00  0.00    +0.002 C 
ATOM     11  C   UNL     1      32.945 -11.486 -23.967  0.00  0.00    +0.154 C 
ATOM     12  C   UNL     1      33.290 -11.801 -25.275  0.00  0.00    +0.152 C 
ATOM     13  C   UNL     1      32.717 -12.584 -23.032  0.00  0.00    +0.239 C 
ATOM     14  C   UNL     1      33.218 -13.999 -24.959  0.00  0.00    +0.240 C 
ATOM     15  H   UNL     1      32.732 -14.639 -23.074  0.00  0.00    +0.157 HD
ENDROOT
BRANCH  14  18
ATOM     16  O   UNL     1      33.000 -15.675 -26.550  0.00  0.00    -0.266 OA
ATOM     17  N   UNL     1      33.840 -16.248 -24.437  0.00  0.00    -0.294 N 
ATOM     18  C   UNL     1      33.341 -15.406 -25.406  0.00  0.00    +0.290 C 
ATOM     19  H   UNL     1      34.068 -15.867 -23.558  0.00  0.00    +0.150 HD
BRANCH  17  20
ATOM     20  C   UNL     1      34.047 -17.662 -24.649  0.00  0.00    +0.117 C 
BRANCH  20  24
ATOM     21  O   UNL     1      35.509 -20.271 -19.848  0.00  0.00    -0.464 OA
ATOM     22  O   UNL     1      32.358 -21.815 -18.984  0.00  0.00    -0.271 OA
ATOM     23  N   UNL     1      32.855 -20.494 -20.800  0.00  0.00    -0.279 N 
ATOM     24  C   UNL     1      34.422 -18.371 -23.380  0.00  0.00    -0.001 C 
ATOM     25  C   UNL     1      33.820 -19.777 -21.514  0.00  0.00    +0.085 C 
ATOM     26  C   UNL     1      33.464 -19.115 -22.689  0.00  0.00    +0.015 C 
ATOM     27  C   UNL     1      35.122 -19.691 -21.024  0.00  0.00    +0.153 C 
ATOM     28  C   UNL     1      35.725 -18.281 -22.890  0.00  0.00    +0.001 C 
ATOM     29  C   UNL     1      36.074 -18.934 -21.708  0.00  0.00    +0.038 C 
ATOM     30  C   UNL     1      34.674 -21.331 -19.424  0.00  0.00    +0.290 C 
ATOM     31  C   UNL     1      33.181 -21.226 -19.682  0.00  0.00    +0.271 C 
ATOM     32  H   UNL     1      31.919 -20.475 -21.104  0.00  0.00    +0.155 HD
ENDBRANCH  20  24
ENDBRANCH  17  20
ENDBRANCH  14  18
BRANCH   5  33
ATOM     33  C   UNL     1      30.980  -9.404 -22.238  0.00  0.00    +0.089 C 
BRANCH  33  36
ATOM     34  O   UNL     1      30.892  -9.331 -19.815  0.00  0.00    -0.275 OA
ATOM     35  N   UNL     1      30.022 -11.153 -20.916  0.00  0.00    -0.329 N 
ATOM     36  C   UNL     1      30.644  -9.924 -20.861  0.00  0.00    +0.220 C 
ATOM     37  H   UNL     1      29.750 -11.605 -20.085  0.00  0.00    +0.145 HD
ATOM     38  H   UNL     1      29.850 -11.579 -21.786  0.00  0.00    +0.145 HD
ENDBRANCH  33  36
ENDBRANCH   5  33
TORSDOF 5
ENDMDL
MODEL 3
REMARK VINA RESULT:     -12.2      4.732     12.043
REMARK  Name = 25174099
REMARK  5 active torsions:
REMARK  status: ('A' for Active; 'I' for Inactive)
REMARK    1  A    between atoms: C_5  and  C_33
REMARK    2  A    between atoms: C_14  and  C_18
REMARK    3  A    between atoms: N_17  and  C_20
REMARK    4  A    between atoms: C_20  and  C_24
REMARK    5  A    between atoms: C_33  and  C_36
REMARK                            x       y       z     vdW  Elec       q    Type
REMARK                         _______ _______ _______ _____ _____    ______ ____
ROOT
ATOM      1  S   UNL     1      31.875 -12.429 -21.089  0.00  0.00    -0.064 S 
ATOM      2  O   UNL     1      33.093 -10.658 -25.539  0.00  0.00    -0.274 OA
ATOM      3  N   UNL     1      32.824 -13.962 -23.068  0.00  0.00    -0.379 NA
ATOM      4  N   UNL     1      33.363 -12.921 -25.152  0.00  0.00    -0.255 N 
ATOM      5  C   UNL     1      32.060  -8.955 -23.115  0.00  0.00    +0.028 C 
ATOM      6  C   UNL     1      31.101  -8.127 -22.225  0.00  0.00    +0.005 C 
ATOM      7  C   UNL     1      32.103 -10.394 -22.658  0.00  0.00    -0.027 C 
ATOM      8  C   UNL     1      31.329  -8.377 -20.728  0.00  0.00    +0.006 C 
ATOM      9  C   UNL     1      31.110  -9.849 -20.356  0.00  0.00    +0.032 C 
ATOM     10  C   UNL     1      31.698 -10.763 -21.387  0.00  0.00    +0.002 C 
ATOM     11  C   UNL     1      32.537 -11.538 -23.407  0.00  0.00    +0.154 C 
ATOM     12  C   UNL     1      32.475 -12.708 -22.662  0.00  0.00    +0.152 C 
ATOM     13  C   UNL     1      33.014 -11.623 -24.784  0.00  0.00    +0.239 C 
ATOM     14  C   UNL     1      33.252 -14.003 -24.292  0.00  0.00    +0.240 C 
ATOM     15  H   UNL     1      33.703 -13.077 -26.063  0.00  0.00    +0.157 HD
ENDROOT
BRANCH  14  18
ATOM     16  O   UNL     1      33.591 -15.446 -26.077  0.00  0.00    -0.266 OA
ATOM     17  N   UNL     1      34.098 -16.208 -23.917  0.00  0.00    -0.294 N 
ATOM     18  C   UNL     1      33.667 -15.304 -24.864  0.00  0.00    +0.290 C 
ATOM     19  H   UNL     1      34.097 -15.932 -22.973  0.00  0.00    +0.150 HD
BRANCH  17  20
ATOM     20  C   UNL     1      34.552 -17.540 -24.246  0.00  0.00    +0.117 C 
BRANCH  20  24
ATOM     21  O   UNL     1      35.546 -20.596 -19.591  0.00  0.00    -0.464 OA
ATOM     22  O   UNL     1      32.230 -21.888 -18.963  0.00  0.00    -0.271 OA
ATOM     23  N   UNL     1      32.929 -20.500 -20.659  0.00  0.00    -0.279 N 
ATOM     24  C   UNL     1      34.801 -18.366 -23.017  0.00  0.00    -0.001 C 
ATOM     25  C   UNL     1      33.987 -19.832 -21.281  0.00  0.00    +0.085 C 
ATOM     26  C   UNL     1      33.748 -19.060 -22.419  0.00  0.00    +0.015 C 
ATOM     27  C   UNL     1      35.268 -19.903 -20.736  0.00  0.00    +0.153 C 
ATOM     28  C   UNL     1      36.083 -18.433 -22.471  0.00  0.00    +0.001 C 
ATOM     29  C   UNL     1      36.316 -19.196 -21.326  0.00  0.00    +0.038 C 
ATOM     30  C   UNL     1      34.599 -21.598 -19.277  0.00  0.00    +0.290 C 
ATOM     31  C   UNL     1      33.135 -21.334 -19.585  0.00  0.00    +0.271 C 
ATOM     32  H   UNL     1      32.013 -20.371 -20.997  0.00  0.00    +0.155 HD
ENDBRANCH  20  24
ENDBRANCH  17  20
ENDBRANCH  14  18
BRANCH   5  33
ATOM     33  C   UNL     1      33.462  -8.335 -23.125  0.00  0.00    +0.089 C 
BRANCH  33  36
ATOM     34  O   UNL     1      33.095  -6.668 -24.848  0.00  0.00    -0.275 OA
ATOM     35  N   UNL     1      34.849  -8.140 -25.064  0.00  0.00    -0.329 N 
ATOM     36  C   UNL     1      33.752  -7.613 -24.417  0.00  0.00    +0.220 C 
ATOM     37  H   UNL     1      35.146  -7.758 -25.921  0.00  0.00    +0.145 HD
ATOM     38  H   UNL     1      35.336  -8.898 -24.668  0.00  0.00    +0.145 HD
ENDBRANCH  33  36
ENDBRANCH   5  33
TORSDOF 5
ENDMDL
MODEL 4
REMARK VINA RESULT:     -12.1      1.993      2.994
REMARK  Name = 25174099
REMARK  5 active torsions:
REMARK  status: ('A' for Active; 'I' for Inactive)
REMARK    1  A    between atoms: C_5  and  C_33
REMARK    2  A    between atoms: C_14  and  C_18
REMARK    3  A    between atoms: N_17  and  C_20
REMARK    4  A    between atoms: C_20  and  C_24
REMARK    5  A    between atoms: C_33  and  C_36
REMARK                            x       y       z     vdW  Elec       q    Type
REMARK                         _______ _______ _______ _____ _____    ______ ____
ROOT
ATOM      1  S   UNL     1      36.958 -22.034 -16.497  0.00  0.00    -0.064 S 
ATOM      2  O   UNL     1      32.646 -22.521 -18.862  0.00  0.00    -0.274 OA
ATOM      3  N   UNL     1      36.444 -20.886 -18.860  0.00  0.00    -0.379 NA
ATOM      4  N   UNL     1      34.293 -21.234 -19.848  0.00  0.00    -0.255 N 
ATOM      5  C   UNL     1      33.336 -23.737 -16.055  0.00  0.00    +0.028 C 
ATOM      6  C   UNL     1      33.713 -24.785 -14.977  0.00  0.00    +0.005 C 
ATOM      7  C   UNL     1      34.563 -22.995 -16.528  0.00  0.00    -0.027 C 
ATOM      8  C   UNL     1      34.639 -24.206 -13.898  0.00  0.00    +0.006 C 
ATOM      9  C   UNL     1      35.959 -23.696 -14.493  0.00  0.00    +0.032 C 
ATOM     10  C   UNL     1      35.727 -22.966 -15.780  0.00  0.00    +0.002 C 
ATOM     11  C   UNL     1      34.721 -22.250 -17.744  0.00  0.00    +0.154 C 
ATOM     12  C   UNL     1      35.976 -21.665 -17.843  0.00  0.00    +0.152 C 
ATOM     13  C   UNL     1      33.774 -22.038 -18.835  0.00  0.00    +0.239 C 
ATOM     14  C   UNL     1      35.577 -20.709 -19.809  0.00  0.00    +0.240 C 
ATOM     15  H   UNL     1      33.725 -21.029 -20.625  0.00  0.00    +0.157 HD
ENDROOT
BRANCH  14  18
ATOM     16  O   UNL     1      37.072 -19.392 -20.998  0.00  0.00    -0.266 OA
ATOM     17  N   UNL     1      34.948 -19.773 -21.917  0.00  0.00    -0.294 N 
ATOM     18  C   UNL     1      35.951 -19.881 -20.979  0.00  0.00    +0.290 C 
ATOM     19  H   UNL     1      34.096 -20.235 -21.747  0.00  0.00    +0.150 HD
BRANCH  17  20
ATOM     20  C   UNL     1      35.090 -19.016 -23.140  0.00  0.00    +0.117 C 
BRANCH  20  24
ATOM     21  O   UNL     1      33.843 -13.555 -22.358  0.00  0.00    -0.464 OA
ATOM     22  O   UNL     1      32.748 -12.674 -25.688  0.00  0.00    -0.271 OA
ATOM     23  N   UNL     1      33.491 -14.709 -24.916  0.00  0.00    -0.279 N 
ATOM     24  C   UNL     1      34.742 -17.569 -22.947  0.00  0.00    -0.001 C 
ATOM     25  C   UNL     1      33.936 -15.474 -23.834  0.00  0.00    +0.085 C 
ATOM     26  C   UNL     1      34.264 -16.818 -24.022  0.00  0.00    +0.015 C 
ATOM     27  C   UNL     1      34.092 -14.879 -22.583  0.00  0.00    +0.153 C 
ATOM     28  C   UNL     1      34.902 -16.975 -21.695  0.00  0.00    +0.001 C 
ATOM     29  C   UNL     1      34.585 -15.628 -21.513  0.00  0.00    +0.038 C 
ATOM     30  C   UNL     1      32.981 -12.959 -23.309  0.00  0.00    +0.290 C 
ATOM     31  C   UNL     1      33.082 -13.405 -24.758  0.00  0.00    +0.271 C 
ATOM     32  H   UNL     1      33.470 -15.113 -25.814  0.00  0.00    +0.155 HD
ENDBRANCH  20  24
ENDBRANCH  17  20
ENDBRANCH  14  18
BRANCH   5  33
ATOM     33  C   UNL     1      32.274 -22.769 -15.522  0.00  0.00    +0.089 C 
BRANCH  33  36
ATOM     34  O   UNL     1      30.258 -24.057 -15.120  0.00  0.00    -0.275 OA
ATOM     35  N   UNL     1      30.361 -22.675 -16.955  0.00  0.00    -0.329 N 
ATOM     36  C   UNL     1      30.874 -23.251 -15.813  0.00  0.00    +0.220 C 
ATOM     37  H   UNL     1      29.453 -22.905 -17.258  0.00  0.00    +0.145 HD
ATOM     38  H   UNL     1      30.904 -22.034 -17.469  0.00  0.00    +0.145 HD
ENDBRANCH  33  36
ENDBRANCH   5  33
TORSDOF 5
ENDMDL
MODEL 5
REMARK VINA RESULT:     -11.9      7.183     12.768
REMARK  Name = 25174099
REMARK  5 active torsions:
REMARK  status: ('A' for Active; 'I' for Inactive)
REMARK    1  A    between atoms: C_5  and  C_33
REMARK    2  A    between atoms: C_14  and  C_18
REMARK    3  A    between atoms: N_17  and  C_20
REMARK    4  A    between atoms: C_20  and  C_24
REMARK    5  A    between atoms: C_33  and  C_36
REMARK                            x       y       z     vdW  Elec       q    Type
REMARK                         _______ _______ _______ _____ _____    ______ ____
ROOT
ATOM      1  S   UNL     1      32.671  -8.189 -26.038  0.00  0.00    -0.064 S 
ATOM      2  O   UNL     1      32.759 -11.521 -22.390  0.00  0.00    -0.274 OA
ATOM      3  N   UNL     1      32.805 -10.828 -26.466  0.00  0.00    -0.379 NA
ATOM      4  N   UNL     1      32.832 -12.286 -24.570  0.00  0.00    -0.255 N 
ATOM      5  C   UNL     1      32.512  -8.416 -22.022  0.00  0.00    +0.028 C 
ATOM      6  C   UNL     1      32.911  -6.955 -21.700  0.00  0.00    +0.005 C 
ATOM      7  C   UNL     1      32.602  -8.679 -23.506  0.00  0.00    -0.027 C 
ATOM      8  C   UNL     1      32.228  -5.943 -22.632  0.00  0.00    +0.006 C 
ATOM      9  C   UNL     1      32.595  -6.184 -24.102  0.00  0.00    +0.032 C 
ATOM     10  C   UNL     1      32.602  -7.646 -24.427  0.00  0.00    +0.002 C 
ATOM     11  C   UNL     1      32.698  -9.949 -24.166  0.00  0.00    +0.154 C 
ATOM     12  C   UNL     1      32.729  -9.822 -25.548  0.00  0.00    +0.152 C 
ATOM     13  C   UNL     1      32.760 -11.292 -23.596  0.00  0.00    +0.239 C 
ATOM     14  C   UNL     1      32.850 -12.009 -25.929  0.00  0.00    +0.240 C 
ATOM     15  H   UNL     1      32.871 -13.227 -24.282  0.00  0.00    +0.157 HD
ENDROOT
BRANCH  14  18
ATOM     16  O   UNL     1      33.055 -13.009 -28.013  0.00  0.00    -0.266 OA
ATOM     17  N   UNL     1      32.857 -14.391 -26.129  0.00  0.00    -0.294 N 
ATOM     18  C   UNL     1      32.932 -13.196 -26.810  0.00  0.00    +0.290 C 
ATOM     19  H   UNL     1      32.758 -14.366 -25.150  0.00  0.00    +0.150 HD
BRANCH  17  20
ATOM     20  C   UNL     1      32.918 -15.678 -26.782  0.00  0.00    +0.117 C 
BRANCH  20  24
ATOM     21  O   UNL     1      34.704 -19.792 -23.336  0.00  0.00    -0.464 OA
ATOM     22  O   UNL     1      35.576 -17.841 -20.422  0.00  0.00    -0.271 OA
ATOM     23  N   UNL     1      34.733 -17.111 -22.434  0.00  0.00    -0.279 N 
ATOM     24  C   UNL     1      33.383 -16.759 -25.850  0.00  0.00    -0.001 C 
ATOM     25  C   UNL     1      34.253 -17.440 -23.705  0.00  0.00    +0.085 C 
ATOM     26  C   UNL     1      33.828 -16.430 -24.569  0.00  0.00    +0.015 C 
ATOM     27  C   UNL     1      34.244 -18.771 -24.119  0.00  0.00    +0.153 C 
ATOM     28  C   UNL     1      33.376 -18.090 -26.268  0.00  0.00    +0.001 C 
ATOM     29  C   UNL     1      33.813 -19.096 -25.406  0.00  0.00    +0.038 C 
ATOM     30  C   UNL     1      34.730 -19.493 -21.953  0.00  0.00    +0.290 C 
ATOM     31  C   UNL     1      35.086 -18.080 -21.523  0.00  0.00    +0.271 C 
ATOM     32  H   UNL     1      34.821 -16.163 -22.184  0.00  0.00    +0.155 HD
ENDBRANCH  20  24
ENDBRANCH  17  20
ENDBRANCH  14  18
BRANCH   5  33
ATOM     33  C   UNL     1      31.108  -8.724 -21.489  0.00  0.00    +0.089 C 
BRANCH  33  36
ATOM     34  O   UNL     1      31.666  -9.087 -19.157  0.00  0.00    -0.275 OA
ATOM     35  N   UNL     1      30.543 -10.729 -20.312  0.00  0.00    -0.329 N 
ATOM     36  C   UNL     1      31.152  -9.498 -20.194  0.00  0.00    +0.220 C 
ATOM     37  H   UNL     1      30.503 -11.334 -19.537  0.00  0.00    +0.145 HD
ATOM     38  H   UNL     1      30.148 -11.002 -21.171  0.00  0.00    +0.145 HD
ENDBRANCH  33  36
ENDBRANCH   5  33
TORSDOF 5
ENDMDL
MODEL 6
REMARK VINA RESULT:     -11.8      2.433      4.073
REMARK  Name = 25174099
REMARK  5 active torsions:
REMARK  status: ('A' for Active; 'I' for Inactive)
REMARK    1  A    between atoms: C_5  and  C_33
REMARK    2  A    between atoms: C_14  and  C_18
REMARK    3  A    between atoms: N_17  and  C_20
REMARK    4  A    between atoms: C_20  and  C_24
REMARK    5  A    between atoms: C_33  and  C_36
REMARK                            x       y       z     vdW  Elec       q    Type
REMARK                         _______ _______ _______ _____ _____    ______ ____
ROOT
ATOM      1  S   UNL     1      31.020 -22.987 -16.766  0.00  0.00    -0.064 S 
ATOM      2  O   UNL     1      35.928 -22.559 -17.157  0.00  0.00    -0.274 OA
ATOM      3  N   UNL     1      32.228 -21.795 -18.836  0.00  0.00    -0.379 NA
ATOM      4  N   UNL     1      34.617 -21.689 -18.850  0.00  0.00    -0.255 N 
ATOM      5  C   UNL     1      34.401 -24.010 -14.834  0.00  0.00    +0.028 C 
ATOM      6  C   UNL     1      33.789 -24.266 -13.434  0.00  0.00    +0.005 C 
ATOM      7  C   UNL     1      33.355 -23.477 -15.783  0.00  0.00    -0.027 C 
ATOM      8  C   UNL     1      32.458 -25.028 -13.508  0.00  0.00    +0.006 C 
ATOM      9  C   UNL     1      31.403 -24.257 -14.313  0.00  0.00    +0.032 C 
ATOM     10  C   UNL     1      32.002 -23.636 -15.537  0.00  0.00    +0.002 C 
ATOM     11  C   UNL     1      33.569 -22.766 -17.011  0.00  0.00    +0.154 C 
ATOM     12  C   UNL     1      32.378 -22.452 -17.651  0.00  0.00    +0.152 C 
ATOM     13  C   UNL     1      34.820 -22.352 -17.642  0.00  0.00    +0.239 C 
ATOM     14  C   UNL     1      33.356 -21.449 -19.376  0.00  0.00    +0.240 C 
ATOM     15  H   UNL     1      35.404 -21.377 -19.354  0.00  0.00    +0.157 HD
ENDROOT
BRANCH  14  18
ATOM     16  O   UNL     1      32.256 -20.435 -21.150  0.00  0.00    -0.266 OA
ATOM     17  N   UNL     1      34.601 -20.475 -21.169  0.00  0.00    -0.294 N 
ATOM     18  C   UNL     1      33.343 -20.727 -20.669  0.00  0.00    +0.290 C 
ATOM     19  H   UNL     1      35.381 -20.780 -20.651  0.00  0.00    +0.150 HD
BRANCH  17  20
ATOM     20  C   UNL     1      34.831 -19.782 -22.416  0.00  0.00    +0.117 C 
BRANCH  20  24
ATOM     21  O   UNL     1      34.365 -14.179 -21.796  0.00  0.00    -0.464 OA
ATOM     22  O   UNL     1      33.319 -13.259 -25.130  0.00  0.00    -0.271 OA
ATOM     23  N   UNL     1      33.795 -15.353 -24.306  0.00  0.00    -0.279 N 
ATOM     24  C   UNL     1      34.690 -18.295 -22.265  0.00  0.00    -0.001 C 
ATOM     25  C   UNL     1      34.157 -16.138 -23.207  0.00  0.00    +0.085 C 
ATOM     26  C   UNL     1      34.294 -17.519 -23.355  0.00  0.00    +0.015 C 
ATOM     27  C   UNL     1      34.425 -15.532 -21.980  0.00  0.00    +0.153 C 
ATOM     28  C   UNL     1      34.961 -17.690 -21.038  0.00  0.00    +0.001 C 
ATOM     29  C   UNL     1      34.836 -16.308 -20.896  0.00  0.00    +0.038 C 
ATOM     30  C   UNL     1      33.570 -13.500 -22.749  0.00  0.00    +0.290 C 
ATOM     31  C   UNL     1      33.572 -14.001 -24.184  0.00  0.00    +0.271 C 
ATOM     32  H   UNL     1      33.697 -15.777 -25.188  0.00  0.00    +0.155 HD
ENDBRANCH  20  24
ENDBRANCH  17  20
ENDBRANCH  14  18
BRANCH   5  33
ATOM     33  C   UNL     1      35.049 -25.286 -15.383  0.00  0.00    +0.089 C 
BRANCH  33  36
ATOM     34  O   UNL     1      36.864 -26.406 -14.227  0.00  0.00    -0.275 OA
ATOM     35  N   UNL     1      37.273 -24.409 -15.293  0.00  0.00    -0.329 N 
ATOM     36  C   UNL     1      36.467 -25.455 -14.896  0.00  0.00    +0.220 C 
ATOM     37  H   UNL     1      38.224 -24.397 -15.041  0.00  0.00    +0.145 HD
ATOM     38  H   UNL     1      36.896 -23.675 -15.829  0.00  0.00    +0.145 HD
ENDBRANCH  33  36
ENDBRANCH   5  33
TORSDOF 5
ENDMDL
MODEL 7
REMARK VINA RESULT:     -11.5      3.615     11.096
REMARK  Name = 25174099
REMARK  5 active torsions:
REMARK  status: ('A' for Active; 'I' for Inactive)
REMARK    1  A    between atoms: C_5  and  C_33
REMARK    2  A    between atoms: C_14  and  C_18
REMARK    3  A    between atoms: N_17  and  C_20
REMARK    4  A    between atoms: C_20  and  C_24
REMARK    5  A    between atoms: C_33  and  C_36
REMARK                            x       y       z     vdW  Elec       q    Type
REMARK                         _______ _______ _______ _____ _____    ______ ____
ROOT
ATOM      1  S   UNL     1      32.972 -15.987 -26.716  0.00  0.00    -0.064 S 
ATOM      2  O   UNL     1      34.686 -14.115 -22.475  0.00  0.00    -0.274 OA
ATOM      3  N   UNL     1      34.061 -17.488 -24.784  0.00  0.00    -0.379 NA
ATOM      4  N   UNL     1      34.830 -16.399 -22.798  0.00  0.00    -0.255 N 
ATOM      5  C   UNL     1      33.310 -12.479 -24.770  0.00  0.00    +0.028 C 
ATOM      6  C   UNL     1      33.150 -11.533 -25.987  0.00  0.00    +0.005 C 
ATOM      7  C   UNL     1      33.346 -13.921 -25.217  0.00  0.00    -0.027 C 
ATOM      8  C   UNL     1      32.044 -11.996 -26.946  0.00  0.00    +0.006 C 
ATOM      9  C   UNL     1      32.328 -13.393 -27.512  0.00  0.00    +0.032 C 
ATOM     10  C   UNL     1      32.860 -14.310 -26.453  0.00  0.00    +0.002 C 
ATOM     11  C   UNL     1      33.854 -15.049 -24.491  0.00  0.00    +0.154 C 
ATOM     12  C   UNL     1      33.698 -16.238 -25.192  0.00  0.00    +0.152 C 
ATOM     13  C   UNL     1      34.481 -15.103 -23.173  0.00  0.00    +0.239 C 
ATOM     14  C   UNL     1      34.606 -17.504 -23.607  0.00  0.00    +0.240 C 
ATOM     15  H   UNL     1      35.253 -16.538 -21.920  0.00  0.00    +0.157 HD
ENDROOT
BRANCH  14  18
ATOM     16  O   UNL     1      34.911 -19.802 -23.723  0.00  0.00    -0.266 OA
ATOM     17  N   UNL     1      35.573 -18.687 -21.768  0.00  0.00    -0.294 N 
ATOM     18  C   UNL     1      35.048 -18.797 -23.038  0.00  0.00    +0.290 C 
ATOM     19  H   UNL     1      35.612 -17.796 -21.354  0.00  0.00    +0.150 HD
BRANCH  17  20
ATOM     20  C   UNL     1      36.069 -19.818 -21.018  0.00  0.00    +0.117 C 
BRANCH  20  24
ATOM     21  O   UNL     1      31.901 -22.444 -18.238  0.00  0.00    -0.464 OA
ATOM     22  O   UNL     1      33.830 -24.288 -15.802  0.00  0.00    -0.271 OA
ATOM     23  N   UNL     1      34.583 -22.875 -17.453  0.00  0.00    -0.279 N 
ATOM     24  C   UNL     1      34.974 -20.513 -20.262  0.00  0.00    -0.001 C 
ATOM     25  C   UNL     1      34.268 -21.998 -18.495  0.00  0.00    +0.085 C 
ATOM     26  C   UNL     1      35.291 -21.360 -19.199  0.00  0.00    +0.015 C 
ATOM     27  C   UNL     1      32.936 -21.799 -18.855  0.00  0.00    +0.153 C 
ATOM     28  C   UNL     1      33.642 -20.316 -20.626  0.00  0.00    +0.001 C 
ATOM     29  C   UNL     1      32.622 -20.964 -19.928  0.00  0.00    +0.038 C 
ATOM     30  C   UNL     1      32.208 -22.926 -16.944  0.00  0.00    +0.290 C 
ATOM     31  C   UNL     1      33.606 -23.460 -16.682  0.00  0.00    +0.271 C 
ATOM     32  H   UNL     1      35.528 -23.078 -17.265  0.00  0.00    +0.155 HD
ENDBRANCH  20  24
ENDBRANCH  17  20
ENDBRANCH  14  18
BRANCH   5  33
ATOM     33  C   UNL     1      32.190 -12.243 -23.750  0.00  0.00    +0.089 C 
BRANCH  33  36
ATOM     34  O   UNL     1      33.151 -10.061 -23.306  0.00  0.00    -0.275 OA
ATOM     35  N   UNL     1      31.636 -10.945 -21.818  0.00  0.00    -0.329 N 
ATOM     36  C   UNL     1      32.397 -10.970 -22.967  0.00  0.00    +0.220 C 
ATOM     37  H   UNL     1      31.679 -10.168 -21.216  0.00  0.00    +0.145 HD
ATOM     38  H   UNL     1      31.050 -11.705 -21.600  0.00  0.00    +0.145 HD
ENDBRANCH  33  36
ENDBRANCH   5  33
TORSDOF 5
ENDMDL
MODEL 8
REMARK VINA RESULT:     -11.4      2.251      3.214
REMARK  Name = 25174099
REMARK  5 active torsions:
REMARK  status: ('A' for Active; 'I' for Inactive)
REMARK    1  A    between atoms: C_5  and  C_33
REMARK    2  A    between atoms: C_14  and  C_18
REMARK    3  A    between atoms: N_17  and  C_20
REMARK    4  A    between atoms: C_20  and  C_24
REMARK    5  A    between atoms: C_33  and  C_36
REMARK                            x       y       z     vdW  Elec       q    Type
REMARK                         _______ _______ _______ _____ _____    ______ ____
ROOT
ATOM      1  S   UNL     1      37.008 -22.063 -16.642  0.00  0.00    -0.064 S 
ATOM      2  O   UNL     1      32.763 -22.110 -19.172  0.00  0.00    -0.274 OA
ATOM      3  N   UNL     1      36.601 -20.606 -18.851  0.00  0.00    -0.379 NA
ATOM      4  N   UNL     1      34.475 -20.758 -19.936  0.00  0.00    -0.255 N 
ATOM      5  C   UNL     1      33.330 -23.697 -16.527  0.00  0.00    +0.028 C 
ATOM      6  C   UNL     1      33.644 -24.884 -15.583  0.00  0.00    +0.005 C 
ATOM      7  C   UNL     1      34.591 -22.938 -16.865  0.00  0.00    -0.027 C 
ATOM      8  C   UNL     1      34.550 -24.478 -14.413  0.00  0.00    +0.006 C 
ATOM      9  C   UNL     1      35.901 -23.937 -14.898  0.00  0.00    +0.032 C 
ATOM     10  C   UNL     1      35.731 -23.040 -16.086  0.00  0.00    +0.002 C 
ATOM     11  C   UNL     1      34.807 -22.048 -17.970  0.00  0.00    +0.154 C 
ATOM     12  C   UNL     1      36.080 -21.494 -17.957  0.00  0.00    +0.152 C 
ATOM     13  C   UNL     1      33.902 -21.669 -19.051  0.00  0.00    +0.239 C 
ATOM     14  C   UNL     1      35.770 -20.282 -19.793  0.00  0.00    +0.240 C 
ATOM     15  H   UNL     1      33.938 -20.438 -20.696  0.00  0.00    +0.157 HD
ENDROOT
BRANCH  14  18
ATOM     16  O   UNL     1      37.386 -19.318 -21.153  0.00  0.00    -0.266 OA
ATOM     17  N   UNL     1      35.179 -18.540 -21.321  0.00  0.00    -0.294 N 
ATOM     18  C   UNL     1      36.204 -19.323 -20.835  0.00  0.00    +0.290 C 
ATOM     19  H   UNL     1      34.276 -18.672 -20.954  0.00  0.00    +0.150 HD
BRANCH  17  20
ATOM     20  C   UNL     1      35.369 -17.537 -22.343  0.00  0.00    +0.117 C 
BRANCH  20  24
ATOM     21  O   UNL     1      31.791 -18.323 -26.653  0.00  0.00    -0.464 OA
ATOM     22  O   UNL     1      31.343 -14.904 -27.734  0.00  0.00    -0.271 OA
ATOM     23  N   UNL     1      32.634 -15.702 -26.006  0.00  0.00    -0.279 N 
ATOM     24  C   UNL     1      34.429 -17.729 -23.498  0.00  0.00    -0.001 C 
ATOM     25  C   UNL     1      33.113 -16.809 -25.300  0.00  0.00    +0.085 C 
ATOM     26  C   UNL     1      33.981 -16.624 -24.222  0.00  0.00    +0.015 C 
ATOM     27  C   UNL     1      32.686 -18.090 -25.646  0.00  0.00    +0.153 C 
ATOM     28  C   UNL     1      34.000 -19.011 -23.841  0.00  0.00    +0.001 C 
ATOM     29  C   UNL     1      33.122 -19.192 -24.910  0.00  0.00    +0.038 C 
ATOM     30  C   UNL     1      31.706 -17.279 -27.604  0.00  0.00    +0.290 C 
ATOM     31  C   UNL     1      31.842 -15.845 -27.121  0.00  0.00    +0.271 C 
ATOM     32  H   UNL     1      32.870 -14.797 -25.698  0.00  0.00    +0.155 HD
ENDBRANCH  20  24
ENDBRANCH  17  20
ENDBRANCH  14  18
BRANCH   5  33
ATOM     33  C   UNL     1      32.278 -22.773 -15.904  0.00  0.00    +0.089 C 
BRANCH  33  36
ATOM     34  O   UNL     1      30.288 -24.125 -15.591  0.00  0.00    -0.275 OA
ATOM     35  N   UNL     1      30.316 -22.534 -17.251  0.00  0.00    -0.329 N 
ATOM     36  C   UNL     1      30.872 -23.234 -16.203  0.00  0.00    +0.220 C 
ATOM     37  H   UNL     1      29.400 -22.737 -17.548  0.00  0.00    +0.145 HD
ATOM     38  H   UNL     1      30.834 -21.830 -17.703  0.00  0.00    +0.145 HD
ENDBRANCH  33  36
ENDBRANCH   5  33
TORSDOF 5
ENDMDL
MODEL 9
REMARK VINA RESULT:     -11.3      7.153     11.397
REMARK  Name = 25174099
REMARK  5 active torsions:
REMARK  status: ('A' for Active; 'I' for Inactive)
REMARK    1  A    between atoms: C_5  and  C_33
REMARK    2  A    between atoms: C_14  and  C_18
REMARK    3  A    between atoms: N_17  and  C_20
REMARK    4  A    between atoms: C_20  and  C_24
REMARK    5  A    between atoms: C_33  and  C_36
REMARK                            x       y       z     vdW  Elec       q    Type
REMARK                         _______ _______ _______ _____ _____    ______ ____
ROOT
ATOM      1  S   UNL     1      33.059 -15.945 -26.704  0.00  0.00    -0.064 S 
ATOM      2  O   UNL     1      34.402 -14.682 -22.119  0.00  0.00    -0.274 OA
ATOM      3  N   UNL     1      33.361 -13.405 -25.911  0.00  0.00    -0.379 NA
ATOM      4  N   UNL     1      34.022 -12.993 -23.650  0.00  0.00    -0.255 N 
ATOM      5  C   UNL     1      34.105 -17.614 -23.192  0.00  0.00    +0.028 C 
ATOM      6  C   UNL     1      33.503 -19.022 -23.427  0.00  0.00    +0.005 C 
ATOM      7  C   UNL     1      33.757 -16.688 -24.334  0.00  0.00    -0.027 C 
ATOM      8  C   UNL     1      33.760 -19.538 -24.850  0.00  0.00    +0.006 C 
ATOM      9  C   UNL     1      33.146 -18.617 -25.911  0.00  0.00    +0.032 C 
ATOM     10  C   UNL     1      33.358 -17.175 -25.567  0.00  0.00    +0.002 C 
ATOM     11  C   UNL     1      33.776 -15.254 -24.334  0.00  0.00    +0.154 C 
ATOM     12  C   UNL     1      33.429 -14.724 -25.570  0.00  0.00    +0.152 C 
ATOM     13  C   UNL     1      34.100 -14.327 -23.254  0.00  0.00    +0.239 C 
ATOM     14  C   UNL     1      33.663 -12.608 -24.933  0.00  0.00    +0.240 C 
ATOM     15  H   UNL     1      34.231 -12.292 -22.990  0.00  0.00    +0.157 HD
ENDROOT
BRANCH  14  18
ATOM     16  O   UNL     1      32.804 -10.707 -25.950  0.00  0.00    -0.266 OA
ATOM     17  N   UNL     1      34.574 -10.455 -24.433  0.00  0.00    -0.294 N 
ATOM     18  C   UNL     1      33.632 -11.145 -25.164  0.00  0.00    +0.290 C 
ATOM     19  H   UNL     1      35.171 -10.964 -23.839  0.00  0.00    +0.150 HD
BRANCH  17  20
ATOM     20  C   UNL     1      34.726  -9.019 -24.497  0.00  0.00    +0.117 C 
BRANCH  20  24
ATOM     21  O   UNL     1      30.526  -6.371 -21.788  0.00  0.00    -0.464 OA
ATOM     22  O   UNL     1      31.895  -6.268 -18.445  0.00  0.00    -0.271 OA
ATOM     23  N   UNL     1      32.830  -7.159 -20.349  0.00  0.00    -0.279 N 
ATOM     24  C   UNL     1      33.626  -8.306 -23.765  0.00  0.00    -0.001 C 
ATOM     25  C   UNL     1      32.726  -7.383 -21.725  0.00  0.00    +0.085 C 
ATOM     26  C   UNL     1      33.749  -8.053 -22.398  0.00  0.00    +0.015 C 
ATOM     27  C   UNL     1      31.582  -6.977 -22.409  0.00  0.00    +0.153 C 
ATOM     28  C   UNL     1      32.480  -7.904 -24.451  0.00  0.00    +0.001 C 
ATOM     29  C   UNL     1      31.454  -7.245 -23.772  0.00  0.00    +0.038 C 
ATOM     30  C   UNL     1      30.853  -5.761 -20.554  0.00  0.00    +0.290 C 
ATOM     31  C   UNL     1      31.883  -6.434 -19.663  0.00  0.00    +0.271 C 
ATOM     32  H   UNL     1      33.599  -7.529 -19.858  0.00  0.00    +0.155 HD
ENDBRANCH  20  24
ENDBRANCH  17  20
ENDBRANCH  14  18
BRANCH   5  33
ATOM     33  C   UNL     1      35.622 -17.700 -22.992  0.00  0.00    +0.089 C 
BRANCH  33  36
ATOM     34  O   UNL     1      36.877 -18.915 -21.309  0.00  0.00    -0.275 OA
ATOM     35  N   UNL     1      35.189 -17.500 -20.648  0.00  0.00    -0.329 N 
ATOM     36  C   UNL     1      35.984 -18.119 -21.588  0.00  0.00    +0.220 C 
ATOM     37  H   UNL     1      35.322 -17.687 -19.691  0.00  0.00    +0.145 HD
ATOM     38  H   UNL     1      34.488 -16.871 -20.933  0.00  0.00    +0.145 HD
ENDBRANCH  33  36
ENDBRANCH   5  33
TORSDOF 5
ENDMDL
