MODEL 1
REMARK VINA RESULT:     -13.5      0.000      0.000
REMARK  Name = 72734520
REMARK  6 active torsions:
REMARK  status: ('A' for Active; 'I' for Inactive)
REMARK    1  A    between atoms: N_1  and  C_19
REMARK    2  A    between atoms: C_8  and  O_28
REMARK    3  A    between atoms: C_14  and  N_20
REMARK    4  A    between atoms: O_28  and  C_29
REMARK    5  A    between atoms: C_32  and  N_36
REMARK    6  A    between atoms: C_37  and  C_39
REMARK                            x       y       z     vdW  Elec       q    Type
REMARK                         _______ _______ _______ _____ _____    ______ ____
ROOT
ATOM      1  N   UNL     1      36.427 -20.727 -18.846  0.00  0.00    -0.238 N 
ATOM      2  N   UNL     1      36.793 -22.015 -16.934  0.00  0.00    -0.316 NA
ATOM      3  N   UNL     1      34.705 -22.161 -18.179  0.00  0.00    -0.294 NA
ATOM      4  N   UNL     1      36.846 -23.472 -15.014  0.00  0.00    -0.289 N 
ATOM      5  C   UNL     1      35.949 -21.690 -17.935  0.00  0.00    +0.207 C 
ATOM      6  C   UNL     1      34.985 -23.508 -16.246  0.00  0.00    +0.181 C 
ATOM      7  C   UNL     1      36.245 -22.935 -16.121  0.00  0.00    +0.188 C 
ATOM      8  C   UNL     1      34.210 -23.085 -17.325  0.00  0.00    +0.281 C 
ATOM      9  C   UNL     1      34.838 -24.420 -15.169  0.00  0.00    +0.008 C 
ATOM     10  C   UNL     1      35.998 -24.376 -14.427  0.00  0.00    +0.060 C 
ATOM     11  H   UNL     1      37.333 -20.404 -18.641  0.00  0.00    +0.166 HD
ATOM     12  H   UNL     1      37.747 -23.245 -14.689  0.00  0.00    +0.154 HD
ENDROOT
BRANCH   1  19
ATOM     13  F   UNL     1      32.641 -19.902 -21.668  0.00  0.00    -0.203 F 
ATOM     14  C   UNL     1      34.742 -18.973 -22.272  0.00  0.00    +0.076 C 
ATOM     15  C   UNL     1      33.945 -19.728 -21.411  0.00  0.00    +0.155 C 
ATOM     16  C   UNL     1      36.098 -18.802 -21.994  0.00  0.00    +0.018 C 
ATOM     17  C   UNL     1      34.505 -20.310 -20.273  0.00  0.00    +0.046 C 
ATOM     18  C   UNL     1      36.658 -19.384 -20.857  0.00  0.00    +0.017 C 
ATOM     19  C   UNL     1      35.861 -20.138 -19.996  0.00  0.00    +0.061 C 
BRANCH  14  20
ATOM     20  N   UNL     1      34.184 -18.389 -23.414  0.00  0.00    -0.310 N 
ATOM     21  N   UNL     1      33.288 -17.166 -25.834  0.00  0.00    +0.388 N 
ATOM     22  C   UNL     1      34.460 -16.970 -23.667  0.00  0.00    +0.068 C 
ATOM     23  C   UNL     1      33.937 -19.210 -24.604  0.00  0.00    +0.068 C 
ATOM     24  C   UNL     1      33.405 -16.376 -24.602  0.00  0.00    -0.056 C 
ATOM     25  C   UNL     1      32.899 -18.543 -25.510  0.00  0.00    -0.056 C 
ATOM     26  C   UNL     1      32.316 -16.558 -26.744  0.00  0.00    -0.101 C 
ATOM     27  H   UNL     1      34.194 -17.181 -26.302  0.00  0.00    -0.080 HD
ENDBRANCH  14  20
ENDBRANCH   1  19
BRANCH   8  28
ATOM     28  O   UNL     1      32.950 -23.575 -17.560  0.00  0.00    -0.429 OA
BRANCH  28  29
ATOM     29  C   UNL     1      31.995 -23.354 -16.589  0.00  0.00    +0.149 C 
ATOM     30  C   UNL     1      30.729 -22.892 -16.950  0.00  0.00    +0.052 C 
ATOM     31  C   UNL     1      32.293 -23.593 -15.248  0.00  0.00    +0.038 C 
ATOM     32  C   UNL     1      29.762 -22.670 -15.970  0.00  0.00    +0.054 C 
ATOM     33  C   UNL     1      30.060 -22.909 -14.629  0.00  0.00    +0.015 C 
ATOM     34  C   UNL     1      31.326 -23.372 -14.268  0.00  0.00    +0.004 C 
BRANCH  32  36
ATOM     35  O   UNL     1      27.496 -24.084 -17.341  0.00  0.00    -0.270 OA
ATOM     36  N   UNL     1      28.495 -22.209 -16.331  0.00  0.00    -0.280 N 
ATOM     37  C   UNL     1      27.469 -22.916 -16.973  0.00  0.00    +0.250 C 
ATOM     38  H   UNL     1      28.297 -21.271 -16.106  0.00  0.00    +0.155 HD
BRANCH  37  39
ATOM     39  C   UNL     1      26.262 -22.065 -17.184  0.00  0.00    +0.058 C 
ATOM     40  C   UNL     1      25.874 -21.730 -18.418  0.00  0.00    +0.005 C 
ENDBRANCH  37  39
ENDBRANCH  32  36
ENDBRANCH  28  29
ENDBRANCH   8  28
TORSDOF 6
ENDMDL
MODEL 2
REMARK VINA RESULT:     -12.6      5.035     11.005
REMARK  Name = 72734520
REMARK  6 active torsions:
REMARK  status: ('A' for Active; 'I' for Inactive)
REMARK    1  A    between atoms: N_1  and  C_19
REMARK    2  A    between atoms: C_8  and  O_28
REMARK    3  A    between atoms: C_14  and  N_20
REMARK    4  A    between atoms: O_28  and  C_29
REMARK    5  A    between atoms: C_32  and  N_36
REMARK    6  A    between atoms: C_37  and  C_39
REMARK                            x       y       z     vdW  Elec       q    Type
REMARK                         _______ _______ _______ _____ _____    ______ ____
ROOT
ATOM      1  N   UNL     1      33.488 -18.302 -24.223  0.00  0.00    -0.238 N 
ATOM      2  N   UNL     1      32.995 -16.681 -25.828  0.00  0.00    -0.316 NA
ATOM      3  N   UNL     1      33.850 -16.070 -23.632  0.00  0.00    -0.294 NA
ATOM      4  N   UNL     1      32.588 -14.772 -27.243  0.00  0.00    -0.289 N 
ATOM      5  C   UNL     1      33.442 -16.941 -24.583  0.00  0.00    +0.207 C 
ATOM      6  C   UNL     1      33.375 -14.352 -25.198  0.00  0.00    +0.181 C 
ATOM      7  C   UNL     1      32.986 -15.359 -26.072  0.00  0.00    +0.188 C 
ATOM      8  C   UNL     1      33.818 -14.753 -23.939  0.00  0.00    +0.281 C 
ATOM      9  C   UNL     1      33.198 -13.121 -25.881  0.00  0.00    +0.008 C 
ATOM     10  C   UNL     1      32.712 -13.410 -27.138  0.00  0.00    +0.060 C 
ATOM     11  H   UNL     1      33.184 -18.910 -24.935  0.00  0.00    +0.166 HD
ATOM     12  H   UNL     1      32.262 -15.252 -28.039  0.00  0.00    +0.154 HD
ENDROOT
BRANCH   1  19
ATOM     13  F   UNL     1      32.384 -20.497 -20.108  0.00  0.00    -0.203 F 
ATOM     14  C   UNL     1      34.671 -20.275 -20.708  0.00  0.00    +0.076 C 
ATOM     15  C   UNL     1      33.317 -20.070 -20.970  0.00  0.00    +0.155 C 
ATOM     16  C   UNL     1      35.632 -19.823 -21.613  0.00  0.00    +0.018 C 
ATOM     17  C   UNL     1      32.923 -19.415 -22.138  0.00  0.00    +0.046 C 
ATOM     18  C   UNL     1      35.239 -19.169 -22.780  0.00  0.00    +0.017 C 
ATOM     19  C   UNL     1      33.885 -18.965 -23.043  0.00  0.00    +0.061 C 
BRANCH  14  20
ATOM     20  N   UNL     1      35.068 -20.930 -19.538  0.00  0.00    -0.310 N 
ATOM     21  N   UNL     1      35.941 -22.472 -17.297  0.00  0.00    +0.388 N 
ATOM     22  C   UNL     1      34.314 -22.120 -19.123  0.00  0.00    +0.068 C 
ATOM     23  C   UNL     1      36.475 -20.897 -19.127  0.00  0.00    +0.068 C 
ATOM     24  C   UNL     1      34.514 -22.390 -17.630  0.00  0.00    -0.056 C 
ATOM     25  C   UNL     1      36.606 -21.207 -17.633  0.00  0.00    -0.056 C 
ATOM     26  C   UNL     1      36.120 -22.784 -15.879  0.00  0.00    -0.101 C 
ATOM     27  H   UNL     1      36.364 -23.221 -17.844  0.00  0.00    -0.080 HD
ENDBRANCH  14  20
ENDBRANCH   1  19
BRANCH   8  28
ATOM     28  O   UNL     1      34.231 -13.857 -22.985  0.00  0.00    -0.429 OA
BRANCH  28  29
ATOM     29  C   UNL     1      33.253 -13.242 -22.230  0.00  0.00    +0.149 C 
ATOM     30  C   UNL     1      32.652 -12.070 -22.690  0.00  0.00    +0.052 C 
ATOM     31  C   UNL     1      32.865 -13.792 -21.009  0.00  0.00    +0.038 C 
ATOM     32  C   UNL     1      31.662 -11.449 -21.928  0.00  0.00    +0.054 C 
ATOM     33  C   UNL     1      31.274 -11.999 -20.707  0.00  0.00    +0.015 C 
ATOM     34  C   UNL     1      31.874 -13.171 -20.247  0.00  0.00    +0.004 C 
BRANCH  32  36
ATOM     35  O   UNL     1      32.618  -8.604 -21.833  0.00  0.00    -0.270 OA
ATOM     36  N   UNL     1      31.060 -10.277 -22.389  0.00  0.00    -0.280 N 
ATOM     37  C   UNL     1      31.554  -8.967 -22.318  0.00  0.00    +0.250 C 
ATOM     38  H   UNL     1      30.180 -10.384 -22.816  0.00  0.00    +0.155 HD
BRANCH  37  39
ATOM     39  C   UNL     1      30.606  -7.989 -22.926  0.00  0.00    +0.058 C 
ATOM     40  C   UNL     1      30.589  -6.717 -22.518  0.00  0.00    +0.005 C 
ENDBRANCH  37  39
ENDBRANCH  32  36
ENDBRANCH  28  29
ENDBRANCH   8  28
TORSDOF 6
ENDMDL
MODEL 3
REMARK VINA RESULT:     -12.4      5.911     11.888
REMARK  Name = 72734520
REMARK  6 active torsions:
REMARK  status: ('A' for Active; 'I' for Inactive)
REMARK    1  A    between atoms: N_1  and  C_19
REMARK    2  A    between atoms: C_8  and  O_28
REMARK    3  A    between atoms: C_14  and  N_20
REMARK    4  A    between atoms: O_28  and  C_29
REMARK    5  A    between atoms: C_32  and  N_36
REMARK    6  A    between atoms: C_37  and  C_39
REMARK                            x       y       z     vdW  Elec       q    Type
REMARK                         _______ _______ _______ _____ _____    ______ ____
ROOT
ATOM      1  N   UNL     1      33.272 -16.424 -25.461  0.00  0.00    -0.238 N 
ATOM      2  N   UNL     1      32.655 -14.620 -26.808  0.00  0.00    -0.316 NA
ATOM      3  N   UNL     1      33.515 -14.283 -24.556  0.00  0.00    -0.294 NA
ATOM      4  N   UNL     1      32.110 -12.554 -27.926  0.00  0.00    -0.289 N 
ATOM      5  C   UNL     1      33.140 -15.030 -25.618  0.00  0.00    +0.207 C 
ATOM      6  C   UNL     1      32.911 -12.388 -25.850  0.00  0.00    +0.181 C 
ATOM      7  C   UNL     1      32.565 -13.280 -26.857  0.00  0.00    +0.188 C 
ATOM      8  C   UNL     1      33.401 -12.940 -24.667  0.00  0.00    +0.281 C 
ATOM      9  C   UNL     1      32.650 -11.085 -26.344  0.00  0.00    +0.008 C 
ATOM     10  C   UNL     1      32.157 -11.218 -27.625  0.00  0.00    +0.060 C 
ATOM     11  H   UNL     1      32.991 -16.940 -26.251  0.00  0.00    +0.166 HD
ATOM     12  H   UNL     1      31.798 -12.934 -28.779  0.00  0.00    +0.154 HD
ENDROOT
BRANCH   1  19
ATOM     13  F   UNL     1      35.117 -16.834 -21.057  0.00  0.00    -0.203 F 
ATOM     14  C   UNL     1      34.636 -18.810 -22.284  0.00  0.00    +0.076 C 
ATOM     15  C   UNL     1      34.660 -17.420 -22.172  0.00  0.00    +0.155 C 
ATOM     16  C   UNL     1      34.160 -19.407 -23.452  0.00  0.00    +0.018 C 
ATOM     17  C   UNL     1      34.206 -16.627 -23.228  0.00  0.00    +0.046 C 
ATOM     18  C   UNL     1      33.707 -18.615 -24.506  0.00  0.00    +0.017 C 
ATOM     19  C   UNL     1      33.730 -17.225 -24.394  0.00  0.00    +0.061 C 
BRANCH  14  20
ATOM     20  N   UNL     1      35.092 -19.607 -21.229  0.00  0.00    -0.310 N 
ATOM     21  N   UNL     1      36.056 -21.425 -19.248  0.00  0.00    +0.388 N 
ATOM     22  C   UNL     1      34.301 -20.791 -20.868  0.00  0.00    +0.068 C 
ATOM     23  C   UNL     1      36.528 -19.696 -20.951  0.00  0.00    +0.068 C 
ATOM     24  C   UNL     1      34.613 -21.229 -19.436  0.00  0.00    -0.056 C 
ATOM     25  C   UNL     1      36.770 -20.171 -19.515  0.00  0.00    -0.056 C 
ATOM     26  C   UNL     1      36.338 -21.896 -17.892  0.00  0.00    -0.101 C 
ATOM     27  H   UNL     1      36.380 -22.134 -19.905  0.00  0.00    -0.080 HD
ENDBRANCH  14  20
ENDBRANCH   1  19
BRANCH   8  28
ATOM     28  O   UNL     1      33.779 -12.168 -23.598  0.00  0.00    -0.429 OA
BRANCH  28  29
ATOM     29  C   UNL     1      32.783 -11.742 -22.742  0.00  0.00    +0.149 C 
ATOM     30  C   UNL     1      32.456 -10.388 -22.673  0.00  0.00    +0.052 C 
ATOM     31  C   UNL     1      32.103 -12.665 -21.947  0.00  0.00    +0.038 C 
ATOM     32  C   UNL     1      31.448  -9.957 -21.809  0.00  0.00    +0.054 C 
ATOM     33  C   UNL     1      30.769 -10.880 -21.015  0.00  0.00    +0.015 C 
ATOM     34  C   UNL     1      31.095 -12.234 -21.084  0.00  0.00    +0.004 C 
BRANCH  32  36
ATOM     35  O   UNL     1      32.336  -7.836 -19.878  0.00  0.00    -0.270 OA
ATOM     36  N   UNL     1      31.120  -8.602 -21.741  0.00  0.00    -0.280 N 
ATOM     37  C   UNL     1      31.566  -7.651 -20.813  0.00  0.00    +0.250 C 
ATOM     38  H   UNL     1      30.499  -8.274 -22.431  0.00  0.00    +0.155 HD
BRANCH  37  39
ATOM     39  C   UNL     1      30.983  -6.305 -21.081  0.00  0.00    +0.058 C 
ATOM     40  C   UNL     1      30.426  -6.029 -22.264  0.00  0.00    +0.005 C 
ENDBRANCH  37  39
ENDBRANCH  32  36
ENDBRANCH  28  29
ENDBRANCH   8  28
TORSDOF 6
ENDMDL
MODEL 4
REMARK VINA RESULT:     -12.2      1.457      2.096
REMARK  Name = 72734520
REMARK  6 active torsions:
REMARK  status: ('A' for Active; 'I' for Inactive)
REMARK    1  A    between atoms: N_1  and  C_19
REMARK    2  A    between atoms: C_8  and  O_28
REMARK    3  A    between atoms: C_14  and  N_20
REMARK    4  A    between atoms: O_28  and  C_29
REMARK    5  A    between atoms: C_32  and  N_36
REMARK    6  A    between atoms: C_37  and  C_39
REMARK                            x       y       z     vdW  Elec       q    Type
REMARK                         _______ _______ _______ _____ _____    ______ ____
ROOT
ATOM      1  N   UNL     1      36.393 -22.529 -17.669  0.00  0.00    -0.238 N 
ATOM      2  N   UNL     1      36.519 -23.827 -15.733  0.00  0.00    -0.316 NA
ATOM      3  N   UNL     1      34.564 -22.459 -16.216  0.00  0.00    -0.294 NA
ATOM      4  N   UNL     1      36.329 -25.040 -13.658  0.00  0.00    -0.289 N 
ATOM      5  C   UNL     1      35.791 -22.964 -16.472  0.00  0.00    +0.207 C 
ATOM      6  C   UNL     1      34.602 -23.745 -14.221  0.00  0.00    +0.181 C 
ATOM      7  C   UNL     1      35.861 -24.179 -14.615  0.00  0.00    +0.188 C 
ATOM      8  C   UNL     1      33.954 -22.852 -15.074  0.00  0.00    +0.281 C 
ATOM      9  C   UNL     1      34.315 -24.374 -12.983  0.00  0.00    +0.008 C 
ATOM     10  C   UNL     1      35.397 -25.166 -12.660  0.00  0.00    +0.060 C 
ATOM     11  H   UNL     1      37.285 -22.913 -17.826  0.00  0.00    +0.166 HD
ATOM     12  H   UNL     1      37.200 -25.498 -13.682  0.00  0.00    +0.154 HD
ENDROOT
BRANCH   1  19
ATOM     13  F   UNL     1      32.943 -20.845 -20.538  0.00  0.00    -0.203 F 
ATOM     14  C   UNL     1      35.122 -19.915 -20.702  0.00  0.00    +0.076 C 
ATOM     15  C   UNL     1      34.219 -20.810 -20.129  0.00  0.00    +0.155 C 
ATOM     16  C   UNL     1      36.448 -19.890 -20.269  0.00  0.00    +0.018 C 
ATOM     17  C   UNL     1      34.641 -21.677 -19.121  0.00  0.00    +0.046 C 
ATOM     18  C   UNL     1      36.870 -20.757 -19.261  0.00  0.00    +0.017 C 
ATOM     19  C   UNL     1      35.966 -21.651 -18.687  0.00  0.00    +0.061 C 
BRANCH  14  20
ATOM     20  N   UNL     1      34.702 -19.045 -21.714  0.00  0.00    -0.310 N 
ATOM     21  N   UNL     1      33.606 -17.285 -23.679  0.00  0.00    +0.388 N 
ATOM     22  C   UNL     1      33.759 -19.556 -22.716  0.00  0.00    +0.068 C 
ATOM     23  C   UNL     1      34.629 -17.605 -21.451  0.00  0.00    +0.068 C 
ATOM     24  C   UNL     1      33.811 -18.706 -23.987  0.00  0.00    -0.056 C 
ATOM     25  C   UNL     1      34.653 -16.817 -22.763  0.00  0.00    -0.056 C 
ATOM     26  C   UNL     1      33.604 -16.490 -24.907  0.00  0.00    -0.101 C 
ATOM     27  H   UNL     1      32.699 -17.175 -23.227  0.00  0.00    -0.080 HD
ENDBRANCH  14  20
ENDBRANCH   1  19
BRANCH   8  28
ATOM     28  O   UNL     1      32.707 -22.349 -14.801  0.00  0.00    -0.429 OA
BRANCH  28  29
ATOM     29  C   UNL     1      31.626 -23.175 -15.037  0.00  0.00    +0.149 C 
ATOM     30  C   UNL     1      30.623 -22.775 -15.920  0.00  0.00    +0.052 C 
ATOM     31  C   UNL     1      31.538 -24.410 -14.394  0.00  0.00    +0.038 C 
ATOM     32  C   UNL     1      29.532 -23.609 -16.160  0.00  0.00    +0.054 C 
ATOM     33  C   UNL     1      29.443 -24.844 -15.517  0.00  0.00    +0.015 C 
ATOM     34  C   UNL     1      30.447 -25.245 -14.635  0.00  0.00    +0.004 C 
BRANCH  32  36
ATOM     35  O   UNL     1      26.992 -22.088 -15.659  0.00  0.00    -0.270 OA
ATOM     36  N   UNL     1      28.529 -23.209 -17.044  0.00  0.00    -0.280 N 
ATOM     37  C   UNL     1      27.357 -22.496 -16.755  0.00  0.00    +0.250 C 
ATOM     38  H   UNL     1      28.661 -23.458 -17.987  0.00  0.00    +0.155 HD
BRANCH  37  39
ATOM     39  C   UNL     1      26.539 -22.263 -17.980  0.00  0.00    +0.058 C 
ATOM     40  C   UNL     1      25.573 -21.339 -17.986  0.00  0.00    +0.005 C 
ENDBRANCH  37  39
ENDBRANCH  32  36
ENDBRANCH  28  29
ENDBRANCH   8  28
TORSDOF 6
ENDMDL
MODEL 5
REMARK VINA RESULT:     -12.1      8.213     14.210
REMARK  Name = 72734520
REMARK  6 active torsions:
REMARK  status: ('A' for Active; 'I' for Inactive)
REMARK    1  A    between atoms: N_1  and  C_19
REMARK    2  A    between atoms: C_8  and  O_28
REMARK    3  A    between atoms: C_14  and  N_20
REMARK    4  A    between atoms: O_28  and  C_29
REMARK    5  A    between atoms: C_32  and  N_36
REMARK    6  A    between atoms: C_37  and  C_39
REMARK                            x       y       z     vdW  Elec       q    Type
REMARK                         _______ _______ _______ _____ _____    ______ ____
ROOT
ATOM      1  N   UNL     1      31.159  -9.535 -21.526  0.00  0.00    -0.238 N 
ATOM      2  N   UNL     1      30.456  -7.314 -21.668  0.00  0.00    -0.316 NA
ATOM      3  N   UNL     1      31.973  -8.270 -23.315  0.00  0.00    -0.294 NA
ATOM      4  N   UNL     1      29.931  -5.001 -22.104  0.00  0.00    -0.289 N 
ATOM      5  C   UNL     1      31.197  -8.303 -22.208  0.00  0.00    +0.207 C 
ATOM      6  C   UNL     1      31.314  -6.001 -23.541  0.00  0.00    +0.181 C 
ATOM      7  C   UNL     1      30.560  -6.184 -22.389  0.00  0.00    +0.188 C 
ATOM      8  C   UNL     1      32.036  -7.104 -23.997  0.00  0.00    +0.281 C 
ATOM      9  C   UNL     1      31.122  -4.658 -23.952  0.00  0.00    +0.008 C 
ATOM     10  C   UNL     1      30.266  -4.066 -23.049  0.00  0.00    +0.060 C 
ATOM     11  H   UNL     1      30.587  -9.527 -20.726  0.00  0.00    +0.166 HD
ATOM     12  H   UNL     1      29.330  -4.846 -21.339  0.00  0.00    +0.154 HD
ENDROOT
BRANCH   1  19
ATOM     13  F   UNL     1      32.222 -13.996 -20.134  0.00  0.00    -0.203 F 
ATOM     14  C   UNL     1      33.008 -13.239 -22.243  0.00  0.00    +0.076 C 
ATOM     15  C   UNL     1      32.309 -13.026 -21.055  0.00  0.00    +0.155 C 
ATOM     16  C   UNL     1      33.093 -12.220 -23.193  0.00  0.00    +0.018 C 
ATOM     17  C   UNL     1      31.694 -11.796 -20.817  0.00  0.00    +0.046 C 
ATOM     18  C   UNL     1      32.479 -10.991 -22.955  0.00  0.00    +0.017 C 
ATOM     19  C   UNL     1      31.780 -10.779 -21.767  0.00  0.00    +0.061 C 
BRANCH  14  20
ATOM     20  N   UNL     1      33.626 -14.470 -22.484  0.00  0.00    -0.310 N 
ATOM     21  N   UNL     1      35.086 -16.852 -23.079  0.00  0.00    +0.388 N 
ATOM     22  C   UNL     1      33.843 -14.872 -23.880  0.00  0.00    +0.068 C 
ATOM     23  C   UNL     1      34.587 -15.004 -21.514  0.00  0.00    +0.068 C 
ATOM     24  C   UNL     1      34.024 -16.388 -23.981  0.00  0.00    -0.056 C 
ATOM     25  C   UNL     1      34.745 -16.516 -21.692  0.00  0.00    -0.056 C 
ATOM     26  C   UNL     1      35.288 -18.294 -23.224  0.00  0.00    -0.101 C 
ATOM     27  H   UNL     1      35.956 -16.382 -23.327  0.00  0.00    -0.080 HD
ENDBRANCH  14  20
ENDBRANCH   1  19
BRANCH   8  28
ATOM     28  O   UNL     1      32.818  -7.054 -25.123  0.00  0.00    -0.429 OA
BRANCH  28  29
ATOM     29  C   UNL     1      33.500  -8.203 -25.471  0.00  0.00    +0.149 C 
ATOM     30  C   UNL     1      32.796  -9.325 -25.907  0.00  0.00    +0.052 C 
ATOM     31  C   UNL     1      34.892  -8.241 -25.387  0.00  0.00    +0.038 C 
ATOM     32  C   UNL     1      33.484 -10.486 -26.260  0.00  0.00    +0.054 C 
ATOM     33  C   UNL     1      34.876 -10.525 -26.176  0.00  0.00    +0.015 C 
ATOM     34  C   UNL     1      35.580  -9.402 -25.740  0.00  0.00    +0.004 C 
BRANCH  32  36
ATOM     35  O   UNL     1      34.284 -12.661 -28.170  0.00  0.00    -0.270 OA
ATOM     36  N   UNL     1      32.780 -11.609 -26.697  0.00  0.00    -0.280 N 
ATOM     37  C   UNL     1      33.204 -12.598 -27.595  0.00  0.00    +0.250 C 
ATOM     38  H   UNL     1      31.874 -11.720 -26.329  0.00  0.00    +0.155 HD
BRANCH  37  39
ATOM     39  C   UNL     1      32.155 -13.638 -27.804  0.00  0.00    +0.058 C 
ATOM     40  C   UNL     1      32.370 -14.904 -27.437  0.00  0.00    +0.005 C 
ENDBRANCH  37  39
ENDBRANCH  32  36
ENDBRANCH  28  29
ENDBRANCH   8  28
TORSDOF 6
ENDMDL
MODEL 6
REMARK VINA RESULT:     -12.0      6.132     12.664
REMARK  Name = 72734520
REMARK  6 active torsions:
REMARK  status: ('A' for Active; 'I' for Inactive)
REMARK    1  A    between atoms: N_1  and  C_19
REMARK    2  A    between atoms: C_8  and  O_28
REMARK    3  A    between atoms: C_14  and  N_20
REMARK    4  A    between atoms: O_28  and  C_29
REMARK    5  A    between atoms: C_32  and  N_36
REMARK    6  A    between atoms: C_37  and  C_39
REMARK                            x       y       z     vdW  Elec       q    Type
REMARK                         _______ _______ _______ _____ _____    ______ ____
ROOT
ATOM      1  N   UNL     1      33.454 -16.413 -25.737  0.00  0.00    -0.238 N 
ATOM      2  N   UNL     1      32.809 -14.644 -27.116  0.00  0.00    -0.316 NA
ATOM      3  N   UNL     1      33.285 -14.300 -24.753  0.00  0.00    -0.294 NA
ATOM      4  N   UNL     1      32.169 -12.615 -28.251  0.00  0.00    -0.289 N 
ATOM      5  C   UNL     1      33.167 -15.041 -25.878  0.00  0.00    +0.207 C 
ATOM      6  C   UNL     1      32.634 -12.440 -26.076  0.00  0.00    +0.181 C 
ATOM      7  C   UNL     1      32.555 -13.324 -27.145  0.00  0.00    +0.188 C 
ATOM      8  C   UNL     1      33.016 -12.978 -24.847  0.00  0.00    +0.281 C 
ATOM      9  C   UNL     1      32.280 -11.159 -26.571  0.00  0.00    +0.008 C 
ATOM     10  C   UNL     1      31.998 -11.297 -27.913  0.00  0.00    +0.060 C 
ATOM     11  H   UNL     1      33.359 -16.925 -26.573  0.00  0.00    +0.166 HD
ATOM     12  H   UNL     1      32.034 -12.993 -29.150  0.00  0.00    +0.154 HD
ENDROOT
BRANCH   1  19
ATOM     13  F   UNL     1      34.979 -16.753 -21.206  0.00  0.00    -0.203 F 
ATOM     14  C   UNL     1      34.644 -18.747 -22.453  0.00  0.00    +0.076 C 
ATOM     15  C   UNL     1      34.622 -17.356 -22.349  0.00  0.00    +0.155 C 
ATOM     16  C   UNL     1      34.273 -19.362 -23.649  0.00  0.00    +0.018 C 
ATOM     17  C   UNL     1      34.226 -16.581 -23.440  0.00  0.00    +0.046 C 
ATOM     18  C   UNL     1      33.877 -18.587 -24.739  0.00  0.00    +0.017 C 
ATOM     19  C   UNL     1      33.854 -17.197 -24.634  0.00  0.00    +0.061 C 
BRANCH  14  20
ATOM     20  N   UNL     1      35.042 -19.526 -21.362  0.00  0.00    -0.310 N 
ATOM     21  N   UNL     1      35.842 -20.902 -18.990  0.00  0.00    +0.388 N 
ATOM     22  C   UNL     1      36.346 -19.241 -20.749  0.00  0.00    +0.068 C 
ATOM     23  C   UNL     1      34.030 -20.092 -20.465  0.00  0.00    +0.068 C 
ATOM     24  C   UNL     1      36.846 -20.454 -19.962  0.00  0.00    -0.056 C 
ATOM     25  C   UNL     1      34.605 -21.278 -19.685  0.00  0.00    -0.056 C 
ATOM     26  C   UNL     1      36.352 -22.027 -18.206  0.00  0.00    -0.101 C 
ATOM     27  H   UNL     1      35.639 -20.135 -18.350  0.00  0.00    -0.080 HD
ENDBRANCH  14  20
ENDBRANCH   1  19
BRANCH   8  28
ATOM     28  O   UNL     1      33.133 -12.212 -23.715  0.00  0.00    -0.429 OA
BRANCH  28  29
ATOM     29  C   UNL     1      33.682 -10.954 -23.857  0.00  0.00    +0.149 C 
ATOM     30  C   UNL     1      33.014  -9.840 -23.345  0.00  0.00    +0.052 C 
ATOM     31  C   UNL     1      34.904 -10.795 -24.509  0.00  0.00    +0.038 C 
ATOM     32  C   UNL     1      33.569  -8.569 -23.487  0.00  0.00    +0.054 C 
ATOM     33  C   UNL     1      34.792  -8.410 -24.139  0.00  0.00    +0.015 C 
ATOM     34  C   UNL     1      35.460  -9.523 -24.650  0.00  0.00    +0.004 C 
BRANCH  32  36
ATOM     35  O   UNL     1      33.270  -7.613 -20.656  0.00  0.00    -0.270 OA
ATOM     36  N   UNL     1      32.902  -7.455 -22.975  0.00  0.00    -0.280 N 
ATOM     37  C   UNL     1      32.793  -7.053 -21.636  0.00  0.00    +0.250 C 
ATOM     38  H   UNL     1      32.452  -6.881 -23.636  0.00  0.00    +0.155 HD
BRANCH  37  39
ATOM     39  C   UNL     1      31.993  -5.802 -21.501  0.00  0.00    +0.058 C 
ATOM     40  C   UNL     1      31.020  -5.713 -20.589  0.00  0.00    +0.005 C 
ENDBRANCH  37  39
ENDBRANCH  32  36
ENDBRANCH  28  29
ENDBRANCH   8  28
TORSDOF 6
ENDMDL
MODEL 7
REMARK VINA RESULT:     -11.9      5.302     11.627
REMARK  Name = 72734520
REMARK  6 active torsions:
REMARK  status: ('A' for Active; 'I' for Inactive)
REMARK    1  A    between atoms: N_1  and  C_19
REMARK    2  A    between atoms: C_8  and  O_28
REMARK    3  A    between atoms: C_14  and  N_20
REMARK    4  A    between atoms: O_28  and  C_29
REMARK    5  A    between atoms: C_32  and  N_36
REMARK    6  A    between atoms: C_37  and  C_39
REMARK                            x       y       z     vdW  Elec       q    Type
REMARK                         _______ _______ _______ _____ _____    ______ ____
ROOT
ATOM      1  N   UNL     1      33.554 -12.536 -22.432  0.00  0.00    -0.238 N 
ATOM      2  N   UNL     1      33.000 -10.550 -23.527  0.00  0.00    -0.316 NA
ATOM      3  N   UNL     1      33.489 -12.587 -24.768  0.00  0.00    -0.294 NA
ATOM      4  N   UNL     1      32.469  -8.682 -24.956  0.00  0.00    -0.289 N 
ATOM      5  C   UNL     1      33.335 -11.852 -23.644  0.00  0.00    +0.207 C 
ATOM      6  C   UNL     1      32.938 -10.615 -25.968  0.00  0.00    +0.181 C 
ATOM      7  C   UNL     1      32.816  -9.989 -24.734  0.00  0.00    +0.188 C 
ATOM      8  C   UNL     1      33.289 -11.964 -25.952  0.00  0.00    +0.281 C 
ATOM      9  C   UNL     1      32.653  -9.639 -26.957  0.00  0.00    +0.008 C 
ATOM     10  C   UNL     1      32.368  -8.459 -26.305  0.00  0.00    +0.060 C 
ATOM     11  H   UNL     1      33.434 -11.974 -21.633  0.00  0.00    +0.166 HD
ATOM     12  H   UNL     1      32.316  -8.008 -24.255  0.00  0.00    +0.154 HD
ENDROOT
BRANCH   1  19
ATOM     13  F   UNL     1      34.859 -16.912 -23.890  0.00  0.00    -0.203 F 
ATOM     14  C   UNL     1      34.613 -16.507 -21.562  0.00  0.00    +0.076 C 
ATOM     15  C   UNL     1      34.567 -16.072 -22.887  0.00  0.00    +0.155 C 
ATOM     16  C   UNL     1      34.305 -15.624 -20.528  0.00  0.00    +0.018 C 
ATOM     17  C   UNL     1      34.216 -14.752 -23.176  0.00  0.00    +0.046 C 
ATOM     18  C   UNL     1      33.954 -14.305 -20.816  0.00  0.00    +0.017 C 
ATOM     19  C   UNL     1      33.910 -13.870 -22.140  0.00  0.00    +0.061 C 
BRANCH  14  20
ATOM     20  N   UNL     1      34.963 -17.830 -21.270  0.00  0.00    -0.310 N 
ATOM     21  N   UNL     1      35.606 -20.590 -20.914  0.00  0.00    +0.388 N 
ATOM     22  C   UNL     1      33.895 -18.837 -21.247  0.00  0.00    +0.068 C 
ATOM     23  C   UNL     1      36.296 -18.326 -21.628  0.00  0.00    +0.068 C 
ATOM     24  C   UNL     1      34.325 -20.058 -20.430  0.00  0.00    -0.056 C 
ATOM     25  C   UNL     1      36.648 -19.564 -20.799  0.00  0.00    -0.056 C 
ATOM     26  C   UNL     1      35.979 -21.788 -20.162  0.00  0.00    -0.101 C 
ATOM     27  H   UNL     1      35.505 -20.848 -21.895  0.00  0.00    -0.080 HD
ENDBRANCH  14  20
ENDBRANCH   1  19
BRANCH   8  28
ATOM     28  O   UNL     1      33.441 -12.697 -27.102  0.00  0.00    -0.429 OA
BRANCH  28  29
ATOM     29  C   UNL     1      32.732 -13.877 -27.198  0.00  0.00    +0.149 C 
ATOM     30  C   UNL     1      33.337 -15.083 -26.842  0.00  0.00    +0.052 C 
ATOM     31  C   UNL     1      31.413 -13.865 -27.650  0.00  0.00    +0.038 C 
ATOM     32  C   UNL     1      32.621 -16.277 -26.937  0.00  0.00    +0.054 C 
ATOM     33  C   UNL     1      31.301 -16.265 -27.388  0.00  0.00    +0.015 C 
ATOM     34  C   UNL     1      30.697 -15.059 -27.744  0.00  0.00    +0.004 C 
BRANCH  32  36
ATOM     35  O   UNL     1      31.544 -18.603 -25.373  0.00  0.00    -0.270 OA
ATOM     36  N   UNL     1      33.225 -17.483 -26.579  0.00  0.00    -0.280 N 
ATOM     37  C   UNL     1      32.673 -18.541 -25.844  0.00  0.00    +0.250 C 
ATOM     38  H   UNL     1      34.154 -17.606 -26.882  0.00  0.00    +0.155 HD
BRANCH  37  39
ATOM     39  C   UNL     1      33.645 -19.659 -25.674  0.00  0.00    +0.058 C 
ATOM     40  C   UNL     1      34.457 -19.698 -24.614  0.00  0.00    +0.005 C 
ENDBRANCH  37  39
ENDBRANCH  32  36
ENDBRANCH  28  29
ENDBRANCH   8  28
TORSDOF 6
ENDMDL
MODEL 8
REMARK VINA RESULT:     -11.8      9.557     14.891
REMARK  Name = 72734520
REMARK  6 active torsions:
REMARK  status: ('A' for Active; 'I' for Inactive)
REMARK    1  A    between atoms: N_1  and  C_19
REMARK    2  A    between atoms: C_8  and  O_28
REMARK    3  A    between atoms: C_14  and  N_20
REMARK    4  A    between atoms: O_28  and  C_29
REMARK    5  A    between atoms: C_32  and  N_36
REMARK    6  A    between atoms: C_37  and  C_39
REMARK                            x       y       z     vdW  Elec       q    Type
REMARK                         _______ _______ _______ _____ _____    ______ ____
ROOT
ATOM      1  N   UNL     1      33.791  -7.433 -26.099  0.00  0.00    -0.238 N 
ATOM      2  N   UNL     1      33.471  -5.131 -25.881  0.00  0.00    -0.316 NA
ATOM      3  N   UNL     1      32.103  -6.723 -24.647  0.00  0.00    -0.294 NA
ATOM      4  N   UNL     1      32.880  -2.837 -25.431  0.00  0.00    -0.289 N 
ATOM      5  C   UNL     1      33.082  -6.368 -25.509  0.00  0.00    +0.207 C 
ATOM      6  C   UNL     1      31.702  -4.401 -24.362  0.00  0.00    +0.181 C 
ATOM      7  C   UNL     1      32.734  -4.189 -25.267  0.00  0.00    +0.188 C 
ATOM      8  C   UNL     1      31.398  -5.728 -24.061  0.00  0.00    +0.281 C 
ATOM      9  C   UNL     1      31.220  -3.124 -23.978  0.00  0.00    +0.008 C 
ATOM     10  C   UNL     1      31.964  -2.179 -24.652  0.00  0.00    +0.060 C 
ATOM     11  H   UNL     1      34.496  -7.142 -26.721  0.00  0.00    +0.166 HD
ATOM     12  H   UNL     1      33.542  -2.403 -26.018  0.00  0.00    +0.154 HD
ENDROOT
BRANCH   1  19
ATOM     13  F   UNL     1      31.611 -11.563 -27.175  0.00  0.00    -0.203 F 
ATOM     14  C   UNL     1      33.487 -11.605 -25.719  0.00  0.00    +0.076 C 
ATOM     15  C   UNL     1      32.582 -10.911 -26.521  0.00  0.00    +0.155 C 
ATOM     16  C   UNL     1      34.491 -10.914 -25.042  0.00  0.00    +0.018 C 
ATOM     17  C   UNL     1      32.683  -9.525 -26.648  0.00  0.00    +0.046 C 
ATOM     18  C   UNL     1      34.593  -9.529 -25.168  0.00  0.00    +0.017 C 
ATOM     19  C   UNL     1      33.689  -8.834 -25.971  0.00  0.00    +0.061 C 
BRANCH  14  20
ATOM     20  N   UNL     1      33.387 -12.995 -25.589  0.00  0.00    -0.310 N 
ATOM     21  N   UNL     1      32.932 -15.796 -25.267  0.00  0.00    +0.388 N 
ATOM     22  C   UNL     1      33.072 -13.542 -24.263  0.00  0.00    +0.068 C 
ATOM     23  C   UNL     1      32.945 -13.802 -26.730  0.00  0.00    +0.068 C 
ATOM     24  C   UNL     1      33.506 -15.007 -24.170  0.00  0.00    -0.056 C 
ATOM     25  C   UNL     1      33.381 -15.260 -26.557  0.00  0.00    -0.056 C 
ATOM     26  C   UNL     1      33.308 -17.204 -25.138  0.00  0.00    -0.101 C 
ATOM     27  H   UNL     1      31.915 -15.733 -25.221  0.00  0.00    -0.080 HD
ENDBRANCH  14  20
ENDBRANCH   1  19
BRANCH   8  28
ATOM     28  O   UNL     1      30.401  -6.072 -23.182  0.00  0.00    -0.429 OA
BRANCH  28  29
ATOM     29  C   UNL     1      30.781  -6.440 -21.908  0.00  0.00    +0.149 C 
ATOM     30  C   UNL     1      31.113  -7.768 -21.637  0.00  0.00    +0.052 C 
ATOM     31  C   UNL     1      30.835  -5.487 -20.892  0.00  0.00    +0.038 C 
ATOM     32  C   UNL     1      31.499  -8.142 -20.349  0.00  0.00    +0.054 C 
ATOM     33  C   UNL     1      31.553  -7.188 -19.333  0.00  0.00    +0.015 C 
ATOM     34  C   UNL     1      31.222  -5.860 -19.604  0.00  0.00    +0.004 C 
BRANCH  32  36
ATOM     35  O   UNL     1      29.885 -10.654 -20.668  0.00  0.00    -0.270 OA
ATOM     36  N   UNL     1      31.831  -9.470 -20.078  0.00  0.00    -0.280 N 
ATOM     37  C   UNL     1      31.035 -10.611 -20.247  0.00  0.00    +0.250 C 
ATOM     38  H   UNL     1      32.737  -9.624 -19.726  0.00  0.00    +0.155 HD
BRANCH  37  39
ATOM     39  C   UNL     1      31.757 -11.851 -19.841  0.00  0.00    +0.058 C 
ATOM     40  C   UNL     1      31.765 -12.924 -20.637  0.00  0.00    +0.005 C 
ENDBRANCH  37  39
ENDBRANCH  32  36
ENDBRANCH  28  29
ENDBRANCH   8  28
TORSDOF 6
ENDMDL
MODEL 9
REMARK VINA RESULT:     -11.6      5.109      9.359
REMARK  Name = 72734520
REMARK  6 active torsions:
REMARK  status: ('A' for Active; 'I' for Inactive)
REMARK    1  A    between atoms: N_1  and  C_19
REMARK    2  A    between atoms: C_8  and  O_28
REMARK    3  A    between atoms: C_14  and  N_20
REMARK    4  A    between atoms: O_28  and  C_29
REMARK    5  A    between atoms: C_32  and  N_36
REMARK    6  A    between atoms: C_37  and  C_39
REMARK                            x       y       z     vdW  Elec       q    Type
REMARK                         _______ _______ _______ _____ _____    ______ ____
ROOT
ATOM      1  N   UNL     1      33.108 -14.385 -25.794  0.00  0.00    -0.238 N 
ATOM      2  N   UNL     1      33.491 -16.657 -26.167  0.00  0.00    -0.316 NA
ATOM      3  N   UNL     1      33.774 -15.671 -23.959  0.00  0.00    -0.294 NA
ATOM      4  N   UNL     1      33.967 -19.020 -26.210  0.00  0.00    -0.289 N 
ATOM      5  C   UNL     1      33.478 -15.643 -25.278  0.00  0.00    +0.207 C 
ATOM      6  C   UNL     1      34.189 -17.991 -24.243  0.00  0.00    +0.181 C 
ATOM      7  C   UNL     1      33.857 -17.809 -25.580  0.00  0.00    +0.188 C 
ATOM      8  C   UNL     1      34.136 -16.861 -23.428  0.00  0.00    +0.281 C 
ATOM      9  C   UNL     1      34.507 -19.363 -24.078  0.00  0.00    +0.008 C 
ATOM     10  C   UNL     1      34.362 -19.973 -25.306  0.00  0.00    +0.060 C 
ATOM     11  H   UNL     1      32.899 -14.397 -26.755  0.00  0.00    +0.166 HD
ATOM     12  H   UNL     1      33.790 -19.183 -27.165  0.00  0.00    +0.154 HD
ENDROOT
BRANCH   1  19
ATOM     13  F   UNL     1      32.188 -11.649 -21.968  0.00  0.00    -0.203 F 
ATOM     14  C   UNL     1      32.717 -10.593 -24.029  0.00  0.00    +0.076 C 
ATOM     15  C   UNL     1      32.511 -11.742 -23.265  0.00  0.00    +0.155 C 
ATOM     16  C   UNL     1      33.051 -10.704 -25.379  0.00  0.00    +0.018 C 
ATOM     17  C   UNL     1      32.642 -13.002 -23.851  0.00  0.00    +0.046 C 
ATOM     18  C   UNL     1      33.182 -11.963 -25.964  0.00  0.00    +0.017 C 
ATOM     19  C   UNL     1      32.977 -13.112 -25.201  0.00  0.00    +0.061 C 
BRANCH  14  20
ATOM     20  N   UNL     1      32.585  -9.329 -23.444  0.00  0.00    -0.310 N 
ATOM     21  N   UNL     1      32.420  -6.649 -22.469  0.00  0.00    +0.388 N 
ATOM     22  C   UNL     1      33.811  -8.579 -23.142  0.00  0.00    +0.068 C 
ATOM     23  C   UNL     1      31.398  -8.517 -23.726  0.00  0.00    +0.068 C 
ATOM     24  C   UNL     1      33.540  -7.514 -22.076  0.00  0.00    -0.056 C 
ATOM     25  C   UNL     1      31.205  -7.453 -22.642  0.00  0.00    -0.056 C 
ATOM     26  C   UNL     1      32.205  -5.603 -21.469  0.00  0.00    -0.101 C 
ATOM     27  H   UNL     1      32.647  -6.201 -23.356  0.00  0.00    -0.080 HD
ENDBRANCH  14  20
ENDBRANCH   1  19
BRANCH   8  28
ATOM     28  O   UNL     1      34.438 -16.907 -22.090  0.00  0.00    -0.429 OA
BRANCH  28  29
ATOM     29  C   UNL     1      34.991 -18.075 -21.606  0.00  0.00    +0.149 C 
ATOM     30  C   UNL     1      34.182 -19.014 -20.964  0.00  0.00    +0.052 C 
ATOM     31  C   UNL     1      36.355 -18.319 -21.759  0.00  0.00    +0.038 C 
ATOM     32  C   UNL     1      34.740 -20.196 -20.476  0.00  0.00    +0.054 C 
ATOM     33  C   UNL     1      36.104 -20.439 -20.629  0.00  0.00    +0.015 C 
ATOM     34  C   UNL     1      36.912 -19.501 -21.272  0.00  0.00    +0.004 C 
BRANCH  32  36
ATOM     35  O   UNL     1      35.399 -22.183 -18.324  0.00  0.00    -0.270 OA
ATOM     36  N   UNL     1      33.931 -21.136 -19.834  0.00  0.00    -0.280 N 
ATOM     37  C   UNL     1      34.292 -22.044 -18.830  0.00  0.00    +0.250 C 
ATOM     38  H   UNL     1      32.990 -21.163 -20.123  0.00  0.00    +0.155 HD
BRANCH  37  39
ATOM     39  C   UNL     1      33.135 -22.882 -18.404  0.00  0.00    +0.058 C 
ATOM     40  C   UNL     1      32.991 -23.241 -17.125  0.00  0.00    +0.005 C 
ENDBRANCH  37  39
ENDBRANCH  32  36
ENDBRANCH  28  29
ENDBRANCH   8  28
TORSDOF 6
ENDMDL
