MODEL 1
REMARK VINA RESULT:     -13.7      0.000      0.000
REMARK  Name = 10074640
REMARK  6 active torsions:
REMARK  status: ('A' for Active; 'I' for Inactive)
REMARK    1  A    between atoms: N_2  and  C_5
REMARK    2  A    between atoms: C_3  and  C_30
REMARK    3  A    between atoms: C_6  and  N_13
REMARK    4  A    between atoms: C_16  and  C_20
REMARK    5  A    between atoms: C_25  and  C_31
REMARK    6  A    between atoms: C_31  and  N_32
REMARK                            x       y       z     vdW  Elec       q    Type
REMARK                         _______ _______ _______ _____ _____    ______ ____
ROOT
ATOM      1  O   UNL     1      33.464 -23.842 -18.999  0.00  0.00    -0.270 OA
ATOM      2  N   UNL     1      32.811 -22.184 -17.473  0.00  0.00    -0.280 N 
ATOM      3  C   UNL     1      33.377 -22.648 -18.668  0.00  0.00    +0.249 C 
ATOM      4  H   UNL     1      32.813 -21.206 -17.351  0.00  0.00    +0.155 HD
ENDROOT
BRANCH   2   5
ATOM      5  C   UNL     1      32.238 -22.935 -16.418  0.00  0.00    +0.052 C 
ATOM      6  C   UNL     1      32.357 -23.793 -14.183  0.00  0.00    +0.048 C 
ATOM      7  C   UNL     1      32.923 -23.053 -15.221  0.00  0.00    +0.029 C 
ATOM      8  C   UNL     1      31.115 -24.403 -14.357  0.00  0.00    -0.008 C 
ATOM      9  C   UNL     1      31.004 -23.534 -16.608  0.00  0.00    +0.014 C 
ATOM     10  C   UNL     1      30.438 -24.274 -15.571  0.00  0.00    -0.002 C 
ATOM     11  C   UNL     1      30.486 -25.201 -13.262  0.00  0.00    +0.032 C 
BRANCH   6  13
ATOM     12  S   UNL     1      34.887 -24.468 -11.114  0.00  0.00    -0.059 S 
ATOM     13  N   UNL     1      33.055 -23.913 -12.961  0.00  0.00    -0.283 N 
ATOM     14  N   UNL     1      35.270 -24.341 -13.667  0.00  0.00    -0.384 NA
ATOM     15  C   UNL     1      34.366 -24.220 -12.727  0.00  0.00    +0.211 C 
ATOM     16  C   UNL     1      36.480 -24.655 -13.078  0.00  0.00    +0.124 C 
ATOM     17  C   UNL     1      36.469 -24.766 -11.703  0.00  0.00    +0.125 C 
ATOM     18  H   UNL     1      32.514 -23.750 -12.154  0.00  0.00    +0.155 HD
BRANCH  16  20
ATOM     19  N   UNL     1      39.032 -24.191 -15.740  0.00  0.00    -0.242 NA
ATOM     20  C   UNL     1      37.667 -24.851 -13.858  0.00  0.00    +0.046 C 
ATOM     21  C   UNL     1      38.585 -25.842 -13.529  0.00  0.00    +0.005 C 
ATOM     22  C   UNL     1      37.933 -24.059 -14.963  0.00  0.00    +0.101 C 
ATOM     23  C   UNL     1      39.727 -26.009 -14.305  0.00  0.00    +0.021 C 
ATOM     24  C   UNL     1      39.902 -25.165 -15.390  0.00  0.00    +0.099 C 
ENDBRANCH  16  20
ENDBRANCH   6  13
ENDBRANCH   2   5
BRANCH   3  30
ATOM     25  C   UNL     1      34.942 -19.681 -21.245  0.00  0.00    -0.043 C 
ATOM     26  C   UNL     1      35.810 -20.542 -20.588  0.00  0.00    -0.006 C 
ATOM     27  C   UNL     1      33.569 -19.779 -21.071  0.00  0.00    -0.006 C 
ATOM     28  C   UNL     1      35.292 -21.521 -19.738  0.00  0.00    +0.004 C 
ATOM     29  C   UNL     1      33.052 -20.758 -20.222  0.00  0.00    +0.004 C 
ATOM     30  C   UNL     1      33.914 -21.628 -19.556  0.00  0.00    +0.054 C 
BRANCH  25  31
ATOM     31  C   UNL     1      35.499 -18.626 -22.164  0.00  0.00    -0.050 C 
BRANCH  31  32
ATOM     32  N   UNL     1      34.487 -18.121 -23.090  0.00  0.00    +0.387 N 
ATOM     33  N   UNL     1      33.630 -17.033 -25.628  0.00  0.00    +0.383 N 
ATOM     34  C   UNL     1      34.759 -16.725 -23.451  0.00  0.00    -0.100 C 
ATOM     35  C   UNL     1      34.419 -18.958 -24.294  0.00  0.00    -0.100 C 
ATOM     36  C   UNL     1      33.700 -16.196 -24.424  0.00  0.00    -0.101 C 
ATOM     37  C   UNL     1      33.358 -18.430 -25.265  0.00  0.00    -0.101 C 
ATOM     38  C   UNL     1      32.616 -16.530 -26.552  0.00  0.00    -0.101 C 
ATOM     39  H   UNL     1      33.582 -18.161 -22.619  0.00  0.00    -0.079 HD
ATOM     40  H   UNL     1      34.534 -16.993 -26.099  0.00  0.00    -0.080 HD
ENDBRANCH  31  32
ENDBRANCH  25  31
ENDBRANCH   3  30
TORSDOF 6
ENDMDL
MODEL 2
REMARK VINA RESULT:     -12.3      4.974     12.811
REMARK  Name = 10074640
REMARK  6 active torsions:
REMARK  status: ('A' for Active; 'I' for Inactive)
REMARK    1  A    between atoms: N_2  and  C_5
REMARK    2  A    between atoms: C_3  and  C_30
REMARK    3  A    between atoms: C_6  and  N_13
REMARK    4  A    between atoms: C_16  and  C_20
REMARK    5  A    between atoms: C_25  and  C_31
REMARK    6  A    between atoms: C_31  and  N_32
REMARK                            x       y       z     vdW  Elec       q    Type
REMARK                         _______ _______ _______ _____ _____    ______ ____
ROOT
ATOM      1  O   UNL     1      34.580 -16.445 -22.474  0.00  0.00    -0.270 OA
ATOM      2  N   UNL     1      33.647 -18.078 -23.876  0.00  0.00    -0.280 N 
ATOM      3  C   UNL     1      34.331 -17.632 -22.737  0.00  0.00    +0.249 C 
ATOM      4  H   UNL     1      33.524 -19.052 -23.947  0.00  0.00    +0.155 HD
ENDROOT
BRANCH   2   5
ATOM      5  C   UNL     1      33.110 -17.310 -24.938  0.00  0.00    +0.052 C 
ATOM      6  C   UNL     1      32.979 -15.239 -26.138  0.00  0.00    +0.048 C 
ATOM      7  C   UNL     1      33.509 -15.994 -25.091  0.00  0.00    +0.029 C 
ATOM      8  C   UNL     1      32.060 -15.812 -27.016  0.00  0.00    -0.008 C 
ATOM      9  C   UNL     1      32.198 -17.895 -25.801  0.00  0.00    +0.014 C 
ATOM     10  C   UNL     1      31.669 -17.141 -26.847  0.00  0.00    -0.002 C 
ATOM     11  C   UNL     1      31.478 -15.026 -28.145  0.00  0.00    +0.032 C 
BRANCH   6  13
ATOM     12  S   UNL     1      33.660 -11.264 -26.017  0.00  0.00    -0.059 S 
ATOM     13  N   UNL     1      33.386 -13.896 -26.294  0.00  0.00    -0.283 N 
ATOM     14  N   UNL     1      32.684 -12.899 -24.268  0.00  0.00    -0.384 NA
ATOM     15  C   UNL     1      33.200 -12.821 -25.470  0.00  0.00    +0.211 C 
ATOM     16  C   UNL     1      32.642 -11.630 -23.723  0.00  0.00    +0.124 C 
ATOM     17  C   UNL     1      33.128 -10.616 -24.521  0.00  0.00    +0.125 C 
ATOM     18  H   UNL     1      33.881 -13.704 -27.124  0.00  0.00    +0.155 HD
BRANCH  16  20
ATOM     19  N   UNL     1      31.316  -9.825 -20.757  0.00  0.00    -0.242 NA
ATOM     20  C   UNL     1      32.125 -11.395 -22.406  0.00  0.00    +0.046 C 
ATOM     21  C   UNL     1      31.928 -12.444 -21.516  0.00  0.00    +0.005 C 
ATOM     22  C   UNL     1      31.807 -10.115 -21.983  0.00  0.00    +0.101 C 
ATOM     23  C   UNL     1      31.424 -12.185 -20.246  0.00  0.00    +0.021 C 
ATOM     24  C   UNL     1      31.137 -10.870 -19.919  0.00  0.00    +0.099 C 
ENDBRANCH  16  20
ENDBRANCH   6  13
ENDBRANCH   2   5
BRANCH   3  30
ATOM     25  C   UNL     1      35.667 -20.645 -20.084  0.00  0.00    -0.043 C 
ATOM     26  C   UNL     1      34.314 -20.549 -20.384  0.00  0.00    -0.006 C 
ATOM     27  C   UNL     1      36.587 -19.769 -20.643  0.00  0.00    -0.006 C 
ATOM     28  C   UNL     1      33.875 -19.555 -21.259  0.00  0.00    +0.004 C 
ATOM     29  C   UNL     1      36.147 -18.777 -21.518  0.00  0.00    +0.004 C 
ATOM     30  C   UNL     1      34.791 -18.669 -21.826  0.00  0.00    +0.054 C 
BRANCH  25  31
ATOM     31  C   UNL     1      36.142 -21.719 -19.141  0.00  0.00    -0.050 C 
BRANCH  31  32
ATOM     32  N   UNL     1      35.202 -21.931 -18.042  0.00  0.00    +0.387 N 
ATOM     33  N   UNL     1      33.872 -23.576 -16.071  0.00  0.00    +0.383 N 
ATOM     34  C   UNL     1      34.156 -22.885 -18.427  0.00  0.00    -0.100 C 
ATOM     35  C   UNL     1      35.903 -22.399 -16.840  0.00  0.00    -0.100 C 
ATOM     36  C   UNL     1      33.171 -23.110 -17.274  0.00  0.00    -0.101 C 
ATOM     37  C   UNL     1      34.919 -22.622 -15.687  0.00  0.00    -0.101 C 
ATOM     38  C   UNL     1      32.933 -23.786 -14.972  0.00  0.00    -0.101 C 
ATOM     39  H   UNL     1      34.760 -21.037 -17.829  0.00  0.00    -0.079 HD
ATOM     40  H   UNL     1      34.313 -24.471 -16.283  0.00  0.00    -0.080 HD
ENDBRANCH  31  32
ENDBRANCH  25  31
ENDBRANCH   3  30
TORSDOF 6
ENDMDL
MODEL 3
REMARK VINA RESULT:     -11.2      6.234     13.781
REMARK  Name = 10074640
REMARK  6 active torsions:
REMARK  status: ('A' for Active; 'I' for Inactive)
REMARK    1  A    between atoms: N_2  and  C_5
REMARK    2  A    between atoms: C_3  and  C_30
REMARK    3  A    between atoms: C_6  and  N_13
REMARK    4  A    between atoms: C_16  and  C_20
REMARK    5  A    between atoms: C_25  and  C_31
REMARK    6  A    between atoms: C_31  and  N_32
REMARK                            x       y       z     vdW  Elec       q    Type
REMARK                         _______ _______ _______ _____ _____    ______ ____
ROOT
ATOM      1  O   UNL     1      34.031 -14.243 -22.536  0.00  0.00    -0.270 OA
ATOM      2  N   UNL     1      33.813 -15.342 -24.597  0.00  0.00    -0.280 N 
ATOM      3  C   UNL     1      34.133 -15.264 -23.234  0.00  0.00    +0.249 C 
ATOM      4  H   UNL     1      33.947 -16.223 -25.017  0.00  0.00    +0.155 HD
ENDROOT
BRANCH   2   5
ATOM      5  C   UNL     1      33.322 -14.322 -25.447  0.00  0.00    +0.052 C 
ATOM      6  C   UNL     1      33.205 -12.004 -26.048  0.00  0.00    +0.048 C 
ATOM      7  C   UNL     1      33.689 -13.008 -25.209  0.00  0.00    +0.029 C 
ATOM      8  C   UNL     1      32.364 -12.328 -27.112  0.00  0.00    -0.008 C 
ATOM      9  C   UNL     1      32.487 -14.661 -26.498  0.00  0.00    +0.014 C 
ATOM     10  C   UNL     1      32.004 -13.658 -27.337  0.00  0.00    -0.002 C 
ATOM     11  C   UNL     1      31.831 -11.273 -28.025  0.00  0.00    +0.032 C 
BRANCH   6  13
ATOM     12  S   UNL     1      33.748  -8.202 -24.814  0.00  0.00    -0.059 S 
ATOM     13  N   UNL     1      33.580 -10.664 -25.807  0.00  0.00    -0.283 N 
ATOM     14  N   UNL     1      32.699 -10.258 -23.650  0.00  0.00    -0.384 NA
ATOM     15  C   UNL     1      33.299  -9.853 -24.742  0.00  0.00    +0.211 C 
ATOM     16  C   UNL     1      32.577  -9.184 -22.790  0.00  0.00    +0.124 C 
ATOM     17  C   UNL     1      33.087  -7.986 -23.246  0.00  0.00    +0.125 C 
ATOM     18  H   UNL     1      34.127 -10.250 -26.513  0.00  0.00    +0.155 HD
BRANCH  16  20
ATOM     19  N   UNL     1      31.734  -8.533 -19.229  0.00  0.00    -0.242 NA
ATOM     20  C   UNL     1      31.958  -9.318 -21.503  0.00  0.00    +0.046 C 
ATOM     21  C   UNL     1      31.017 -10.312 -21.262  0.00  0.00    +0.005 C 
ATOM     22  C   UNL     1      32.280  -8.461 -20.463  0.00  0.00    +0.101 C 
ATOM     23  C   UNL     1      30.433 -10.417 -20.005  0.00  0.00    +0.021 C 
ATOM     24  C   UNL     1      30.823  -9.511 -19.031  0.00  0.00    +0.099 C 
ENDBRANCH  16  20
ENDBRANCH   6  13
ENDBRANCH   2   5
BRANCH   3  30
ATOM     25  C   UNL     1      35.620 -18.814 -21.480  0.00  0.00    -0.043 C 
ATOM     26  C   UNL     1      35.446 -18.753 -22.856  0.00  0.00    -0.006 C 
ATOM     27  C   UNL     1      35.314 -17.728 -20.671  0.00  0.00    -0.006 C 
ATOM     28  C   UNL     1      34.956 -17.581 -23.434  0.00  0.00    +0.004 C 
ATOM     29  C   UNL     1      34.825 -16.558 -21.249  0.00  0.00    +0.004 C 
ATOM     30  C   UNL     1      34.646 -16.484 -22.630  0.00  0.00    +0.054 C 
BRANCH  25  31
ATOM     31  C   UNL     1      36.150 -20.078 -20.856  0.00  0.00    -0.050 C 
BRANCH  31  32
ATOM     32  N   UNL     1      35.271 -20.572 -19.798  0.00  0.00    +0.387 N 
ATOM     33  N   UNL     1      33.707 -22.628 -18.497  0.00  0.00    +0.383 N 
ATOM     34  C   UNL     1      33.987 -21.018 -20.352  0.00  0.00    -0.100 C 
ATOM     35  C   UNL     1      35.913 -21.662 -19.053  0.00  0.00    -0.100 C 
ATOM     36  C   UNL     1      33.065 -21.539 -19.244  0.00  0.00    -0.101 C 
ATOM     37  C   UNL     1      34.992 -22.181 -17.944  0.00  0.00    -0.101 C 
ATOM     38  C   UNL     1      32.829 -23.120 -17.438  0.00  0.00    -0.101 C 
ATOM     39  H   UNL     1      35.092 -19.803 -19.152  0.00  0.00    -0.079 HD
ATOM     40  H   UNL     1      33.885 -23.398 -19.142  0.00  0.00    -0.080 HD
ENDBRANCH  31  32
ENDBRANCH  25  31
ENDBRANCH   3  30
TORSDOF 6
ENDMDL
MODEL 4
REMARK VINA RESULT:     -10.7      6.375     11.049
REMARK  Name = 10074640
REMARK  6 active torsions:
REMARK  status: ('A' for Active; 'I' for Inactive)
REMARK    1  A    between atoms: N_2  and  C_5
REMARK    2  A    between atoms: C_3  and  C_30
REMARK    3  A    between atoms: C_6  and  N_13
REMARK    4  A    between atoms: C_16  and  C_20
REMARK    5  A    between atoms: C_25  and  C_31
REMARK    6  A    between atoms: C_31  and  N_32
REMARK                            x       y       z     vdW  Elec       q    Type
REMARK                         _______ _______ _______ _____ _____    ______ ____
ROOT
ATOM      1  O   UNL     1      33.155 -13.783 -21.954  0.00  0.00    -0.270 OA
ATOM      2  N   UNL     1      32.941 -13.905 -24.287  0.00  0.00    -0.280 N 
ATOM      3  C   UNL     1      32.904 -13.252 -23.048  0.00  0.00    +0.249 C 
ATOM      4  H   UNL     1      32.717 -13.351 -25.069  0.00  0.00    +0.155 HD
ENDROOT
BRANCH   2   5
ATOM      5  C   UNL     1      33.258 -15.258 -24.561  0.00  0.00    +0.052 C 
ATOM      6  C   UNL     1      34.665 -17.167 -24.215  0.00  0.00    +0.048 C 
ATOM      7  C   UNL     1      34.355 -15.834 -23.945  0.00  0.00    +0.029 C 
ATOM      8  C   UNL     1      33.874 -17.904 -25.096  0.00  0.00    -0.008 C 
ATOM      9  C   UNL     1      32.461 -15.974 -25.439  0.00  0.00    +0.014 C 
ATOM     10  C   UNL     1      32.771 -17.306 -25.709  0.00  0.00    -0.002 C 
ATOM     11  C   UNL     1      34.184 -19.332 -25.404  0.00  0.00    +0.032 C 
BRANCH   6  13
ATOM     12  S   UNL     1      37.372 -19.023 -21.868  0.00  0.00    -0.059 S 
ATOM     13  N   UNL     1      35.785 -17.756 -23.586  0.00  0.00    -0.283 N 
ATOM     14  N   UNL     1      34.792 -19.156 -21.959  0.00  0.00    -0.384 NA
ATOM     15  C   UNL     1      35.843 -18.614 -22.523  0.00  0.00    +0.211 C 
ATOM     16  C   UNL     1      35.216 -19.963 -20.921  0.00  0.00    +0.124 C 
ATOM     17  C   UNL     1      36.579 -20.018 -20.719  0.00  0.00    +0.125 C 
ATOM     18  H   UNL     1      36.657 -17.511 -23.973  0.00  0.00    +0.155 HD
BRANCH  16  20
ATOM     19  N   UNL     1      32.003 -21.057 -19.406  0.00  0.00    -0.242 NA
ATOM     20  C   UNL     1      34.286 -20.695 -20.111  0.00  0.00    +0.046 C 
ATOM     21  C   UNL     1      34.716 -21.714 -19.270  0.00  0.00    +0.005 C 
ATOM     22  C   UNL     1      32.931 -20.407 -20.144  0.00  0.00    +0.101 C 
ATOM     23  C   UNL     1      33.791 -22.406 -18.496  0.00  0.00    +0.021 C 
ATOM     24  C   UNL     1      32.458 -22.042 -18.600  0.00  0.00    +0.099 C 
ENDBRANCH  16  20
ENDBRANCH   6  13
ENDBRANCH   2   5
BRANCH   3  30
ATOM     25  C   UNL     1      31.767  -9.178 -23.140  0.00  0.00    -0.043 C 
ATOM     26  C   UNL     1      31.247 -10.011 -22.158  0.00  0.00    -0.006 C 
ATOM     27  C   UNL     1      32.655  -9.662 -24.091  0.00  0.00    -0.006 C 
ATOM     28  C   UNL     1      31.623 -11.355 -22.128  0.00  0.00    +0.004 C 
ATOM     29  C   UNL     1      33.030 -11.004 -24.060  0.00  0.00    +0.004 C 
ATOM     30  C   UNL     1      32.514 -11.850 -23.079  0.00  0.00    +0.054 C 
BRANCH  25  31
ATOM     31  C   UNL     1      31.363  -7.728 -23.171  0.00  0.00    -0.050 C 
BRANCH  31  32
ATOM     32  N   UNL     1      31.594  -7.128 -24.485  0.00  0.00    +0.387 N 
ATOM     33  N   UNL     1      31.480  -4.944 -26.375  0.00  0.00    +0.383 N 
ATOM     34  C   UNL     1      30.326  -6.720 -25.101  0.00  0.00    -0.100 C 
ATOM     35  C   UNL     1      32.506  -5.983 -24.382  0.00  0.00    -0.100 C 
ATOM     36  C   UNL     1      30.566  -6.089 -26.477  0.00  0.00    -0.101 C 
ATOM     37  C   UNL     1      32.748  -5.354 -25.758  0.00  0.00    -0.101 C 
ATOM     38  C   UNL     1      31.712  -4.346 -27.689  0.00  0.00    -0.101 C 
ATOM     39  H   UNL     1      32.028  -7.833 -25.080  0.00  0.00    -0.079 HD
ATOM     40  H   UNL     1      31.045  -4.238 -25.781  0.00  0.00    -0.080 HD
ENDBRANCH  31  32
ENDBRANCH  25  31
ENDBRANCH   3  30
TORSDOF 6
ENDMDL
