MODEL 1
REMARK VINA RESULT:     -14.5      0.000      0.000
REMARK  Name = 67335295
REMARK  6 active torsions:
REMARK  status: ('A' for Active; 'I' for Inactive)
REMARK    1  A    between atoms: N_2  and  C_14
REMARK    2  A    between atoms: C_7  and  O_20
REMARK    3  A    between atoms: O_20  and  C_21
REMARK    4  A    between atoms: C_21  and  C_23
REMARK    5  A    between atoms: C_22  and  C_28
REMARK    6  A    between atoms: C_28  and  N_30
REMARK                            x       y       z     vdW  Elec       q    Type
REMARK                         _______ _______ _______ _____ _____    ______ ____
ROOT
ATOM      1  O   UNL     1      33.792 -24.271 -12.692  0.00  0.00    -0.270 OA
ATOM      2  N   UNL     1      34.823 -24.207 -14.817  0.00  0.00    -0.265 N 
ATOM      3  C   UNL     1      34.424 -23.861 -16.177  0.00  0.00    +0.124 C 
ATOM      4  C   UNL     1      32.994 -23.483 -15.991  0.00  0.00    +0.036 C 
ATOM      5  C   UNL     1      33.795 -24.069 -13.893  0.00  0.00    +0.249 C 
ATOM      6  C   UNL     1      32.626 -23.606 -14.651  0.00  0.00    +0.054 C 
ATOM      7  C   UNL     1      32.074 -23.059 -16.931  0.00  0.00    +0.137 C 
ATOM      8  C   UNL     1      31.354 -23.318 -14.196  0.00  0.00    +0.004 C 
ATOM      9  C   UNL     1      30.778 -22.762 -16.498  0.00  0.00    +0.037 C 
ATOM     10  C   UNL     1      30.422 -22.890 -15.142  0.00  0.00    +0.003 C 
ENDROOT
BRANCH   2  14
ATOM     11  O   UNL     1      36.897 -22.529 -15.363  0.00  0.00    -0.273 OA
ATOM     12  O   UNL     1      39.955 -25.972 -15.420  0.00  0.00    -0.275 OA
ATOM     13  N   UNL     1      38.388 -24.282 -15.404  0.00  0.00    -0.254 N 
ATOM     14  C   UNL     1      36.149 -24.646 -14.468  0.00  0.00    +0.153 C 
ATOM     15  C   UNL     1      36.378 -26.090 -14.886  0.00  0.00    +0.039 C 
ATOM     16  C   UNL     1      37.795 -26.498 -14.529  0.00  0.00    +0.088 C 
ATOM     17  C   UNL     1      37.141 -23.715 -15.139  0.00  0.00    +0.246 C 
ATOM     18  C   UNL     1      38.812 -25.586 -15.172  0.00  0.00    +0.228 C 
ATOM     19  H   UNL     1      39.054 -23.679 -15.808  0.00  0.00    +0.158 HD
ENDBRANCH   2  14
BRANCH   7  20
ATOM     20  O   UNL     1      32.408 -22.935 -18.241  0.00  0.00    -0.471 OA
BRANCH  20  21
ATOM     21  C   UNL     1      33.795 -22.788 -18.549  0.00  0.00    +0.232 C 
BRANCH  21  23
ATOM     22  C   UNL     1      34.303 -19.413 -21.151  0.00  0.00    -0.043 C 
ATOM     23  C   UNL     1      33.973 -21.606 -19.457  0.00  0.00    +0.021 C 
ATOM     24  C   UNL     1      33.020 -19.861 -20.830  0.00  0.00    -0.007 C 
ATOM     25  C   UNL     1      35.419 -20.063 -20.625  0.00  0.00    -0.007 C 
ATOM     26  C   UNL     1      32.855 -20.957 -19.983  0.00  0.00    -0.001 C 
ATOM     27  C   UNL     1      35.254 -21.159 -19.778  0.00  0.00    -0.001 C 
BRANCH  22  28
ATOM     28  C   UNL     1      34.478 -18.242 -22.056  0.00  0.00    -0.050 C 
BRANCH  28  30
ATOM     29  O   UNL     1      33.939 -18.416 -26.215  0.00  0.00    -0.358 OA
ATOM     30  N   UNL     1      33.874 -18.459 -23.370  0.00  0.00    +0.393 N 
ATOM     31  C   UNL     1      33.794 -17.199 -24.121  0.00  0.00    -0.044 C 
ATOM     32  C   UNL     1      34.637 -19.455 -24.136  0.00  0.00    -0.044 C 
ATOM     33  C   UNL     1      33.997 -19.655 -25.507  0.00  0.00    +0.119 C 
ATOM     34  C   UNL     1      33.173 -17.453 -25.492  0.00  0.00    +0.119 C 
ATOM     35  H   UNL     1      32.929 -18.813 -23.225  0.00  0.00    -0.079 HD
ENDBRANCH  28  30
ENDBRANCH  22  28
ENDBRANCH  21  23
ENDBRANCH  20  21
ENDBRANCH   7  20
TORSDOF 6
ENDMDL
MODEL 2
REMARK VINA RESULT:     -13.6      1.459      2.158
REMARK  Name = 67335295
REMARK  6 active torsions:
REMARK  status: ('A' for Active; 'I' for Inactive)
REMARK    1  A    between atoms: N_2  and  C_14
REMARK    2  A    between atoms: C_7  and  O_20
REMARK    3  A    between atoms: O_20  and  C_21
REMARK    4  A    between atoms: C_21  and  C_23
REMARK    5  A    between atoms: C_22  and  C_28
REMARK    6  A    between atoms: C_28  and  N_30
REMARK                            x       y       z     vdW  Elec       q    Type
REMARK                         _______ _______ _______ _____ _____    ______ ____
ROOT
ATOM      1  O   UNL     1      33.391 -24.486 -12.812  0.00  0.00    -0.270 OA
ATOM      2  N   UNL     1      34.681 -24.351 -14.788  0.00  0.00    -0.265 N 
ATOM      3  C   UNL     1      34.468 -23.911 -16.161  0.00  0.00    +0.124 C 
ATOM      4  C   UNL     1      33.043 -23.476 -16.128  0.00  0.00    +0.036 C 
ATOM      5  C   UNL     1      33.551 -24.217 -13.989  0.00  0.00    +0.249 C 
ATOM      6  C   UNL     1      32.506 -23.657 -14.853  0.00  0.00    +0.054 C 
ATOM      7  C   UNL     1      32.264 -22.957 -17.146  0.00  0.00    +0.137 C 
ATOM      8  C   UNL     1      31.200 -23.335 -14.540  0.00  0.00    +0.004 C 
ATOM      9  C   UNL     1      30.938 -22.623 -16.856  0.00  0.00    +0.037 C 
ATOM     10  C   UNL     1      30.410 -22.810 -15.564  0.00  0.00    +0.003 C 
ENDROOT
BRANCH   2  14
ATOM     11  O   UNL     1      36.878 -22.758 -14.999  0.00  0.00    -0.273 OA
ATOM     12  O   UNL     1      39.763 -26.343 -14.869  0.00  0.00    -0.275 OA
ATOM     13  N   UNL     1      38.283 -24.579 -14.953  0.00  0.00    -0.254 N 
ATOM     14  C   UNL     1      35.933 -24.872 -14.307  0.00  0.00    +0.153 C 
ATOM     15  C   UNL     1      36.146 -26.306 -14.769  0.00  0.00    +0.039 C 
ATOM     16  C   UNL     1      37.491 -26.801 -14.268  0.00  0.00    +0.088 C 
ATOM     17  C   UNL     1      37.040 -23.962 -14.808  0.00  0.00    +0.246 C 
ATOM     18  C   UNL     1      38.618 -25.913 -14.739  0.00  0.00    +0.228 C 
ATOM     19  H   UNL     1      39.019 -23.993 -15.244  0.00  0.00    +0.158 HD
ENDBRANCH   2  14
BRANCH   7  20
ATOM     20  O   UNL     1      32.764 -22.775 -18.395  0.00  0.00    -0.471 OA
BRANCH  20  21
ATOM     21  C   UNL     1      34.129 -22.367 -18.498  0.00  0.00    +0.232 C 
BRANCH  21  23
ATOM     22  C   UNL     1      34.494 -19.482 -21.654  0.00  0.00    -0.043 C 
ATOM     23  C   UNL     1      34.257 -21.360 -19.604  0.00  0.00    +0.021 C 
ATOM     24  C   UNL     1      35.638 -20.065 -21.105  0.00  0.00    -0.007 C 
ATOM     25  C   UNL     1      33.233 -19.839 -21.178  0.00  0.00    -0.007 C 
ATOM     26  C   UNL     1      35.518 -21.003 -20.079  0.00  0.00    -0.001 C 
ATOM     27  C   UNL     1      33.114 -20.778 -20.153  0.00  0.00    -0.001 C 
BRANCH  22  28
ATOM     28  C   UNL     1      34.623 -18.479 -22.750  0.00  0.00    -0.050 C 
BRANCH  28  30
ATOM     29  O   UNL     1      34.925 -14.456 -21.590  0.00  0.00    -0.358 OA
ATOM     30  N   UNL     1      34.267 -17.130 -22.312  0.00  0.00    +0.393 N 
ATOM     31  C   UNL     1      34.902 -16.816 -21.025  0.00  0.00    -0.044 C 
ATOM     32  C   UNL     1      34.657 -16.135 -23.322  0.00  0.00    -0.044 C 
ATOM     33  C   UNL     1      34.289 -14.735 -22.838  0.00  0.00    +0.119 C 
ATOM     34  C   UNL     1      34.527 -15.400 -20.596  0.00  0.00    +0.119 C 
ATOM     35  H   UNL     1      33.255 -17.096 -22.194  0.00  0.00    -0.079 HD
ENDBRANCH  28  30
ENDBRANCH  22  28
ENDBRANCH  21  23
ENDBRANCH  20  21
ENDBRANCH   7  20
TORSDOF 6
ENDMDL
MODEL 3
REMARK VINA RESULT:     -13.0      2.055      2.536
REMARK  Name = 67335295
REMARK  6 active torsions:
REMARK  status: ('A' for Active; 'I' for Inactive)
REMARK    1  A    between atoms: N_2  and  C_14
REMARK    2  A    between atoms: C_7  and  O_20
REMARK    3  A    between atoms: O_20  and  C_21
REMARK    4  A    between atoms: C_21  and  C_23
REMARK    5  A    between atoms: C_22  and  C_28
REMARK    6  A    between atoms: C_28  and  N_30
REMARK                            x       y       z     vdW  Elec       q    Type
REMARK                         _______ _______ _______ _____ _____    ______ ____
ROOT
ATOM      1  O   UNL     1      32.678 -24.398 -12.884  0.00  0.00    -0.270 OA
ATOM      2  N   UNL     1      33.996 -23.888 -14.778  0.00  0.00    -0.265 N 
ATOM      3  C   UNL     1      33.761 -23.379 -16.123  0.00  0.00    +0.124 C 
ATOM      4  C   UNL     1      32.282 -23.194 -16.129  0.00  0.00    +0.036 C 
ATOM      5  C   UNL     1      32.832 -24.011 -14.027  0.00  0.00    +0.249 C 
ATOM      6  C   UNL     1      31.738 -23.565 -14.898  0.00  0.00    +0.054 C 
ATOM      7  C   UNL     1      31.463 -22.731 -17.142  0.00  0.00    +0.137 C 
ATOM      8  C   UNL     1      30.386 -23.493 -14.627  0.00  0.00    +0.004 C 
ATOM      9  C   UNL     1      30.089 -22.649 -16.894  0.00  0.00    +0.037 C 
ATOM     10  C   UNL     1      29.555 -23.027 -15.647  0.00  0.00    +0.003 C 
ENDROOT
BRANCH   2  14
ATOM     11  O   UNL     1      35.138 -26.189 -15.681  0.00  0.00    -0.273 OA
ATOM     12  O   UNL     1      37.879 -26.534 -11.997  0.00  0.00    -0.275 OA
ATOM     13  N   UNL     1      36.473 -26.335 -13.813  0.00  0.00    -0.254 N 
ATOM     14  C   UNL     1      35.301 -24.229 -14.276  0.00  0.00    +0.153 C 
ATOM     15  C   UNL     1      35.379 -24.034 -12.769  0.00  0.00    +0.039 C 
ATOM     16  C   UNL     1      36.759 -24.437 -12.281  0.00  0.00    +0.088 C 
ATOM     17  C   UNL     1      35.587 -25.669 -14.660  0.00  0.00    +0.246 C 
ATOM     18  C   UNL     1      37.083 -25.863 -12.655  0.00  0.00    +0.228 C 
ATOM     19  H   UNL     1      36.696 -27.259 -14.069  0.00  0.00    +0.158 HD
ENDBRANCH   2  14
BRANCH   7  20
ATOM     20  O   UNL     1      31.969 -22.366 -18.348  0.00  0.00    -0.471 OA
BRANCH  20  21
ATOM     21  C   UNL     1      33.387 -22.422 -18.504  0.00  0.00    +0.232 C 
BRANCH  21  23
ATOM     22  C   UNL     1      34.586 -19.555 -21.463  0.00  0.00    -0.043 C 
ATOM     23  C   UNL     1      33.806 -21.418 -19.537  0.00  0.00    +0.021 C 
ATOM     24  C   UNL     1      33.231 -19.748 -21.186  0.00  0.00    -0.007 C 
ATOM     25  C   UNL     1      35.549 -20.293 -20.777  0.00  0.00    -0.007 C 
ATOM     26  C   UNL     1      32.842 -20.680 -20.224  0.00  0.00    -0.001 C 
ATOM     27  C   UNL     1      35.160 -21.224 -19.813  0.00  0.00    -0.001 C 
BRANCH  22  28
ATOM     28  C   UNL     1      35.001 -18.559 -22.492  0.00  0.00    -0.050 C 
BRANCH  28  30
ATOM     29  O   UNL     1      34.819 -14.437 -21.723  0.00  0.00    -0.358 OA
ATOM     30  N   UNL     1      34.483 -17.221 -22.212  0.00  0.00    +0.393 N 
ATOM     31  C   UNL     1      34.996 -16.723 -20.929  0.00  0.00    -0.044 C 
ATOM     32  C   UNL     1      34.836 -16.289 -23.292  0.00  0.00    -0.044 C 
ATOM     33  C   UNL     1      34.298 -14.897 -22.971  0.00  0.00    +0.119 C 
ATOM     34  C   UNL     1      34.453 -15.322 -20.664  0.00  0.00    +0.119 C 
ATOM     35  H   UNL     1      33.467 -17.284 -22.155  0.00  0.00    -0.079 HD
ENDBRANCH  28  30
ENDBRANCH  22  28
ENDBRANCH  21  23
ENDBRANCH  20  21
ENDBRANCH   7  20
TORSDOF 6
ENDMDL
MODEL 4
REMARK VINA RESULT:     -12.7      2.107      5.100
REMARK  Name = 67335295
REMARK  6 active torsions:
REMARK  status: ('A' for Active; 'I' for Inactive)
REMARK    1  A    between atoms: N_2  and  C_14
REMARK    2  A    between atoms: C_7  and  O_20
REMARK    3  A    between atoms: O_20  and  C_21
REMARK    4  A    between atoms: C_21  and  C_23
REMARK    5  A    between atoms: C_22  and  C_28
REMARK    6  A    between atoms: C_28  and  N_30
REMARK                            x       y       z     vdW  Elec       q    Type
REMARK                         _______ _______ _______ _____ _____    ______ ____
ROOT
ATOM      1  O   UNL     1      32.010 -24.097 -13.062  0.00  0.00    -0.270 OA
ATOM      2  N   UNL     1      31.801 -23.413 -15.314  0.00  0.00    -0.265 N 
ATOM      3  C   UNL     1      32.707 -23.074 -16.405  0.00  0.00    +0.124 C 
ATOM      4  C   UNL     1      34.041 -23.257 -15.765  0.00  0.00    +0.036 C 
ATOM      5  C   UNL     1      32.461 -23.764 -14.143  0.00  0.00    +0.249 C 
ATOM      6  C   UNL     1      33.895 -23.661 -14.438  0.00  0.00    +0.054 C 
ATOM      7  C   UNL     1      35.301 -23.081 -16.307  0.00  0.00    +0.137 C 
ATOM      8  C   UNL     1      34.972 -23.904 -13.609  0.00  0.00    +0.004 C 
ATOM      9  C   UNL     1      36.409 -23.320 -15.488  0.00  0.00    +0.037 C 
ATOM     10  C   UNL     1      36.246 -23.728 -14.151  0.00  0.00    +0.003 C 
ENDROOT
BRANCH   2  14
ATOM     11  O   UNL     1      30.482 -25.794 -15.239  0.00  0.00    -0.273 OA
ATOM     12  O   UNL     1      26.839 -24.099 -17.488  0.00  0.00    -0.275 OA
ATOM     13  N   UNL     1      28.692 -24.912 -16.384  0.00  0.00    -0.254 N 
ATOM     14  C   UNL     1      30.367 -23.388 -15.438  0.00  0.00    +0.153 C 
ATOM     15  C   UNL     1      29.928 -22.458 -16.559  0.00  0.00    +0.039 C 
ATOM     16  C   UNL     1      28.415 -22.489 -16.674  0.00  0.00    +0.088 C 
ATOM     17  C   UNL     1      29.895 -24.809 -15.685  0.00  0.00    +0.246 C 
ATOM     18  C   UNL     1      27.907 -23.891 -16.911  0.00  0.00    +0.228 C 
ATOM     19  H   UNL     1      28.355 -25.827 -16.522  0.00  0.00    +0.158 HD
ENDBRANCH   2  14
BRANCH   7  20
ATOM     20  O   UNL     1      35.467 -22.686 -17.595  0.00  0.00    -0.471 OA
BRANCH  20  21
ATOM     21  C   UNL     1      34.295 -22.591 -18.405  0.00  0.00    +0.232 C 
BRANCH  21  23
ATOM     22  C   UNL     1      34.776 -19.361 -21.188  0.00  0.00    -0.043 C 
ATOM     23  C   UNL     1      34.463 -21.463 -19.380  0.00  0.00    +0.021 C 
ATOM     24  C   UNL     1      35.898 -19.957 -20.609  0.00  0.00    -0.007 C 
ATOM     25  C   UNL     1      33.499 -19.816 -20.862  0.00  0.00    -0.007 C 
ATOM     26  C   UNL     1      35.741 -21.008 -19.705  0.00  0.00    -0.001 C 
ATOM     27  C   UNL     1      33.342 -20.868 -19.958  0.00  0.00    -0.001 C 
BRANCH  22  28
ATOM     28  C   UNL     1      34.944 -18.237 -22.154  0.00  0.00    -0.050 C 
BRANCH  28  30
ATOM     29  O   UNL     1      33.874 -18.444 -26.207  0.00  0.00    -0.358 OA
ATOM     30  N   UNL     1      34.166 -18.433 -23.375  0.00  0.00    +0.393 N 
ATOM     31  C   UNL     1      34.080 -17.184 -24.144  0.00  0.00    -0.044 C 
ATOM     32  C   UNL     1      34.754 -19.495 -24.204  0.00  0.00    -0.044 C 
ATOM     33  C   UNL     1      33.933 -19.672 -25.479  0.00  0.00    +0.119 C 
ATOM     34  C   UNL     1      33.275 -17.415 -25.419  0.00  0.00    +0.119 C 
ATOM     35  H   UNL     1      33.224 -18.715 -23.105  0.00  0.00    -0.079 HD
ENDBRANCH  28  30
ENDBRANCH  22  28
ENDBRANCH  21  23
ENDBRANCH  20  21
ENDBRANCH   7  20
TORSDOF 6
ENDMDL
MODEL 5
REMARK VINA RESULT:     -12.6      2.577      5.557
REMARK  Name = 67335295
REMARK  6 active torsions:
REMARK  status: ('A' for Active; 'I' for Inactive)
REMARK    1  A    between atoms: N_2  and  C_14
REMARK    2  A    between atoms: C_7  and  O_20
REMARK    3  A    between atoms: O_20  and  C_21
REMARK    4  A    between atoms: C_21  and  C_23
REMARK    5  A    between atoms: C_22  and  C_28
REMARK    6  A    between atoms: C_28  and  N_30
REMARK                            x       y       z     vdW  Elec       q    Type
REMARK                         _______ _______ _______ _____ _____    ______ ____
ROOT
ATOM      1  O   UNL     1      31.598 -25.014 -12.967  0.00  0.00    -0.270 OA
ATOM      2  N   UNL     1      31.347 -23.715 -14.925  0.00  0.00    -0.265 N 
ATOM      3  C   UNL     1      32.229 -23.146 -15.937  0.00  0.00    +0.124 C 
ATOM      4  C   UNL     1      33.570 -23.589 -15.461  0.00  0.00    +0.036 C 
ATOM      5  C   UNL     1      32.027 -24.423 -13.941  0.00  0.00    +0.249 C 
ATOM      6  C   UNL     1      33.450 -24.338 -14.289  0.00  0.00    +0.054 C 
ATOM      7  C   UNL     1      34.815 -23.355 -16.014  0.00  0.00    +0.137 C 
ATOM      8  C   UNL     1      34.539 -24.875 -13.632  0.00  0.00    +0.004 C 
ATOM      9  C   UNL     1      35.935 -23.887 -15.368  0.00  0.00    +0.037 C 
ATOM     10  C   UNL     1      35.798 -24.641 -14.187  0.00  0.00    +0.003 C 
ENDROOT
BRANCH   2  14
ATOM     11  O   UNL     1      29.881 -25.648 -16.160  0.00  0.00    -0.273 OA
ATOM     12  O   UNL     1      26.322 -22.811 -16.859  0.00  0.00    -0.275 OA
ATOM     13  N   UNL     1      28.134 -24.191 -16.509  0.00  0.00    -0.254 N 
ATOM     14  C   UNL     1      29.916 -23.560 -14.943  0.00  0.00    +0.153 C 
ATOM     15  C   UNL     1      29.522 -22.137 -15.309  0.00  0.00    +0.039 C 
ATOM     16  C   UNL     1      28.008 -22.030 -15.349  0.00  0.00    +0.088 C 
ATOM     17  C   UNL     1      29.351 -24.560 -15.935  0.00  0.00    +0.246 C 
ATOM     18  C   UNL     1      27.408 -23.019 -16.319  0.00  0.00    +0.228 C 
ATOM     19  H   UNL     1      27.738 -24.845 -17.128  0.00  0.00    +0.158 HD
ENDBRANCH   2  14
BRANCH   7  20
ATOM     20  O   UNL     1      34.957 -22.627 -17.152  0.00  0.00    -0.471 OA
BRANCH  20  21
ATOM     21  C   UNL     1      33.863 -22.633 -18.070  0.00  0.00    +0.232 C 
BRANCH  21  23
ATOM     22  C   UNL     1      34.682 -19.865 -21.245  0.00  0.00    -0.043 C 
ATOM     23  C   UNL     1      34.150 -21.664 -19.179  0.00  0.00    +0.021 C 
ATOM     24  C   UNL     1      33.362 -20.150 -20.890  0.00  0.00    -0.007 C 
ATOM     25  C   UNL     1      35.734 -20.479 -20.567  0.00  0.00    -0.007 C 
ATOM     26  C   UNL     1      33.097 -21.049 -19.857  0.00  0.00    -0.001 C 
ATOM     27  C   UNL     1      35.468 -21.378 -19.534  0.00  0.00    -0.001 C 
BRANCH  22  28
ATOM     28  C   UNL     1      34.965 -18.904 -22.350  0.00  0.00    -0.050 C 
BRANCH  28  30
ATOM     29  O   UNL     1      34.755 -14.768 -21.668  0.00  0.00    -0.358 OA
ATOM     30  N   UNL     1      34.441 -17.568 -22.072  0.00  0.00    +0.393 N 
ATOM     31  C   UNL     1      35.017 -17.030 -20.832  0.00  0.00    -0.044 C 
ATOM     32  C   UNL     1      34.717 -16.657 -23.191  0.00  0.00    -0.044 C 
ATOM     33  C   UNL     1      34.173 -15.266 -22.874  0.00  0.00    +0.119 C 
ATOM     34  C   UNL     1      34.465 -15.632 -20.569  0.00  0.00    +0.119 C 
ATOM     35  H   UNL     1      33.431 -17.646 -21.955  0.00  0.00    -0.079 HD
ENDBRANCH  28  30
ENDBRANCH  22  28
ENDBRANCH  21  23
ENDBRANCH  20  21
ENDBRANCH   7  20
TORSDOF 6
ENDMDL
MODEL 6
REMARK VINA RESULT:     -12.6      6.262     13.587
REMARK  Name = 67335295
REMARK  6 active torsions:
REMARK  status: ('A' for Active; 'I' for Inactive)
REMARK    1  A    between atoms: N_2  and  C_14
REMARK    2  A    between atoms: C_7  and  O_20
REMARK    3  A    between atoms: O_20  and  C_21
REMARK    4  A    between atoms: C_21  and  C_23
REMARK    5  A    between atoms: C_22  and  C_28
REMARK    6  A    between atoms: C_28  and  N_30
REMARK                            x       y       z     vdW  Elec       q    Type
REMARK                         _______ _______ _______ _____ _____    ______ ____
ROOT
ATOM      1  O   UNL     1      32.635  -9.065 -26.424  0.00  0.00    -0.270 OA
ATOM      2  N   UNL     1      32.591 -10.066 -24.284  0.00  0.00    -0.265 N 
ATOM      3  C   UNL     1      32.723 -11.414 -23.744  0.00  0.00    +0.124 C 
ATOM      4  C   UNL     1      32.928 -12.222 -24.980  0.00  0.00    +0.036 C 
ATOM      5  C   UNL     1      32.697 -10.018 -25.669  0.00  0.00    +0.249 C 
ATOM      6  C   UNL     1      32.912 -11.401 -26.109  0.00  0.00    +0.054 C 
ATOM      7  C   UNL     1      33.116 -13.585 -25.111  0.00  0.00    +0.137 C 
ATOM      8  C   UNL     1      33.080 -11.890 -27.389  0.00  0.00    +0.004 C 
ATOM      9  C   UNL     1      33.288 -14.106 -26.397  0.00  0.00    +0.037 C 
ATOM     10  C   UNL     1      33.270 -13.266 -27.526  0.00  0.00    +0.003 C 
ENDROOT
BRANCH   2  14
ATOM     11  O   UNL     1      34.756  -8.540 -23.653  0.00  0.00    -0.273 OA
ATOM     12  O   UNL     1      32.705  -6.781 -19.924  0.00  0.00    -0.275 OA
ATOM     13  N   UNL     1      33.702  -7.703 -21.786  0.00  0.00    -0.254 N 
ATOM     14  C   UNL     1      32.373  -8.902 -23.466  0.00  0.00    +0.153 C 
ATOM     15  C   UNL     1      31.460  -9.218 -22.292  0.00  0.00    +0.039 C 
ATOM     16  C   UNL     1      31.286  -7.973 -21.441  0.00  0.00    +0.088 C 
ATOM     17  C   UNL     1      33.727  -8.405 -22.991  0.00  0.00    +0.246 C 
ATOM     18  C   UNL     1      32.615  -7.443 -20.958  0.00  0.00    +0.228 C 
ATOM     19  H   UNL     1      34.568  -7.345 -21.483  0.00  0.00    +0.158 HD
ENDBRANCH   2  14
BRANCH   7  20
ATOM     20  O   UNL     1      33.132 -14.403 -24.027  0.00  0.00    -0.471 OA
BRANCH  20  21
ATOM     21  C   UNL     1      34.227 -14.262 -23.120  0.00  0.00    +0.232 C 
BRANCH  21  23
ATOM     22  C   UNL     1      35.333 -18.135 -21.640  0.00  0.00    -0.043 C 
ATOM     23  C   UNL     1      34.611 -15.617 -22.603  0.00  0.00    +0.021 C 
ATOM     24  C   UNL     1      34.998 -17.116 -20.747  0.00  0.00    -0.007 C 
ATOM     25  C   UNL     1      35.307 -17.895 -23.014  0.00  0.00    -0.007 C 
ATOM     26  C   UNL     1      34.638 -15.857 -21.229  0.00  0.00    -0.001 C 
ATOM     27  C   UNL     1      34.945 -16.636 -23.495  0.00  0.00    -0.001 C 
BRANCH  22  28
ATOM     28  C   UNL     1      35.719 -19.480 -21.125  0.00  0.00    -0.050 C 
BRANCH  28  30
ATOM     29  O   UNL     1      32.705 -22.009 -19.663  0.00  0.00    -0.358 OA
ATOM     30  N   UNL     1      34.691 -20.060 -20.262  0.00  0.00    +0.393 N 
ATOM     31  C   UNL     1      33.384 -20.058 -20.934  0.00  0.00    -0.044 C 
ATOM     32  C   UNL     1      35.053 -21.430 -19.870  0.00  0.00    -0.044 C 
ATOM     33  C   UNL     1      33.960 -22.019 -18.981  0.00  0.00    +0.119 C 
ATOM     34  C   UNL     1      32.332 -20.678 -20.020  0.00  0.00    +0.119 C 
ATOM     35  H   UNL     1      34.627 -19.486 -19.422  0.00  0.00    -0.079 HD
ENDBRANCH  28  30
ENDBRANCH  22  28
ENDBRANCH  21  23
ENDBRANCH  20  21
ENDBRANCH   7  20
TORSDOF 6
ENDMDL
MODEL 7
REMARK VINA RESULT:     -12.3      3.503     12.261
REMARK  Name = 67335295
REMARK  6 active torsions:
REMARK  status: ('A' for Active; 'I' for Inactive)
REMARK    1  A    between atoms: N_2  and  C_14
REMARK    2  A    between atoms: C_7  and  O_20
REMARK    3  A    between atoms: O_20  and  C_21
REMARK    4  A    between atoms: C_21  and  C_23
REMARK    5  A    between atoms: C_22  and  C_28
REMARK    6  A    between atoms: C_28  and  N_30
REMARK                            x       y       z     vdW  Elec       q    Type
REMARK                         _______ _______ _______ _____ _____    ______ ____
ROOT
ATOM      1  O   UNL     1      31.767 -15.750 -27.420  0.00  0.00    -0.270 OA
ATOM      2  N   UNL     1      33.153 -14.795 -25.761  0.00  0.00    -0.265 N 
ATOM      3  C   UNL     1      34.033 -15.286 -24.707  0.00  0.00    +0.124 C 
ATOM      4  C   UNL     1      33.903 -16.763 -24.861  0.00  0.00    +0.036 C 
ATOM      5  C   UNL     1      32.546 -15.814 -26.486  0.00  0.00    +0.249 C 
ATOM      6  C   UNL     1      33.030 -17.071 -25.905  0.00  0.00    +0.054 C 
ATOM      7  C   UNL     1      34.507 -17.774 -24.136  0.00  0.00    +0.137 C 
ATOM      8  C   UNL     1      32.726 -18.369 -26.266  0.00  0.00    +0.004 C 
ATOM      9  C   UNL     1      34.217 -19.097 -24.481  0.00  0.00    +0.037 C 
ATOM     10  C   UNL     1      33.334 -19.392 -25.537  0.00  0.00    +0.003 C 
ENDROOT
BRANCH   2  14
ATOM     11  O   UNL     1      34.114 -13.783 -28.099  0.00  0.00    -0.273 OA
ATOM     12  O   UNL     1      34.235  -9.488 -26.445  0.00  0.00    -0.275 OA
ATOM     13  N   UNL     1      34.179 -11.655 -27.225  0.00  0.00    -0.254 N 
ATOM     14  C   UNL     1      32.936 -13.397 -26.024  0.00  0.00    +0.153 C 
ATOM     15  C   UNL     1      33.242 -12.552 -24.797  0.00  0.00    +0.039 C 
ATOM     16  C   UNL     1      33.031 -11.086 -25.130  0.00  0.00    +0.088 C 
ATOM     17  C   UNL     1      33.813 -13.001 -27.198  0.00  0.00    +0.246 C 
ATOM     18  C   UNL     1      33.881 -10.658 -26.302  0.00  0.00    +0.228 C 
ATOM     19  H   UNL     1      34.720 -11.376 -28.000  0.00  0.00    +0.158 HD
ENDBRANCH   2  14
BRANCH   7  20
ATOM     20  O   UNL     1      35.359 -17.498 -23.115  0.00  0.00    -0.471 OA
BRANCH  20  21
ATOM     21  C   UNL     1      34.790 -17.351 -21.813  0.00  0.00    +0.232 C 
BRANCH  21  23
ATOM     22  C   UNL     1      34.656 -21.194 -19.907  0.00  0.00    -0.043 C 
ATOM     23  C   UNL     1      34.743 -18.694 -21.145  0.00  0.00    +0.021 C 
ATOM     24  C   UNL     1      35.883 -20.568 -20.132  0.00  0.00    -0.007 C 
ATOM     25  C   UNL     1      33.473 -20.569 -20.302  0.00  0.00    -0.007 C 
ATOM     26  C   UNL     1      35.926 -19.318 -20.750  0.00  0.00    -0.001 C 
ATOM     27  C   UNL     1      33.516 -19.319 -20.920  0.00  0.00    -0.001 C 
BRANCH  22  28
ATOM     28  C   UNL     1      34.610 -22.530 -19.247  0.00  0.00    -0.050 C 
BRANCH  28  30
ATOM     29  O   UNL     1      33.547 -23.604 -15.331  0.00  0.00    -0.358 OA
ATOM     30  N   UNL     1      34.135 -22.451 -17.866  0.00  0.00    +0.393 N 
ATOM     31  C   UNL     1      32.965 -23.317 -17.669  0.00  0.00    -0.044 C 
ATOM     32  C   UNL     1      35.202 -22.823 -16.926  0.00  0.00    -0.044 C 
ATOM     33  C   UNL     1      34.679 -22.747 -15.494  0.00  0.00    +0.119 C 
ATOM     34  C   UNL     1      32.495 -23.228 -16.219  0.00  0.00    +0.119 C 
ATOM     35  H   UNL     1      33.862 -21.486 -17.684  0.00  0.00    -0.079 HD
ENDBRANCH  28  30
ENDBRANCH  22  28
ENDBRANCH  21  23
ENDBRANCH  20  21
ENDBRANCH   7  20
TORSDOF 6
ENDMDL
MODEL 8
REMARK VINA RESULT:     -12.3      3.727     11.883
REMARK  Name = 67335295
REMARK  6 active torsions:
REMARK  status: ('A' for Active; 'I' for Inactive)
REMARK    1  A    between atoms: N_2  and  C_14
REMARK    2  A    between atoms: C_7  and  O_20
REMARK    3  A    between atoms: O_20  and  C_21
REMARK    4  A    between atoms: C_21  and  C_23
REMARK    5  A    between atoms: C_22  and  C_28
REMARK    6  A    between atoms: C_28  and  N_30
REMARK                            x       y       z     vdW  Elec       q    Type
REMARK                         _______ _______ _______ _____ _____    ______ ____
ROOT
ATOM      1  O   UNL     1      32.357 -14.152 -25.965  0.00  0.00    -0.270 OA
ATOM      2  N   UNL     1      33.836 -14.247 -24.125  0.00  0.00    -0.265 N 
ATOM      3  C   UNL     1      34.568 -15.284 -23.409  0.00  0.00    +0.124 C 
ATOM      4  C   UNL     1      34.167 -16.513 -24.151  0.00  0.00    +0.036 C 
ATOM      5  C   UNL     1      33.074 -14.741 -25.177  0.00  0.00    +0.249 C 
ATOM      6  C   UNL     1      33.290 -16.192 -25.188  0.00  0.00    +0.054 C 
ATOM      7  C   UNL     1      34.542 -17.826 -23.935  0.00  0.00    +0.137 C 
ATOM      8  C   UNL     1      32.760 -17.143 -26.038  0.00  0.00    +0.004 C 
ATOM      9  C   UNL     1      34.019 -18.808 -24.782  0.00  0.00    +0.037 C 
ATOM     10  C   UNL     1      33.136 -18.470 -25.824  0.00  0.00    +0.003 C 
ENDROOT
BRANCH   2  14
ATOM     11  O   UNL     1      32.237 -13.375 -22.101  0.00  0.00    -0.273 OA
ATOM     12  O   UNL     1      32.311  -9.029 -23.619  0.00  0.00    -0.275 OA
ATOM     13  N   UNL     1      32.283 -11.220 -22.906  0.00  0.00    -0.254 N 
ATOM     14  C   UNL     1      33.897 -12.851 -23.778  0.00  0.00    +0.153 C 
ATOM     15  C   UNL     1      33.877 -11.974 -25.021  0.00  0.00    +0.039 C 
ATOM     16  C   UNL     1      33.908 -10.514 -24.607  0.00  0.00    +0.088 C 
ATOM     17  C   UNL     1      32.720 -12.544 -22.869  0.00  0.00    +0.246 C 
ATOM     18  C   UNL     1      32.756 -10.174 -23.692  0.00  0.00    +0.228 C 
ATOM     19  H   UNL     1      31.543 -10.998 -22.296  0.00  0.00    +0.158 HD
ENDBRANCH   2  14
BRANCH   7  20
ATOM     20  O   UNL     1      35.392 -18.162 -22.931  0.00  0.00    -0.471 OA
BRANCH  20  21
ATOM     21  C   UNL     1      34.965 -17.886 -21.596  0.00  0.00    +0.232 C 
BRANCH  21  23
ATOM     22  C   UNL     1      33.983 -21.585 -19.655  0.00  0.00    -0.043 C 
ATOM     23  C   UNL     1      34.622 -19.179 -20.916  0.00  0.00    +0.021 C 
ATOM     24  C   UNL     1      35.317 -21.189 -19.769  0.00  0.00    -0.007 C 
ATOM     25  C   UNL     1      32.970 -20.779 -20.173  0.00  0.00    -0.007 C 
ATOM     26  C   UNL     1      35.636 -19.986 -20.399  0.00  0.00    -0.001 C 
ATOM     27  C   UNL     1      33.289 -19.575 -20.802  0.00  0.00    -0.001 C 
BRANCH  22  28
ATOM     28  C   UNL     1      33.643 -22.872 -18.982  0.00  0.00    -0.050 C 
BRANCH  28  30
ATOM     29  O   UNL     1      32.987 -23.715 -14.923  0.00  0.00    -0.358 OA
ATOM     30  N   UNL     1      33.394 -22.702 -17.552  0.00  0.00    +0.393 N 
ATOM     31  C   UNL     1      32.131 -23.345 -17.164  0.00  0.00    -0.044 C 
ATOM     32  C   UNL     1      34.504 -23.251 -16.760  0.00  0.00    -0.044 C 
ATOM     33  C   UNL     1      34.215 -23.074 -15.272  0.00  0.00    +0.119 C 
ATOM     34  C   UNL     1      31.899 -23.165 -15.666  0.00  0.00    +0.119 C 
ATOM     35  H   UNL     1      33.322 -21.702 -17.364  0.00  0.00    -0.079 HD
ENDBRANCH  28  30
ENDBRANCH  22  28
ENDBRANCH  21  23
ENDBRANCH  20  21
ENDBRANCH   7  20
TORSDOF 6
ENDMDL
MODEL 9
REMARK VINA RESULT:     -12.1      2.598      5.378
REMARK  Name = 67335295
REMARK  6 active torsions:
REMARK  status: ('A' for Active; 'I' for Inactive)
REMARK    1  A    between atoms: N_2  and  C_14
REMARK    2  A    between atoms: C_7  and  O_20
REMARK    3  A    between atoms: O_20  and  C_21
REMARK    4  A    between atoms: C_21  and  C_23
REMARK    5  A    between atoms: C_22  and  C_28
REMARK    6  A    between atoms: C_28  and  N_30
REMARK                            x       y       z     vdW  Elec       q    Type
REMARK                         _______ _______ _______ _____ _____    ______ ____
ROOT
ATOM      1  O   UNL     1      32.287 -24.431 -13.482  0.00  0.00    -0.270 OA
ATOM      2  N   UNL     1      32.165 -23.756 -15.743  0.00  0.00    -0.265 N 
ATOM      3  C   UNL     1      33.087 -23.221 -16.738  0.00  0.00    +0.124 C 
ATOM      4  C   UNL     1      34.361 -23.148 -15.969  0.00  0.00    +0.036 C 
ATOM      5  C   UNL     1      32.765 -23.993 -14.512  0.00  0.00    +0.249 C 
ATOM      6  C   UNL     1      34.171 -23.600 -14.663  0.00  0.00    +0.054 C 
ATOM      7  C   UNL     1      35.607 -22.714 -16.383  0.00  0.00    +0.137 C 
ATOM      8  C   UNL     1      35.190 -23.641 -13.731  0.00  0.00    +0.004 C 
ATOM      9  C   UNL     1      36.656 -22.744 -15.459  0.00  0.00    +0.037 C 
ATOM     10  C   UNL     1      36.449 -23.204 -14.144  0.00  0.00    +0.003 C 
ENDROOT
BRANCH   2  14
ATOM     11  O   UNL     1      30.911 -22.177 -17.572  0.00  0.00    -0.273 OA
ATOM     12  O   UNL     1      26.751 -23.056 -15.806  0.00  0.00    -0.275 OA
ATOM     13  N   UNL     1      28.854 -22.625 -16.645  0.00  0.00    -0.254 N 
ATOM     14  C   UNL     1      30.774 -24.015 -16.009  0.00  0.00    +0.153 C 
ATOM     15  C   UNL     1      29.998 -24.225 -14.718  0.00  0.00    +0.039 C 
ATOM     16  C   UNL     1      28.534 -24.461 -15.044  0.00  0.00    +0.088 C 
ATOM     17  C   UNL     1      30.223 -22.841 -16.797  0.00  0.00    +0.246 C 
ATOM     18  C   UNL     1      27.953 -23.315 -15.839  0.00  0.00    +0.228 C 
ATOM     19  H   UNL     1      28.476 -21.888 -17.177  0.00  0.00    +0.158 HD
ENDBRANCH   2  14
BRANCH   7  20
ATOM     20  O   UNL     1      35.816 -22.267 -17.648  0.00  0.00    -0.471 OA
BRANCH  20  21
ATOM     21  C   UNL     1      34.703 -22.302 -18.543  0.00  0.00    +0.232 C 
BRANCH  21  23
ATOM     22  C   UNL     1      35.209 -19.251 -21.518  0.00  0.00    -0.043 C 
ATOM     23  C   UNL     1      34.881 -21.237 -19.585  0.00  0.00    +0.021 C 
ATOM     24  C   UNL     1      36.318 -19.747 -20.831  0.00  0.00    -0.007 C 
ATOM     25  C   UNL     1      33.937 -19.748 -21.238  0.00  0.00    -0.007 C 
ATOM     26  C   UNL     1      36.154 -20.739 -19.864  0.00  0.00    -0.001 C 
ATOM     27  C   UNL     1      33.772 -20.741 -20.272  0.00  0.00    -0.001 C 
BRANCH  22  28
ATOM     28  C   UNL     1      35.386 -18.190 -22.550  0.00  0.00    -0.050 C 
BRANCH  28  30
ATOM     29  O   UNL     1      34.473 -14.204 -21.600  0.00  0.00    -0.358 OA
ATOM     30  N   UNL     1      34.637 -16.975 -22.233  0.00  0.00    +0.393 N 
ATOM     31  C   UNL     1      35.008 -16.467 -20.905  0.00  0.00    -0.044 C 
ATOM     32  C   UNL     1      34.867 -15.940 -23.250  0.00  0.00    -0.044 C 
ATOM     33  C   UNL     1      34.086 -14.678 -22.891  0.00  0.00    +0.119 C 
ATOM     34  C   UNL     1      34.223 -15.194 -20.601  0.00  0.00    +0.119 C 
ATOM     35  H   UNL     1      33.645 -17.212 -22.226  0.00  0.00    -0.079 HD
ENDBRANCH  28  30
ENDBRANCH  22  28
ENDBRANCH  21  23
ENDBRANCH  20  21
ENDBRANCH   7  20
TORSDOF 6
ENDMDL
