MODEL 1
REMARK VINA RESULT:     -11.0      0.000      0.000
REMARK  Name = 5326866
REMARK  5 active torsions:
REMARK  status: ('A' for Active; 'I' for Inactive)
REMARK    1  A    between atoms: N_5  and  C_14
REMARK    2  A    between atoms: C_6  and  C_28
REMARK    3  A    between atoms: C_15  and  C_20
REMARK    4  A    between atoms: C_20  and  O_21
REMARK    5  A    between atoms: O_21  and  C_23
REMARK                            x       y       z     vdW  Elec       q    Type
REMARK                         _______ _______ _______ _____ _____    ______ ____
ROOT
ATOM      1  O   UNL     1      34.002 -20.905 -20.059  0.00  0.00    -0.252 OA
ATOM      2  N   UNL     1      34.757 -23.304 -16.678  0.00  0.00    -0.239 N 
ATOM      3  N   UNL     1      34.576 -22.516 -17.751  0.00  0.00    -0.166 NA
ATOM      4  N   UNL     1      36.015 -20.967 -18.862  0.00  0.00    -0.252 N 
ATOM      5  N   UNL     1      35.818 -19.577 -20.693  0.00  0.00    -0.268 N 
ATOM      6  C   UNL     1      35.976 -23.157 -16.179  0.00  0.00    +0.045 C 
ATOM      7  C   UNL     1      36.674 -22.276 -16.878  0.00  0.00    +0.048 C 
ATOM      8  C   UNL     1      35.750 -21.889 -17.869  0.00  0.00    +0.154 C 
ATOM      9  C   UNL     1      35.154 -20.521 -19.893  0.00  0.00    +0.309 C 
ATOM     10  H   UNL     1      34.073 -23.910 -16.311  0.00  0.00    +0.174 HD
ATOM     11  H   UNL     1      36.917 -20.570 -18.851  0.00  0.00    +0.158 HD
ATOM     12  H   UNL     1      36.746 -19.369 -20.436  0.00  0.00    +0.156 HD
ENDROOT
BRANCH   5  14
ATOM     13 CL   UNL     1      33.723 -16.737 -25.435  0.00  0.00    -0.082 Cl
ATOM     14  C   UNL     1      35.319 -18.889 -21.824  0.00  0.00    +0.051 C 
ATOM     15  C   UNL     1      34.761 -16.827 -22.917  0.00  0.00    +0.033 C 
ATOM     16  C   UNL     1      35.255 -17.505 -21.802  0.00  0.00    +0.015 C 
ATOM     17  C   UNL     1      34.902 -19.613 -22.928  0.00  0.00    +0.016 C 
ATOM     18  C   UNL     1      34.338 -17.542 -24.038  0.00  0.00    +0.057 C 
ATOM     19  C   UNL     1      34.409 -18.935 -24.042  0.00  0.00    +0.012 C 
BRANCH  15  20
ATOM     20  C   UNL     1      34.703 -15.334 -22.871  0.00  0.00    +0.233 C 
BRANCH  20  21
ATOM     21  O   UNL     1      34.111 -14.926 -21.645  0.00  0.00    -0.469 OA
BRANCH  21  23
ATOM     22  N   UNL     1      32.281 -12.070 -22.979  0.00  0.00    -0.239 NA
ATOM     23  C   UNL     1      33.252 -13.860 -21.699  0.00  0.00    +0.158 C 
ATOM     24  C   UNL     1      32.515 -13.496 -20.586  0.00  0.00    +0.040 C 
ATOM     25  C   UNL     1      33.109 -13.132 -22.860  0.00  0.00    +0.136 C 
ATOM     26  C   UNL     1      31.652 -12.409 -20.669  0.00  0.00    +0.024 C 
ATOM     27  C   UNL     1      31.572 -11.735 -21.878  0.00  0.00    +0.099 C 
ENDBRANCH  21  23
ENDBRANCH  20  21
ENDBRANCH  15  20
ENDBRANCH   5  14
BRANCH   6  28
ATOM     28  C   UNL     1      36.391 -23.976 -14.933  0.00  0.00    +0.033 C 
ATOM     29  C   UNL     1      35.588 -25.293 -14.880  0.00  0.00    +0.006 C 
ATOM     30  C   UNL     1      36.119 -23.157 -13.652  0.00  0.00    +0.006 C 
ATOM     31  C   UNL     1      37.888 -24.355 -14.922  0.00  0.00    +0.006 C 
ENDBRANCH   6  28
TORSDOF 5
ENDMDL
MODEL 2
REMARK VINA RESULT:     -10.8      4.617     10.362
REMARK  Name = 5326866
REMARK  5 active torsions:
REMARK  status: ('A' for Active; 'I' for Inactive)
REMARK    1  A    between atoms: N_5  and  C_14
REMARK    2  A    between atoms: C_6  and  C_28
REMARK    3  A    between atoms: C_15  and  C_20
REMARK    4  A    between atoms: C_20  and  O_21
REMARK    5  A    between atoms: O_21  and  C_23
REMARK                            x       y       z     vdW  Elec       q    Type
REMARK                         _______ _______ _______ _____ _____    ______ ____
ROOT
ATOM      1  O   UNL     1      34.720 -22.679 -17.503  0.00  0.00    -0.252 OA
ATOM      2  N   UNL     1      33.993 -20.214 -20.843  0.00  0.00    -0.239 N 
ATOM      3  N   UNL     1      34.286 -20.977 -19.776  0.00  0.00    -0.166 NA
ATOM      4  N   UNL     1      36.285 -21.246 -18.498  0.00  0.00    -0.252 N 
ATOM      5  N   UNL     1      36.896 -22.509 -16.666  0.00  0.00    -0.268 N 
ATOM      6  C   UNL     1      35.043 -19.496 -21.216  0.00  0.00    +0.045 C 
ATOM      7  C   UNL     1      36.084 -19.732 -20.434  0.00  0.00    +0.048 C 
ATOM      8  C   UNL     1      35.564 -20.680 -19.531  0.00  0.00    +0.154 C 
ATOM      9  C   UNL     1      35.847 -22.199 -17.547  0.00  0.00    +0.309 C 
ATOM     10  H   UNL     1      33.115 -20.191 -21.288  0.00  0.00    +0.174 HD
ATOM     11  H   UNL     1      37.220 -20.949 -18.411  0.00  0.00    +0.158 HD
ATOM     12  H   UNL     1      37.747 -22.041 -16.827  0.00  0.00    +0.156 HD
ENDROOT
BRANCH   5  14
ATOM     13 CL   UNL     1      36.870 -26.282 -12.115  0.00  0.00    -0.082 Cl
ATOM     14  C   UNL     1      36.880 -23.410 -15.576  0.00  0.00    +0.051 C 
ATOM     15  C   UNL     1      35.699 -24.462 -13.771  0.00  0.00    +0.033 C 
ATOM     16  C   UNL     1      35.713 -23.574 -14.848  0.00  0.00    +0.015 C 
ATOM     17  C   UNL     1      38.033 -24.109 -15.257  0.00  0.00    +0.016 C 
ATOM     18  C   UNL     1      36.851 -25.174 -13.439  0.00  0.00    +0.057 C 
ATOM     19  C   UNL     1      38.018 -24.996 -14.182  0.00  0.00    +0.012 C 
BRANCH  15  20
ATOM     20  C   UNL     1      34.427 -24.623 -13.001  0.00  0.00    +0.233 C 
BRANCH  20  21
ATOM     21  O   UNL     1      33.542 -23.562 -13.332  0.00  0.00    -0.469 OA
BRANCH  21  23
ATOM     22  N   UNL     1      30.536 -25.383 -14.298  0.00  0.00    -0.239 NA
ATOM     23  C   UNL     1      32.407 -23.897 -14.023  0.00  0.00    +0.158 C 
ATOM     24  C   UNL     1      31.993 -23.136 -15.102  0.00  0.00    +0.040 C 
ATOM     25  C   UNL     1      31.663 -24.997 -13.658  0.00  0.00    +0.136 C 
ATOM     26  C   UNL     1      30.839 -23.501 -15.786  0.00  0.00    +0.024 C 
ATOM     27  C   UNL     1      30.152 -24.623 -15.348  0.00  0.00    +0.099 C 
ENDBRANCH  21  23
ENDBRANCH  20  21
ENDBRANCH  15  20
ENDBRANCH   5  14
BRANCH   6  28
ATOM     28  C   UNL     1      34.920 -18.546 -22.432  0.00  0.00    +0.033 C 
ATOM     29  C   UNL     1      36.178 -18.665 -23.319  0.00  0.00    +0.006 C 
ATOM     30  C   UNL     1      34.771 -17.088 -21.946  0.00  0.00    +0.006 C 
ATOM     31  C   UNL     1      33.700 -18.854 -23.327  0.00  0.00    +0.006 C 
ENDBRANCH   6  28
TORSDOF 5
ENDMDL
MODEL 3
REMARK VINA RESULT:     -10.8      1.991      2.994
REMARK  Name = 5326866
REMARK  5 active torsions:
REMARK  status: ('A' for Active; 'I' for Inactive)
REMARK    1  A    between atoms: N_5  and  C_14
REMARK    2  A    between atoms: C_6  and  C_28
REMARK    3  A    between atoms: C_15  and  C_20
REMARK    4  A    between atoms: C_20  and  O_21
REMARK    5  A    between atoms: O_21  and  C_23
REMARK                            x       y       z     vdW  Elec       q    Type
REMARK                         _______ _______ _______ _____ _____    ______ ____
ROOT
ATOM      1  O   UNL     1      34.318 -22.696 -18.181  0.00  0.00    -0.252 OA
ATOM      2  N   UNL     1      35.839 -24.748 -14.829  0.00  0.00    -0.239 N 
ATOM      3  N   UNL     1      35.407 -24.056 -15.898  0.00  0.00    -0.166 NA
ATOM      4  N   UNL     1      36.356 -22.237 -17.119  0.00  0.00    -0.252 N 
ATOM      5  N   UNL     1      35.715 -20.987 -18.950  0.00  0.00    -0.268 N 
ATOM      6  C   UNL     1      37.014 -24.296 -14.414  0.00  0.00    +0.045 C 
ATOM      7  C   UNL     1      37.433 -23.292 -15.167  0.00  0.00    +0.048 C 
ATOM      8  C   UNL     1      36.384 -23.168 -16.100  0.00  0.00    +0.154 C 
ATOM      9  C   UNL     1      35.351 -22.041 -18.096  0.00  0.00    +0.309 C 
ATOM     10  H   UNL     1      35.347 -25.491 -14.411  0.00  0.00    +0.174 HD
ATOM     11  H   UNL     1      37.133 -21.634 -17.173  0.00  0.00    +0.158 HD
ATOM     12  H   UNL     1      36.578 -20.554 -18.757  0.00  0.00    +0.156 HD
ENDROOT
BRANCH   5  14
ATOM     13 CL   UNL     1      32.672 -18.845 -23.543  0.00  0.00    -0.082 Cl
ATOM     14  C   UNL     1      34.996 -20.471 -20.053  0.00  0.00    +0.051 C 
ATOM     15  C   UNL     1      34.950 -19.207 -22.092  0.00  0.00    +0.033 C 
ATOM     16  C   UNL     1      35.662 -19.717 -21.005  0.00  0.00    +0.015 C 
ATOM     17  C   UNL     1      33.638 -20.728 -20.156  0.00  0.00    +0.016 C 
ATOM     18  C   UNL     1      33.584 -19.458 -22.211  0.00  0.00    +0.057 C 
ATOM     19  C   UNL     1      32.928 -20.219 -21.243  0.00  0.00    +0.012 C 
BRANCH  15  20
ATOM     20  C   UNL     1      35.691 -18.398 -23.107  0.00  0.00    +0.233 C 
BRANCH  20  21
ATOM     21  O   UNL     1      35.755 -17.046 -22.673  0.00  0.00    -0.469 OA
BRANCH  21  23
ATOM     22  N   UNL     1      33.667 -15.534 -25.250  0.00  0.00    -0.239 NA
ATOM     23  C   UNL     1      34.912 -16.159 -23.289  0.00  0.00    +0.158 C 
ATOM     24  C   UNL     1      34.465 -15.035 -22.618  0.00  0.00    +0.040 C 
ATOM     25  C   UNL     1      34.497 -16.370 -24.585  0.00  0.00    +0.136 C 
ATOM     26  C   UNL     1      33.611 -14.151 -23.268  0.00  0.00    +0.024 C 
ATOM     27  C   UNL     1      33.245 -14.443 -24.572  0.00  0.00    +0.099 C 
ENDBRANCH  21  23
ENDBRANCH  20  21
ENDBRANCH  15  20
ENDBRANCH   5  14
BRANCH   6  28
ATOM     28  C   UNL     1      37.691 -24.956 -13.189  0.00  0.00    +0.033 C 
ATOM     29  C   UNL     1      39.088 -25.483 -13.581  0.00  0.00    +0.006 C 
ATOM     30  C   UNL     1      36.825 -26.129 -12.679  0.00  0.00    +0.006 C 
ATOM     31  C   UNL     1      37.887 -23.987 -12.002  0.00  0.00    +0.006 C 
ENDBRANCH   6  28
TORSDOF 5
ENDMDL
MODEL 4
REMARK VINA RESULT:     -10.7      3.388     11.407
REMARK  Name = 5326866
REMARK  5 active torsions:
REMARK  status: ('A' for Active; 'I' for Inactive)
REMARK    1  A    between atoms: N_5  and  C_14
REMARK    2  A    between atoms: C_6  and  C_28
REMARK    3  A    between atoms: C_15  and  C_20
REMARK    4  A    between atoms: C_20  and  O_21
REMARK    5  A    between atoms: O_21  and  C_23
REMARK                            x       y       z     vdW  Elec       q    Type
REMARK                         _______ _______ _______ _____ _____    ______ ____
ROOT
ATOM      1  O   UNL     1      32.130 -12.722 -22.446  0.00  0.00    -0.252 OA
ATOM      2  N   UNL     1      31.211  -8.828 -21.122  0.00  0.00    -0.239 N 
ATOM      3  N   UNL     1      31.534 -10.044 -21.596  0.00  0.00    -0.166 NA
ATOM      4  N   UNL     1      32.709 -10.740 -23.554  0.00  0.00    -0.252 N 
ATOM      5  N   UNL     1      33.319 -12.773 -24.458  0.00  0.00    -0.268 N 
ATOM      6  C   UNL     1      31.649  -7.872 -21.928  0.00  0.00    +0.045 C 
ATOM      7  C   UNL     1      32.281  -8.381 -22.973  0.00  0.00    +0.048 C 
ATOM      8  C   UNL     1      32.186  -9.765 -22.727  0.00  0.00    +0.154 C 
ATOM      9  C   UNL     1      32.663 -12.144 -23.387  0.00  0.00    +0.309 C 
ATOM     10  H   UNL     1      30.715  -8.669 -20.286  0.00  0.00    +0.174 HD
ATOM     11  H   UNL     1      33.172 -10.416 -24.361  0.00  0.00    +0.158 HD
ATOM     12  H   UNL     1      33.700 -12.176 -25.142  0.00  0.00    +0.156 HD
ENDROOT
BRANCH   5  14
ATOM     13 CL   UNL     1      34.056 -18.561 -25.407  0.00  0.00    -0.082 Cl
ATOM     14  C   UNL     1      33.499 -14.159 -24.676  0.00  0.00    +0.051 C 
ATOM     15  C   UNL     1      34.344 -16.282 -23.942  0.00  0.00    +0.033 C 
ATOM     16  C   UNL     1      34.166 -14.914 -23.726  0.00  0.00    +0.015 C 
ATOM     17  C   UNL     1      33.007 -14.732 -25.838  0.00  0.00    +0.016 C 
ATOM     18  C   UNL     1      33.854 -16.873 -25.107  0.00  0.00    +0.057 C 
ATOM     19  C   UNL     1      33.186 -16.098 -26.054  0.00  0.00    +0.012 C 
BRANCH  15  20
ATOM     20  C   UNL     1      35.066 -17.076 -22.902  0.00  0.00    +0.233 C 
BRANCH  20  21
ATOM     21  O   UNL     1      34.135 -17.897 -22.209  0.00  0.00    -0.469 OA
BRANCH  21  23
ATOM     22  N   UNL     1      36.563 -19.786 -20.254  0.00  0.00    -0.239 NA
ATOM     23  C   UNL     1      34.655 -18.871 -21.398  0.00  0.00    +0.158 C 
ATOM     24  C   UNL     1      33.849 -19.888 -20.918  0.00  0.00    +0.040 C 
ATOM     25  C   UNL     1      35.987 -18.855 -21.048  0.00  0.00    +0.136 C 
ATOM     26  C   UNL     1      34.404 -20.864 -20.099  0.00  0.00    +0.024 C 
ATOM     27  C   UNL     1      35.754 -20.769 -19.799  0.00  0.00    +0.099 C 
ENDBRANCH  21  23
ENDBRANCH  20  21
ENDBRANCH  15  20
ENDBRANCH   5  14
BRANCH   6  28
ATOM     28  C   UNL     1      31.380  -6.391 -21.567  0.00  0.00    +0.033 C 
ATOM     29  C   UNL     1      32.506  -5.500 -22.132  0.00  0.00    +0.006 C 
ATOM     30  C   UNL     1      31.319  -6.228 -20.032  0.00  0.00    +0.006 C 
ATOM     31  C   UNL     1      30.047  -5.855 -22.134  0.00  0.00    +0.006 C 
ENDBRANCH   6  28
TORSDOF 5
ENDMDL
MODEL 5
REMARK VINA RESULT:     -10.6      4.040     10.269
REMARK  Name = 5326866
REMARK  5 active torsions:
REMARK  status: ('A' for Active; 'I' for Inactive)
REMARK    1  A    between atoms: N_5  and  C_14
REMARK    2  A    between atoms: C_6  and  C_28
REMARK    3  A    between atoms: C_15  and  C_20
REMARK    4  A    between atoms: C_20  and  O_21
REMARK    5  A    between atoms: O_21  and  C_23
REMARK                            x       y       z     vdW  Elec       q    Type
REMARK                         _______ _______ _______ _____ _____    ______ ____
ROOT
ATOM      1  O   UNL     1      36.272 -19.910 -19.821  0.00  0.00    -0.252 OA
ATOM      2  N   UNL     1      35.341 -17.743 -23.313  0.00  0.00    -0.239 N 
ATOM      3  N   UNL     1      35.581 -18.465 -22.205  0.00  0.00    -0.166 NA
ATOM      4  N   UNL     1      34.298 -20.125 -21.065  0.00  0.00    -0.252 N 
ATOM      5  N   UNL     1      34.606 -21.418 -19.179  0.00  0.00    -0.268 N 
ATOM      6  C   UNL     1      34.159 -18.047 -23.832  0.00  0.00    +0.045 C 
ATOM      7  C   UNL     1      33.548 -18.975 -23.114  0.00  0.00    +0.048 C 
ATOM      8  C   UNL     1      34.482 -19.215 -22.087  0.00  0.00    +0.154 C 
ATOM      9  C   UNL     1      35.177 -20.431 -19.999  0.00  0.00    +0.309 C 
ATOM     10  H   UNL     1      35.961 -17.077 -23.690  0.00  0.00    +0.174 HD
ATOM     11  H   UNL     1      33.449 -20.624 -21.081  0.00  0.00    +0.158 HD
ATOM     12  H   UNL     1      33.717 -21.743 -19.450  0.00  0.00    +0.156 HD
ENDROOT
BRANCH   5  14
ATOM     13 CL   UNL     1      36.920 -23.846 -14.311  0.00  0.00    -0.082 Cl
ATOM     14  C   UNL     1      35.151 -22.004 -18.013  0.00  0.00    +0.051 C 
ATOM     15  C   UNL     1      34.879 -23.357 -16.050  0.00  0.00    +0.033 C 
ATOM     16  C   UNL     1      34.341 -22.780 -17.201  0.00  0.00    +0.015 C 
ATOM     17  C   UNL     1      36.484 -21.787 -17.705  0.00  0.00    +0.016 C 
ATOM     18  C   UNL     1      36.220 -23.148 -15.726  0.00  0.00    +0.057 C 
ATOM     19  C   UNL     1      37.022 -22.363 -16.555  0.00  0.00    +0.012 C 
BRANCH  15  20
ATOM     20  C   UNL     1      33.985 -24.191 -15.190  0.00  0.00    +0.233 C 
BRANCH  20  21
ATOM     21  O   UNL     1      32.961 -23.372 -14.644  0.00  0.00    -0.469 OA
BRANCH  21  23
ATOM     22  N   UNL     1      29.910 -25.354 -14.421  0.00  0.00    -0.239 NA
ATOM     23  C   UNL     1      31.668 -23.772 -14.860  0.00  0.00    +0.158 C 
ATOM     24  C   UNL     1      30.840 -23.047 -15.697  0.00  0.00    +0.040 C 
ATOM     25  C   UNL     1      31.173 -24.903 -14.249  0.00  0.00    +0.136 C 
ATOM     26  C   UNL     1      29.534 -23.478 -15.900  0.00  0.00    +0.024 C 
ATOM     27  C   UNL     1      29.121 -24.627 -15.244  0.00  0.00    +0.099 C 
ENDBRANCH  21  23
ENDBRANCH  20  21
ENDBRANCH  15  20
ENDBRANCH   5  14
BRANCH   6  28
ATOM     28  C   UNL     1      33.686 -17.325 -25.116  0.00  0.00    +0.033 C 
ATOM     29  C   UNL     1      32.590 -18.160 -25.814  0.00  0.00    +0.006 C 
ATOM     30  C   UNL     1      34.877 -17.134 -26.081  0.00  0.00    +0.006 C 
ATOM     31  C   UNL     1      33.090 -15.926 -24.847  0.00  0.00    +0.006 C 
ENDBRANCH   6  28
TORSDOF 5
ENDMDL
MODEL 6
REMARK VINA RESULT:     -10.5      3.265     11.405
REMARK  Name = 5326866
REMARK  5 active torsions:
REMARK  status: ('A' for Active; 'I' for Inactive)
REMARK    1  A    between atoms: N_5  and  C_14
REMARK    2  A    between atoms: C_6  and  C_28
REMARK    3  A    between atoms: C_15  and  C_20
REMARK    4  A    between atoms: C_20  and  O_21
REMARK    5  A    between atoms: O_21  and  C_23
REMARK                            x       y       z     vdW  Elec       q    Type
REMARK                         _______ _______ _______ _____ _____    ______ ____
ROOT
ATOM      1  O   UNL     1      33.178 -13.484 -25.777  0.00  0.00    -0.252 OA
ATOM      2  N   UNL     1      32.469  -9.347 -25.401  0.00  0.00    -0.239 N 
ATOM      3  N   UNL     1      32.706 -10.669 -25.457  0.00  0.00    -0.166 NA
ATOM      4  N   UNL     1      33.269 -12.268 -23.776  0.00  0.00    -0.252 N 
ATOM      5  N   UNL     1      33.690 -14.537 -23.754  0.00  0.00    -0.268 N 
ATOM      6  C   UNL     1      32.584  -8.896 -24.160  0.00  0.00    +0.045 C 
ATOM      7  C   UNL     1      32.898  -9.872 -23.324  0.00  0.00    +0.048 C 
ATOM      8  C   UNL     1      32.968 -10.985 -24.186  0.00  0.00    +0.154 C 
ATOM      9  C   UNL     1      33.360 -13.439 -24.565  0.00  0.00    +0.309 C 
ATOM     10  H   UNL     1      32.242  -8.788 -26.179  0.00  0.00    +0.174 HD
ATOM     11  H   UNL     1      33.442 -12.383 -22.813  0.00  0.00    +0.158 HD
ATOM     12  H   UNL     1      33.805 -14.346 -22.795  0.00  0.00    +0.156 HD
ENDROOT
BRANCH   5  14
ATOM     13 CL   UNL     1      34.460 -20.155 -25.423  0.00  0.00    -0.082 Cl
ATOM     14  C   UNL     1      33.876 -15.884 -24.144  0.00  0.00    +0.051 C 
ATOM     15  C   UNL     1      34.478 -18.140 -23.589  0.00  0.00    +0.033 C 
ATOM     16  C   UNL     1      34.293 -16.811 -23.203  0.00  0.00    +0.015 C 
ATOM     17  C   UNL     1      33.640 -16.247 -25.460  0.00  0.00    +0.016 C 
ATOM     18  C   UNL     1      34.243 -18.521 -24.910  0.00  0.00    +0.057 C 
ATOM     19  C   UNL     1      33.824 -17.574 -25.845  0.00  0.00    +0.012 C 
BRANCH  15  20
ATOM     20  C   UNL     1      34.928 -19.122 -22.557  0.00  0.00    +0.233 C 
BRANCH  20  21
ATOM     21  O   UNL     1      34.101 -19.005 -21.406  0.00  0.00    -0.469 OA
BRANCH  21  23
ATOM     22  N   UNL     1      32.538 -21.706 -19.523  0.00  0.00    -0.239 NA
ATOM     23  C   UNL     1      33.976 -20.120 -20.620  0.00  0.00    +0.158 C 
ATOM     24  C   UNL     1      35.099 -20.767 -20.137  0.00  0.00    +0.040 C 
ATOM     25  C   UNL     1      32.731 -20.613 -20.295  0.00  0.00    +0.136 C 
ATOM     26  C   UNL     1      34.942 -21.895 -19.340  0.00  0.00    +0.024 C 
ATOM     27  C   UNL     1      33.652 -22.321 -19.064  0.00  0.00    +0.099 C 
ENDBRANCH  21  23
ENDBRANCH  20  21
ENDBRANCH  15  20
ENDBRANCH   5  14
BRANCH   6  28
ATOM     28  C   UNL     1      32.352  -7.392 -23.875  0.00  0.00    +0.033 C 
ATOM     29  C   UNL     1      33.075  -6.539 -24.939  0.00  0.00    +0.006 C 
ATOM     30  C   UNL     1      32.897  -7.034 -22.474  0.00  0.00    +0.006 C 
ATOM     31  C   UNL     1      30.862  -6.987 -23.901  0.00  0.00    +0.006 C 
ENDBRANCH   6  28
TORSDOF 5
ENDMDL
MODEL 7
REMARK VINA RESULT:     -10.4      3.200     11.110
REMARK  Name = 5326866
REMARK  5 active torsions:
REMARK  status: ('A' for Active; 'I' for Inactive)
REMARK    1  A    between atoms: N_5  and  C_14
REMARK    2  A    between atoms: C_6  and  C_28
REMARK    3  A    between atoms: C_15  and  C_20
REMARK    4  A    between atoms: C_20  and  O_21
REMARK    5  A    between atoms: O_21  and  C_23
REMARK                            x       y       z     vdW  Elec       q    Type
REMARK                         _______ _______ _______ _____ _____    ______ ____
ROOT
ATOM      1  O   UNL     1      32.800 -13.784 -22.987  0.00  0.00    -0.252 OA
ATOM      2  N   UNL     1      32.078  -9.695 -22.264  0.00  0.00    -0.239 N 
ATOM      3  N   UNL     1      32.324 -10.984 -22.556  0.00  0.00    -0.166 NA
ATOM      4  N   UNL     1      33.035 -12.065 -24.563  0.00  0.00    -0.252 N 
ATOM      5  N   UNL     1      33.489 -14.244 -25.173  0.00  0.00    -0.268 N 
ATOM      6  C   UNL     1      32.282  -8.922 -23.321  0.00  0.00    +0.045 C 
ATOM      7  C   UNL     1      32.671  -9.634 -24.366  0.00  0.00    +0.048 C 
ATOM      8  C   UNL     1      32.685 -10.941 -23.841  0.00  0.00    +0.154 C 
ATOM      9  C   UNL     1      33.079 -13.409 -24.121  0.00  0.00    +0.309 C 
ATOM     10  H   UNL     1      31.785  -9.370 -21.383  0.00  0.00    +0.174 HD
ATOM     11  H   UNL     1      33.286 -11.913 -25.503  0.00  0.00    +0.158 HD
ATOM     12  H   UNL     1      33.679 -13.797 -26.030  0.00  0.00    +0.156 HD
ENDROOT
BRANCH   5  14
ATOM     13 CL   UNL     1      34.198 -20.113 -25.133  0.00  0.00    -0.082 Cl
ATOM     14  C   UNL     1      33.662 -15.648 -25.154  0.00  0.00    +0.051 C 
ATOM     15  C   UNL     1      34.468 -17.624 -24.057  0.00  0.00    +0.033 C 
ATOM     16  C   UNL     1      34.296 -16.239 -24.074  0.00  0.00    +0.015 C 
ATOM     17  C   UNL     1      33.197 -16.402 -26.219  0.00  0.00    +0.016 C 
ATOM     18  C   UNL     1      34.004 -18.397 -25.121  0.00  0.00    +0.057 C 
ATOM     19  C   UNL     1      33.368 -17.786 -26.202  0.00  0.00    +0.012 C 
BRANCH  15  20
ATOM     20  C   UNL     1      35.153 -18.239 -22.880  0.00  0.00    +0.233 C 
BRANCH  20  21
ATOM     21  O   UNL     1      34.245 -18.304 -21.789  0.00  0.00    -0.469 OA
BRANCH  21  23
ATOM     22  N   UNL     1      35.567 -21.146 -19.928  0.00  0.00    -0.239 NA
ATOM     23  C   UNL     1      34.272 -19.445 -21.030  0.00  0.00    +0.158 C 
ATOM     24  C   UNL     1      33.094 -20.037 -20.612  0.00  0.00    +0.040 C 
ATOM     25  C   UNL     1      35.471 -20.021 -20.673  0.00  0.00    +0.136 C 
ATOM     26  C   UNL     1      33.151 -21.195 -19.845  0.00  0.00    +0.024 C 
ATOM     27  C   UNL     1      34.402 -21.705 -19.533  0.00  0.00    +0.099 C 
ENDBRANCH  21  23
ENDBRANCH  20  21
ENDBRANCH  15  20
ENDBRANCH   5  14
BRANCH   6  28
ATOM     28  C   UNL     1      32.053  -7.396 -23.201  0.00  0.00    +0.033 C 
ATOM     29  C   UNL     1      32.652  -6.878 -21.876  0.00  0.00    +0.006 C 
ATOM     30  C   UNL     1      30.539  -7.088 -23.233  0.00  0.00    +0.006 C 
ATOM     31  C   UNL     1      32.706  -6.587 -24.343  0.00  0.00    +0.006 C 
ENDBRANCH   6  28
TORSDOF 5
ENDMDL
MODEL 8
REMARK VINA RESULT:     -10.4      5.906      8.833
REMARK  Name = 5326866
REMARK  5 active torsions:
REMARK  status: ('A' for Active; 'I' for Inactive)
REMARK    1  A    between atoms: N_5  and  C_14
REMARK    2  A    between atoms: C_6  and  C_28
REMARK    3  A    between atoms: C_15  and  C_20
REMARK    4  A    between atoms: C_20  and  O_21
REMARK    5  A    between atoms: O_21  and  C_23
REMARK                            x       y       z     vdW  Elec       q    Type
REMARK                         _______ _______ _______ _____ _____    ______ ____
ROOT
ATOM      1  O   UNL     1      33.302 -12.975 -25.228  0.00  0.00    -0.252 OA
ATOM      2  N   UNL     1      33.778 -17.052 -24.271  0.00  0.00    -0.239 N 
ATOM      3  N   UNL     1      33.659 -15.736 -24.523  0.00  0.00    -0.166 NA
ATOM      4  N   UNL     1      34.409 -13.805 -23.337  0.00  0.00    -0.252 N 
ATOM      5  N   UNL     1      34.268 -11.525 -23.670  0.00  0.00    -0.268 N 
ATOM      6  C   UNL     1      34.443 -17.262 -23.145  0.00  0.00    +0.045 C 
ATOM      7  C   UNL     1      34.804 -16.119 -22.583  0.00  0.00    +0.048 C 
ATOM      8  C   UNL     1      34.286 -15.172 -23.488  0.00  0.00    +0.154 C 
ATOM      9  C   UNL     1      33.926 -12.784 -24.190  0.00  0.00    +0.309 C 
ATOM     10  H   UNL     1      33.419 -17.764 -24.849  0.00  0.00    +0.174 HD
ATOM     11  H   UNL     1      34.895 -13.502 -22.535  0.00  0.00    +0.158 HD
ATOM     12  H   UNL     1      34.773 -11.531 -22.824  0.00  0.00    +0.156 HD
ENDROOT
BRANCH   5  14
ATOM     13 CL   UNL     1      33.088  -6.203 -25.954  0.00  0.00    -0.082 Cl
ATOM     14  C   UNL     1      33.978 -10.251 -24.211  0.00  0.00    +0.051 C 
ATOM     15  C   UNL     1      32.518  -8.354 -24.381  0.00  0.00    +0.033 C 
ATOM     16  C   UNL     1      32.805  -9.611 -23.846  0.00  0.00    +0.015 C 
ATOM     17  C   UNL     1      34.872  -9.671 -25.096  0.00  0.00    +0.016 C 
ATOM     18  C   UNL     1      33.409  -7.756 -25.273  0.00  0.00    +0.057 C 
ATOM     19  C   UNL     1      34.585  -8.415 -25.630  0.00  0.00    +0.012 C 
BRANCH  15  20
ATOM     20  C   UNL     1      31.247  -7.682 -23.972  0.00  0.00    +0.233 C 
BRANCH  20  21
ATOM     21  O   UNL     1      30.823  -8.203 -22.720  0.00  0.00    -0.469 OA
BRANCH  21  23
ATOM     22  N   UNL     1      32.260  -7.438 -19.459  0.00  0.00    -0.239 NA
ATOM     23  C   UNL     1      31.173  -7.490 -21.604  0.00  0.00    +0.158 C 
ATOM     24  C   UNL     1      30.814  -6.159 -21.481  0.00  0.00    +0.040 C 
ATOM     25  C   UNL     1      31.885  -8.085 -20.586  0.00  0.00    +0.136 C 
ATOM     26  C   UNL     1      31.181  -5.460 -20.337  0.00  0.00    +0.024 C 
ATOM     27  C   UNL     1      31.897  -6.139 -19.364  0.00  0.00    +0.099 C 
ENDBRANCH  21  23
ENDBRANCH  20  21
ENDBRANCH  15  20
ENDBRANCH   5  14
BRANCH   6  28
ATOM     28  C   UNL     1      34.691 -18.714 -22.669  0.00  0.00    +0.033 C 
ATOM     29  C   UNL     1      35.983 -18.777 -21.827  0.00  0.00    +0.006 C 
ATOM     30  C   UNL     1      34.827 -19.650 -23.889  0.00  0.00    +0.006 C 
ATOM     31  C   UNL     1      33.549 -19.273 -21.792  0.00  0.00    +0.006 C 
ENDBRANCH   6  28
TORSDOF 5
ENDMDL
MODEL 9
REMARK VINA RESULT:     -10.4      4.763     11.018
REMARK  Name = 5326866
REMARK  5 active torsions:
REMARK  status: ('A' for Active; 'I' for Inactive)
REMARK    1  A    between atoms: N_5  and  C_14
REMARK    2  A    between atoms: C_6  and  C_28
REMARK    3  A    between atoms: C_15  and  C_20
REMARK    4  A    between atoms: C_20  and  O_21
REMARK    5  A    between atoms: O_21  and  C_23
REMARK                            x       y       z     vdW  Elec       q    Type
REMARK                         _______ _______ _______ _____ _____    ______ ____
ROOT
ATOM      1  O   UNL     1      33.687 -22.393 -17.845  0.00  0.00    -0.252 OA
ATOM      2  N   UNL     1      35.349 -20.312 -21.111  0.00  0.00    -0.239 N 
ATOM      3  N   UNL     1      34.760 -20.956 -20.088  0.00  0.00    -0.166 NA
ATOM      4  N   UNL     1      32.477 -21.139 -19.412  0.00  0.00    -0.252 N 
ATOM      5  N   UNL     1      31.361 -22.207 -17.698  0.00  0.00    -0.268 N 
ATOM      6  C   UNL     1      34.452 -19.677 -21.852  0.00  0.00    +0.045 C 
ATOM      7  C   UNL     1      33.230 -19.854 -21.378  0.00  0.00    +0.048 C 
ATOM      8  C   UNL     1      33.466 -20.672 -20.255  0.00  0.00    +0.154 C 
ATOM      9  C   UNL     1      32.620 -21.962 -18.269  0.00  0.00    +0.309 C 
ATOM     10  H   UNL     1      36.318 -20.313 -21.286  0.00  0.00    +0.174 HD
ATOM     11  H   UNL     1      31.557 -20.867 -19.635  0.00  0.00    +0.158 HD
ATOM     12  H   UNL     1      30.592 -21.791 -18.152  0.00  0.00    +0.156 HD
ENDROOT
BRANCH   5  14
ATOM     13 CL   UNL     1      30.067 -25.433 -12.917  0.00  0.00    -0.082 Cl
ATOM     14  C   UNL     1      31.060 -22.977 -16.550  0.00  0.00    +0.051 C 
ATOM     15  C   UNL     1      31.741 -23.934 -14.457  0.00  0.00    +0.033 C 
ATOM     16  C   UNL     1      32.038 -23.173 -15.589  0.00  0.00    +0.015 C 
ATOM     17  C   UNL     1      29.794 -23.521 -16.412  0.00  0.00    +0.016 C 
ATOM     18  C   UNL     1      30.471 -24.488 -14.303  0.00  0.00    +0.057 C 
ATOM     19  C   UNL     1      29.497 -24.281 -15.281  0.00  0.00    +0.012 C 
BRANCH  15  20
ATOM     20  C   UNL     1      32.813 -24.131 -13.434  0.00  0.00    +0.233 C 
BRANCH  20  21
ATOM     21  O   UNL     1      34.083 -23.932 -14.040  0.00  0.00    -0.469 OA
BRANCH  21  23
ATOM     22  N   UNL     1      36.303 -25.470 -11.593  0.00  0.00    -0.239 NA
ATOM     23  C   UNL     1      35.131 -24.649 -13.526  0.00  0.00    +0.158 C 
ATOM     24  C   UNL     1      36.048 -25.251 -14.368  0.00  0.00    +0.040 C 
ATOM     25  C   UNL     1      35.291 -24.779 -12.164  0.00  0.00    +0.136 C 
ATOM     26  C   UNL     1      37.104 -25.971 -13.819  0.00  0.00    +0.024 C 
ATOM     27  C   UNL     1      37.185 -26.050 -12.437  0.00  0.00    +0.099 C 
ENDBRANCH  21  23
ENDBRANCH  20  21
ENDBRANCH  15  20
ENDBRANCH   5  14
BRANCH   6  28
ATOM     28  C   UNL     1      34.922 -18.868 -23.085  0.00  0.00    +0.033 C 
ATOM     29  C   UNL     1      34.724 -19.704 -24.367  0.00  0.00    +0.006 C 
ATOM     30  C   UNL     1      36.416 -18.504 -22.935  0.00  0.00    +0.006 C 
ATOM     31  C   UNL     1      34.149 -17.545 -23.279  0.00  0.00    +0.006 C 
ENDBRANCH   6  28
TORSDOF 5
ENDMDL
