MODEL 1
REMARK VINA RESULT:     -13.0      0.000      0.000
REMARK  Name = 11167602
REMARK  6 active torsions:
REMARK  status: ('A' for Active; 'I' for Inactive)
REMARK    1  A    between atoms: C_2  and  N_10
REMARK    2  A    between atoms: C_3  and  O_25
REMARK    3  A    between atoms: N_9  and  C_15
REMARK    4  A    between atoms: C_16  and  C_24
REMARK    5  A    between atoms: O_25  and  C_27
REMARK    6  A    between atoms: C_29  and  C_34
REMARK                            x       y       z     vdW  Elec       q    Type
REMARK                         _______ _______ _______ _____ _____    ______ ____
ROOT
ATOM      1  F   UNL     1      32.922 -20.633 -20.040  0.00  0.00    -0.203 F 
ATOM      2  C   UNL     1      35.289 -20.672 -19.855  0.00  0.00    +0.079 C 
ATOM      3  C   UNL     1      35.452 -18.712 -21.805  0.00  0.00    +0.148 C 
ATOM      4  C   UNL     1      34.124 -20.179 -20.420  0.00  0.00    +0.157 C 
ATOM      5  C   UNL     1      36.534 -20.205 -20.244  0.00  0.00    +0.020 C 
ATOM      6  C   UNL     1      34.206 -19.192 -21.402  0.00  0.00    +0.068 C 
ATOM      7  C   UNL     1      36.616 -19.219 -21.227  0.00  0.00    +0.039 C 
ENDROOT
BRANCH   2  10
ATOM      8  O   UNL     1      36.750 -20.933 -17.263  0.00  0.00    -0.252 OA
ATOM      9  N   UNL     1      35.543 -22.914 -16.939  0.00  0.00    -0.268 N 
ATOM     10  N   UNL     1      35.209 -21.673 -18.857  0.00  0.00    -0.266 N 
ATOM     11  C   UNL     1      35.921 -21.750 -17.651  0.00  0.00    +0.308 C 
ATOM     12  H   UNL     1      34.864 -23.478 -17.374  0.00  0.00    +0.156 HD
ATOM     13  H   UNL     1      34.574 -22.406 -19.032  0.00  0.00    +0.156 HD
BRANCH   9  15
ATOM     14 CL   UNL     1      37.470 -24.816 -11.684  0.00  0.00    -0.082 Cl
ATOM     15  C   UNL     1      36.006 -23.368 -15.703  0.00  0.00    +0.052 C 
ATOM     16  C   UNL     1      37.678 -24.507 -14.384  0.00  0.00    +0.083 C 
ATOM     17  C   UNL     1      37.217 -24.054 -15.621  0.00  0.00    +0.019 C 
ATOM     18  C   UNL     1      35.256 -23.134 -14.550  0.00  0.00    +0.016 C 
ATOM     19  C   UNL     1      36.930 -24.272 -13.232  0.00  0.00    +0.062 C 
ATOM     20  C   UNL     1      35.718 -23.586 -13.314  0.00  0.00    +0.013 C 
BRANCH  16  24
ATOM     21  F   UNL     1      39.637 -25.257 -15.534  0.00  0.00    -0.166 F 
ATOM     22  F   UNL     1      39.872 -24.705 -13.450  0.00  0.00    -0.166 F 
ATOM     23  F   UNL     1      38.835 -26.543 -13.976  0.00  0.00    -0.166 F 
ATOM     24  C   UNL     1      38.982 -25.236 -14.338  0.00  0.00    +0.419 C 
ENDBRANCH  16  24
ENDBRANCH   9  15
ENDBRANCH   2  10
BRANCH   3  25
ATOM     25  O   UNL     1      35.533 -17.749 -22.764  0.00  0.00    -0.453 OA
BRANCH  25  27
ATOM     26  N   UNL     1      33.360 -18.318 -26.260  0.00  0.00    -0.239 NA
ATOM     27  C   UNL     1      34.808 -17.938 -23.928  0.00  0.00    +0.149 C 
ATOM     28  C   UNL     1      34.338 -16.840 -24.615  0.00  0.00    +0.061 C 
ATOM     29  C   UNL     1      33.619 -17.082 -25.776  0.00  0.00    +0.137 C 
ATOM     30  C   UNL     1      34.575 -19.221 -24.375  0.00  0.00    +0.058 C 
ATOM     31  C   UNL     1      33.846 -19.357 -25.545  0.00  0.00    +0.102 C 
BRANCH  29  34
ATOM     32  O   UNL     1      32.739 -16.147 -27.737  0.00  0.00    -0.268 OA
ATOM     33  N   UNL     1      32.981 -14.738 -25.911  0.00  0.00    -0.298 N 
ATOM     34  C   UNL     1      33.091 -15.976 -26.555  0.00  0.00    +0.264 C 
ATOM     35  C   UNL     1      32.453 -13.551 -26.543  0.00  0.00    +0.111 C 
ATOM     36  H   UNL     1      33.279 -14.673 -24.975  0.00  0.00    +0.150 HD
ENDBRANCH  29  34
ENDBRANCH  25  27
ENDBRANCH   3  25
TORSDOF 6
ENDMDL
MODEL 2
REMARK VINA RESULT:     -12.8      1.377      1.743
REMARK  Name = 11167602
REMARK  6 active torsions:
REMARK  status: ('A' for Active; 'I' for Inactive)
REMARK    1  A    between atoms: C_2  and  N_10
REMARK    2  A    between atoms: C_3  and  O_25
REMARK    3  A    between atoms: N_9  and  C_15
REMARK    4  A    between atoms: C_16  and  C_24
REMARK    5  A    between atoms: O_25  and  C_27
REMARK    6  A    between atoms: C_29  and  C_34
REMARK                            x       y       z     vdW  Elec       q    Type
REMARK                         _______ _______ _______ _____ _____    ______ ____
ROOT
ATOM      1  F   UNL     1      33.718 -20.503 -19.817  0.00  0.00    -0.203 F 
ATOM      2  C   UNL     1      35.969 -19.898 -20.270  0.00  0.00    +0.079 C 
ATOM      3  C   UNL     1      35.213 -19.055 -22.798  0.00  0.00    +0.148 C 
ATOM      4  C   UNL     1      34.641 -20.003 -20.650  0.00  0.00    +0.157 C 
ATOM      5  C   UNL     1      36.927 -19.380 -21.127  0.00  0.00    +0.020 C 
ATOM      6  C   UNL     1      34.261 -19.579 -21.923  0.00  0.00    +0.068 C 
ATOM      7  C   UNL     1      36.546 -18.957 -22.400  0.00  0.00    +0.039 C 
ENDROOT
BRANCH   2  10
ATOM      8  O   UNL     1      35.336 -22.422 -18.802  0.00  0.00    -0.252 OA
ATOM      9  N   UNL     1      36.627 -21.563 -17.046  0.00  0.00    -0.268 N 
ATOM     10  N   UNL     1      36.359 -20.327 -18.979  0.00  0.00    -0.266 N 
ATOM     11  C   UNL     1      36.032 -21.528 -18.331  0.00  0.00    +0.308 C 
ATOM     12  H   UNL     1      37.161 -20.773 -16.802  0.00  0.00    +0.156 HD
ATOM     13  H   UNL     1      36.930 -19.704 -18.472  0.00  0.00    +0.156 HD
BRANCH   9  15
ATOM     14 CL   UNL     1      36.288 -25.806 -12.945  0.00  0.00    -0.082 Cl
ATOM     15  C   UNL     1      36.556 -22.567 -16.080  0.00  0.00    +0.052 C 
ATOM     16  C   UNL     1      37.598 -24.368 -14.854  0.00  0.00    +0.083 C 
ATOM     17  C   UNL     1      37.670 -23.364 -15.820  0.00  0.00    +0.019 C 
ATOM     18  C   UNL     1      35.370 -22.774 -15.376  0.00  0.00    +0.016 C 
ATOM     19  C   UNL     1      36.413 -24.574 -14.149  0.00  0.00    +0.062 C 
ATOM     20  C   UNL     1      35.299 -23.778 -14.410  0.00  0.00    +0.013 C 
BRANCH  16  24
ATOM     21  F   UNL     1      38.602 -26.538 -14.751  0.00  0.00    -0.166 F 
ATOM     22  F   UNL     1      39.856 -24.906 -15.436  0.00  0.00    -0.166 F 
ATOM     23  F   UNL     1      39.301 -25.041 -13.337  0.00  0.00    -0.166 F 
ATOM     24  C   UNL     1      38.816 -25.198 -14.602  0.00  0.00    +0.419 C 
ENDBRANCH  16  24
ENDBRANCH   9  15
ENDBRANCH   2  10
BRANCH   3  25
ATOM     25  O   UNL     1      34.841 -18.641 -24.040  0.00  0.00    -0.453 OA
BRANCH  25  27
ATOM     26  N   UNL     1      33.638 -14.687 -24.475  0.00  0.00    -0.239 NA
ATOM     27  C   UNL     1      34.441 -17.324 -24.186  0.00  0.00    +0.149 C 
ATOM     28  C   UNL     1      33.850 -16.925 -25.365  0.00  0.00    +0.061 C 
ATOM     29  C   UNL     1      33.466 -15.597 -25.461  0.00  0.00    +0.137 C 
ATOM     30  C   UNL     1      34.642 -16.440 -23.147  0.00  0.00    +0.058 C 
ATOM     31  C   UNL     1      34.224 -15.134 -23.342  0.00  0.00    +0.102 C 
BRANCH  29  34
ATOM     32  O   UNL     1      32.862 -15.775 -27.719  0.00  0.00    -0.268 OA
ATOM     33  N   UNL     1      32.192 -13.861 -26.594  0.00  0.00    -0.298 N 
ATOM     34  C   UNL     1      32.836 -15.101 -26.673  0.00  0.00    +0.264 C 
ATOM     35  C   UNL     1      31.502 -13.246 -27.705  0.00  0.00    +0.111 C 
ATOM     36  H   UNL     1      32.212 -13.380 -25.736  0.00  0.00    +0.150 HD
ENDBRANCH  29  34
ENDBRANCH  25  27
ENDBRANCH   3  25
TORSDOF 6
ENDMDL
MODEL 3
REMARK VINA RESULT:     -12.8      1.730      2.339
REMARK  Name = 11167602
REMARK  6 active torsions:
REMARK  status: ('A' for Active; 'I' for Inactive)
REMARK    1  A    between atoms: C_2  and  N_10
REMARK    2  A    between atoms: C_3  and  O_25
REMARK    3  A    between atoms: N_9  and  C_15
REMARK    4  A    between atoms: C_16  and  C_24
REMARK    5  A    between atoms: O_25  and  C_27
REMARK    6  A    between atoms: C_29  and  C_34
REMARK                            x       y       z     vdW  Elec       q    Type
REMARK                         _______ _______ _______ _____ _____    ______ ____
ROOT
ATOM      1  F   UNL     1      32.623 -20.976 -19.929  0.00  0.00    -0.203 F 
ATOM      2  C   UNL     1      34.984 -20.951 -19.681  0.00  0.00    +0.079 C 
ATOM      3  C   UNL     1      35.151 -19.033 -21.673  0.00  0.00    +0.148 C 
ATOM      4  C   UNL     1      33.823 -20.501 -20.288  0.00  0.00    +0.157 C 
ATOM      5  C   UNL     1      36.227 -20.460 -20.048  0.00  0.00    +0.020 C 
ATOM      6  C   UNL     1      33.907 -19.536 -21.291  0.00  0.00    +0.068 C 
ATOM      7  C   UNL     1      36.311 -19.496 -21.052  0.00  0.00    +0.039 C 
ENDROOT
BRANCH   2  10
ATOM      8  O   UNL     1      36.517 -21.212 -17.131  0.00  0.00    -0.252 OA
ATOM      9  N   UNL     1      35.255 -23.145 -16.730  0.00  0.00    -0.268 N 
ATOM     10  N   UNL     1      34.902 -21.929 -18.662  0.00  0.00    -0.266 N 
ATOM     11  C   UNL     1      35.649 -22.008 -17.477  0.00  0.00    +0.308 C 
ATOM     12  H   UNL     1      34.544 -23.694 -17.133  0.00  0.00    +0.156 HD
ATOM     13  H   UNL     1      34.238 -22.643 -18.803  0.00  0.00    +0.156 HD
BRANCH   9  15
ATOM     14 CL   UNL     1      37.279 -25.018 -11.502  0.00  0.00    -0.082 Cl
ATOM     15  C   UNL     1      35.741 -23.591 -15.501  0.00  0.00    +0.052 C 
ATOM     16  C   UNL     1      37.498 -24.601 -14.186  0.00  0.00    +0.083 C 
ATOM     17  C   UNL     1      37.013 -24.156 -15.417  0.00  0.00    +0.019 C 
ATOM     18  C   UNL     1      34.953 -23.472 -14.356  0.00  0.00    +0.016 C 
ATOM     19  C   UNL     1      36.711 -24.480 -13.042  0.00  0.00    +0.062 C 
ATOM     20  C   UNL     1      35.439 -23.916 -13.126  0.00  0.00    +0.013 C 
BRANCH  16  24
ATOM     21  F   UNL     1      39.684 -24.612 -13.215  0.00  0.00    -0.166 F 
ATOM     22  F   UNL     1      38.872 -26.527 -13.830  0.00  0.00    -0.166 F 
ATOM     23  F   UNL     1      39.524 -25.092 -15.329  0.00  0.00    -0.166 F 
ATOM     24  C   UNL     1      38.868 -25.197 -14.138  0.00  0.00    +0.419 C 
ENDBRANCH  16  24
ENDBRANCH   9  15
ENDBRANCH   2  10
BRANCH   3  25
ATOM     25  O   UNL     1      35.234 -18.091 -22.652  0.00  0.00    -0.453 OA
BRANCH  25  27
ATOM     26  N   UNL     1      34.076 -14.215 -21.701  0.00  0.00    -0.239 NA
ATOM     27  C   UNL     1      34.849 -16.799 -22.336  0.00  0.00    +0.149 C 
ATOM     28  C   UNL     1      34.472 -15.941 -23.346  0.00  0.00    +0.061 C 
ATOM     29  C   UNL     1      34.093 -14.660 -22.978  0.00  0.00    +0.137 C 
ATOM     30  C   UNL     1      34.851 -16.400 -21.016  0.00  0.00    +0.058 C 
ATOM     31  C   UNL     1      34.456 -15.099 -20.751  0.00  0.00    +0.102 C 
BRANCH  29  34
ATOM     32  O   UNL     1      33.896 -12.483 -23.825  0.00  0.00    -0.268 OA
ATOM     33  N   UNL     1      33.065 -14.206 -25.136  0.00  0.00    -0.298 N 
ATOM     34  C   UNL     1      33.682 -13.698 -23.986  0.00  0.00    +0.264 C 
ATOM     35  C   UNL     1      32.622 -13.381 -26.236  0.00  0.00    +0.111 C 
ATOM     36  H   UNL     1      32.925 -15.178 -25.198  0.00  0.00    +0.150 HD
ENDBRANCH  29  34
ENDBRANCH  25  27
ENDBRANCH   3  25
TORSDOF 6
ENDMDL
MODEL 4
REMARK VINA RESULT:     -12.8      4.568     11.945
REMARK  Name = 11167602
REMARK  6 active torsions:
REMARK  status: ('A' for Active; 'I' for Inactive)
REMARK    1  A    between atoms: C_2  and  N_10
REMARK    2  A    between atoms: C_3  and  O_25
REMARK    3  A    between atoms: N_9  and  C_15
REMARK    4  A    between atoms: C_16  and  C_24
REMARK    5  A    between atoms: O_25  and  C_27
REMARK    6  A    between atoms: C_29  and  C_34
REMARK                            x       y       z     vdW  Elec       q    Type
REMARK                         _______ _______ _______ _____ _____    ______ ____
ROOT
ATOM      1  F   UNL     1      36.635 -21.447 -17.823  0.00  0.00    -0.203 F 
ATOM      2  C   UNL     1      34.545 -21.873 -18.866  0.00  0.00    +0.079 C 
ATOM      3  C   UNL     1      33.761 -23.338 -16.649  0.00  0.00    +0.148 C 
ATOM      4  C   UNL     1      35.419 -22.010 -17.801  0.00  0.00    +0.157 C 
ATOM      5  C   UNL     1      33.286 -22.452 -18.846  0.00  0.00    +0.020 C 
ATOM      6  C   UNL     1      35.025 -22.747 -16.685  0.00  0.00    +0.068 C 
ATOM      7  C   UNL     1      32.892 -23.191 -17.730  0.00  0.00    +0.039 C 
ENDROOT
BRANCH   2  10
ATOM      8  O   UNL     1      33.079 -19.766 -20.394  0.00  0.00    -0.252 OA
ATOM      9  N   UNL     1      34.974 -19.637 -21.766  0.00  0.00    -0.268 N 
ATOM     10  N   UNL     1      34.941 -21.124 -19.999  0.00  0.00    -0.266 N 
ATOM     11  C   UNL     1      34.211 -20.140 -20.684  0.00  0.00    +0.308 C 
ATOM     12  H   UNL     1      35.868 -20.032 -21.878  0.00  0.00    +0.156 HD
ATOM     13  H   UNL     1      35.840 -21.318 -20.351  0.00  0.00    +0.156 HD
BRANCH   9  15
ATOM     14 CL   UNL     1      33.519 -15.449 -25.676  0.00  0.00    -0.082 Cl
ATOM     15  C   UNL     1      34.626 -18.655 -22.694  0.00  0.00    +0.052 C 
ATOM     16  C   UNL     1      33.423 -17.984 -24.679  0.00  0.00    +0.083 C 
ATOM     17  C   UNL     1      33.771 -18.967 -23.752  0.00  0.00    +0.019 C 
ATOM     18  C   UNL     1      35.133 -17.363 -22.565  0.00  0.00    +0.016 C 
ATOM     19  C   UNL     1      33.929 -16.691 -24.549  0.00  0.00    +0.062 C 
ATOM     20  C   UNL     1      34.785 -16.380 -23.492  0.00  0.00    +0.013 C 
BRANCH  16  24
ATOM     21  F   UNL     1      32.149 -19.674 -25.793  0.00  0.00    -0.166 F 
ATOM     22  F   UNL     1      31.324 -17.668 -25.783  0.00  0.00    -0.166 F 
ATOM     23  F   UNL     1      33.052 -18.126 -27.023  0.00  0.00    -0.166 F 
ATOM     24  C   UNL     1      32.502 -18.357 -25.796  0.00  0.00    +0.419 C 
ENDBRANCH  16  24
ENDBRANCH   9  15
ENDBRANCH   2  10
BRANCH   3  25
ATOM     25  O   UNL     1      33.376 -24.058 -15.560  0.00  0.00    -0.453 OA
BRANCH  25  27
ATOM     26  N   UNL     1      36.298 -25.066 -12.782  0.00  0.00    -0.239 NA
ATOM     27  C   UNL     1      34.350 -24.395 -14.635  0.00  0.00    +0.149 C 
ATOM     28  C   UNL     1      35.474 -25.072 -15.055  0.00  0.00    +0.061 C 
ATOM     29  C   UNL     1      36.419 -25.385 -14.091  0.00  0.00    +0.137 C 
ATOM     30  C   UNL     1      34.172 -24.044 -13.313  0.00  0.00    +0.058 C 
ATOM     31  C   UNL     1      35.175 -24.403 -12.427  0.00  0.00    +0.102 C 
BRANCH  29  34
ATOM     32  O   UNL     1      37.570 -27.243 -14.940  0.00  0.00    -0.268 OA
ATOM     33  N   UNL     1      38.846 -25.430 -14.261  0.00  0.00    -0.298 N 
ATOM     34  C   UNL     1      37.631 -26.097 -14.457  0.00  0.00    +0.264 C 
ATOM     35  C   UNL     1      40.133 -25.995 -14.597  0.00  0.00    +0.111 C 
ATOM     36  H   UNL     1      38.823 -24.525 -13.873  0.00  0.00    +0.150 HD
ENDBRANCH  29  34
ENDBRANCH  25  27
ENDBRANCH   3  25
TORSDOF 6
ENDMDL
MODEL 5
REMARK VINA RESULT:     -12.6      5.631     11.912
REMARK  Name = 11167602
REMARK  6 active torsions:
REMARK  status: ('A' for Active; 'I' for Inactive)
REMARK    1  A    between atoms: C_2  and  N_10
REMARK    2  A    between atoms: C_3  and  O_25
REMARK    3  A    between atoms: N_9  and  C_15
REMARK    4  A    between atoms: C_16  and  C_24
REMARK    5  A    between atoms: O_25  and  C_27
REMARK    6  A    between atoms: C_29  and  C_34
REMARK                            x       y       z     vdW  Elec       q    Type
REMARK                         _______ _______ _______ _____ _____    ______ ____
ROOT
ATOM      1  F   UNL     1      36.800 -19.975 -20.484  0.00  0.00    -0.203 F 
ATOM      2  C   UNL     1      34.442 -19.756 -20.666  0.00  0.00    +0.079 C 
ATOM      3  C   UNL     1      34.135 -22.143 -19.294  0.00  0.00    +0.148 C 
ATOM      4  C   UNL     1      35.568 -20.444 -20.243  0.00  0.00    +0.157 C 
ATOM      5  C   UNL     1      33.167 -20.236 -20.417  0.00  0.00    +0.020 C 
ATOM      6  C   UNL     1      35.413 -21.646 -19.552  0.00  0.00    +0.068 C 
ATOM      7  C   UNL     1      33.012 -21.438 -19.727  0.00  0.00    +0.039 C 
ENDROOT
BRANCH   2  10
ATOM      8  O   UNL     1      33.250 -18.852 -23.251  0.00  0.00    -0.252 OA
ATOM      9  N   UNL     1      34.426 -16.851 -22.936  0.00  0.00    -0.268 N 
ATOM     10  N   UNL     1      34.595 -18.536 -21.365  0.00  0.00    -0.266 N 
ATOM     11  C   UNL     1      34.011 -18.158 -22.584  0.00  0.00    +0.308 C 
ATOM     12  H   UNL     1      35.039 -16.413 -22.303  0.00  0.00    +0.156 HD
ATOM     13  H   UNL     1      35.186 -17.869 -20.945  0.00  0.00    +0.156 HD
BRANCH   9  15
ATOM     14 CL   UNL     1      32.972 -13.708 -27.727  0.00  0.00    -0.082 Cl
ATOM     15  C   UNL     1      34.081 -16.101 -24.061  0.00  0.00    +0.052 C 
ATOM     16  C   UNL     1      33.481 -13.986 -25.064  0.00  0.00    +0.083 C 
ATOM     17  C   UNL     1      33.826 -14.735 -23.938  0.00  0.00    +0.019 C 
ATOM     18  C   UNL     1      33.993 -16.718 -25.309  0.00  0.00    +0.016 C 
ATOM     19  C   UNL     1      33.394 -14.603 -26.311  0.00  0.00    +0.062 C 
ATOM     20  C   UNL     1      33.649 -15.968 -26.434  0.00  0.00    +0.013 C 
BRANCH  16  24
ATOM     21  F   UNL     1      34.211 -11.731 -25.381  0.00  0.00    -0.166 F 
ATOM     22  F   UNL     1      32.078 -12.101 -25.509  0.00  0.00    -0.166 F 
ATOM     23  F   UNL     1      33.079 -12.174 -23.579  0.00  0.00    -0.166 F 
ATOM     24  C   UNL     1      33.218 -12.526 -24.890  0.00  0.00    +0.419 C 
ENDBRANCH  16  24
ENDBRANCH   9  15
ENDBRANCH   2  10
BRANCH   3  25
ATOM     25  O   UNL     1      33.984 -23.316 -18.621  0.00  0.00    -0.453 OA
BRANCH  25  27
ATOM     26  N   UNL     1      32.308 -23.162 -14.821  0.00  0.00    -0.239 NA
ATOM     27  C   UNL     1      33.425 -23.264 -17.355  0.00  0.00    +0.149 C 
ATOM     28  C   UNL     1      32.055 -23.196 -17.225  0.00  0.00    +0.061 C 
ATOM     29  C   UNL     1      31.545 -23.147 -15.937  0.00  0.00    +0.137 C 
ATOM     30  C   UNL     1      34.253 -23.282 -16.252  0.00  0.00    +0.058 C 
ATOM     31  C   UNL     1      33.646 -23.228 -15.008  0.00  0.00    +0.102 C 
BRANCH  29  34
ATOM     32  O   UNL     1      29.637 -23.218 -14.577  0.00  0.00    -0.268 OA
ATOM     33  N   UNL     1      29.309 -22.818 -16.838  0.00  0.00    -0.298 N 
ATOM     34  C   UNL     1      30.111 -23.075 -15.719  0.00  0.00    +0.264 C 
ATOM     35  C   UNL     1      27.870 -22.695 -16.779  0.00  0.00    +0.111 C 
ATOM     36  H   UNL     1      29.749 -22.718 -17.712  0.00  0.00    +0.150 HD
ENDBRANCH  29  34
ENDBRANCH  25  27
ENDBRANCH   3  25
TORSDOF 6
ENDMDL
MODEL 6
REMARK VINA RESULT:     -12.4      5.410     12.179
REMARK  Name = 11167602
REMARK  6 active torsions:
REMARK  status: ('A' for Active; 'I' for Inactive)
REMARK    1  A    between atoms: C_2  and  N_10
REMARK    2  A    between atoms: C_3  and  O_25
REMARK    3  A    between atoms: N_9  and  C_15
REMARK    4  A    between atoms: C_16  and  C_24
REMARK    5  A    between atoms: O_25  and  C_27
REMARK    6  A    between atoms: C_29  and  C_34
REMARK                            x       y       z     vdW  Elec       q    Type
REMARK                         _______ _______ _______ _____ _____    ______ ____
ROOT
ATOM      1  F   UNL     1      31.952 -19.756 -20.561  0.00  0.00    -0.203 F 
ATOM      2  C   UNL     1      34.303 -20.080 -20.473  0.00  0.00    +0.079 C 
ATOM      3  C   UNL     1      33.905 -22.431 -19.063  0.00  0.00    +0.148 C 
ATOM      4  C   UNL     1      33.011 -20.483 -20.177  0.00  0.00    +0.157 C 
ATOM      5  C   UNL     1      35.400 -20.830 -20.080  0.00  0.00    +0.020 C 
ATOM      6  C   UNL     1      32.811 -21.666 -19.468  0.00  0.00    +0.068 C 
ATOM      7  C   UNL     1      35.200 -22.013 -19.369  0.00  0.00    +0.039 C 
ENDROOT
BRANCH   2  10
ATOM      8  O   UNL     1      33.251 -19.225 -23.135  0.00  0.00    -0.252 OA
ATOM      9  N   UNL     1      34.444 -17.234 -22.813  0.00  0.00    -0.268 N 
ATOM     10  N   UNL     1      34.510 -18.881 -21.195  0.00  0.00    -0.266 N 
ATOM     11  C   UNL     1      33.990 -18.526 -22.449  0.00  0.00    +0.308 C 
ATOM     12  H   UNL     1      35.033 -16.790 -22.162  0.00  0.00    +0.156 HD
ATOM     13  H   UNL     1      35.090 -18.213 -20.763  0.00  0.00    +0.156 HD
BRANCH   9  15
ATOM     14 CL   UNL     1      33.282 -14.190 -27.745  0.00  0.00    -0.082 Cl
ATOM     15  C   UNL     1      34.166 -16.508 -23.972  0.00  0.00    +0.052 C 
ATOM     16  C   UNL     1      33.441 -14.466 -25.038  0.00  0.00    +0.083 C 
ATOM     17  C   UNL     1      33.718 -15.191 -23.879  0.00  0.00    +0.019 C 
ATOM     18  C   UNL     1      34.338 -17.101 -25.223  0.00  0.00    +0.016 C 
ATOM     19  C   UNL     1      33.613 -15.058 -26.289  0.00  0.00    +0.062 C 
ATOM     20  C   UNL     1      34.061 -16.375 -26.382  0.00  0.00    +0.013 C 
BRANCH  16  24
ATOM     21  F   UNL     1      32.391 -12.795 -23.686  0.00  0.00    -0.166 F 
ATOM     22  F   UNL     1      33.958 -12.130 -25.030  0.00  0.00    -0.166 F 
ATOM     23  F   UNL     1      32.025 -12.727 -25.828  0.00  0.00    -0.166 F 
ATOM     24  C   UNL     1      32.965 -13.056 -24.896  0.00  0.00    +0.419 C 
ENDBRANCH  16  24
ENDBRANCH   9  15
ENDBRANCH   2  10
BRANCH   3  25
ATOM     25  O   UNL     1      33.710 -23.587 -18.370  0.00  0.00    -0.453 OA
BRANCH  25  27
ATOM     26  N   UNL     1      32.078 -23.296 -14.559  0.00  0.00    -0.239 NA
ATOM     27  C   UNL     1      33.167 -23.491 -17.100  0.00  0.00    +0.149 C 
ATOM     28  C   UNL     1      33.978 -23.682 -16.004  0.00  0.00    +0.061 C 
ATOM     29  C   UNL     1      33.387 -23.573 -14.754  0.00  0.00    +0.137 C 
ATOM     30  C   UNL     1      31.825 -23.206 -16.962  0.00  0.00    +0.058 C 
ATOM     31  C   UNL     1      31.329 -23.119 -15.671  0.00  0.00    +0.102 C 
BRANCH  29  34
ATOM     32  O   UNL     1      33.689 -24.324 -12.554  0.00  0.00    -0.268 OA
ATOM     33  N   UNL     1      35.501 -23.304 -13.580  0.00  0.00    -0.298 N 
ATOM     34  C   UNL     1      34.178 -23.761 -13.551  0.00  0.00    +0.264 C 
ATOM     35  C   UNL     1      36.419 -23.438 -12.472  0.00  0.00    +0.111 C 
ATOM     36  H   UNL     1      35.824 -22.866 -14.400  0.00  0.00    +0.150 HD
ENDBRANCH  29  34
ENDBRANCH  25  27
ENDBRANCH   3  25
TORSDOF 6
ENDMDL
MODEL 7
REMARK VINA RESULT:     -12.3      5.108     11.151
REMARK  Name = 11167602
REMARK  6 active torsions:
REMARK  status: ('A' for Active; 'I' for Inactive)
REMARK    1  A    between atoms: C_2  and  N_10
REMARK    2  A    between atoms: C_3  and  O_25
REMARK    3  A    between atoms: N_9  and  C_15
REMARK    4  A    between atoms: C_16  and  C_24
REMARK    5  A    between atoms: O_25  and  C_27
REMARK    6  A    between atoms: C_29  and  C_34
REMARK                            x       y       z     vdW  Elec       q    Type
REMARK                         _______ _______ _______ _____ _____    ______ ____
ROOT
ATOM      1  F   UNL     1      32.965 -22.320 -20.028  0.00  0.00    -0.203 F 
ATOM      2  C   UNL     1      35.111 -21.528 -19.391  0.00  0.00    +0.079 C 
ATOM      3  C   UNL     1      34.837 -22.808 -16.950  0.00  0.00    +0.148 C 
ATOM      4  C   UNL     1      33.953 -22.240 -19.125  0.00  0.00    +0.157 C 
ATOM      5  C   UNL     1      36.136 -21.444 -18.462  0.00  0.00    +0.020 C 
ATOM      6  C   UNL     1      33.815 -22.884 -17.896  0.00  0.00    +0.068 C 
ATOM      7  C   UNL     1      35.997 -22.087 -17.232  0.00  0.00    +0.039 C 
ENDROOT
BRANCH   2  10
ATOM      8  O   UNL     1      33.553 -19.274 -20.579  0.00  0.00    -0.252 OA
ATOM      9  N   UNL     1      34.968 -19.456 -22.437  0.00  0.00    -0.268 N 
ATOM     10  N   UNL     1      35.256 -20.875 -20.638  0.00  0.00    -0.266 N 
ATOM     11  C   UNL     1      34.493 -19.815 -21.152  0.00  0.00    +0.308 C 
ATOM     12  H   UNL     1      35.732 -19.978 -22.771  0.00  0.00    +0.156 HD
ATOM     13  H   UNL     1      35.981 -21.205 -21.216  0.00  0.00    +0.156 HD
BRANCH   9  15
ATOM     14 CL   UNL     1      32.993 -15.206 -26.039  0.00  0.00    -0.082 Cl
ATOM     15  C   UNL     1      34.496 -18.459 -23.292  0.00  0.00    +0.052 C 
ATOM     16  C   UNL     1      33.059 -17.765 -25.106  0.00  0.00    +0.083 C 
ATOM     17  C   UNL     1      33.530 -18.763 -24.251  0.00  0.00    +0.019 C 
ATOM     18  C   UNL     1      34.992 -17.160 -23.188  0.00  0.00    +0.016 C 
ATOM     19  C   UNL     1      33.553 -16.466 -25.000  0.00  0.00    +0.062 C 
ATOM     20  C   UNL     1      34.520 -16.163 -24.042  0.00  0.00    +0.013 C 
BRANCH  16  24
ATOM     21  F   UNL     1      30.794 -17.592 -25.858  0.00  0.00    -0.166 F 
ATOM     22  F   UNL     1      32.330 -17.727 -27.384  0.00  0.00    -0.166 F 
ATOM     23  F   UNL     1      31.823 -19.478 -26.197  0.00  0.00    -0.166 F 
ATOM     24  C   UNL     1      32.021 -18.131 -26.117  0.00  0.00    +0.419 C 
ENDBRANCH  16  24
ENDBRANCH   9  15
ENDBRANCH   2  10
BRANCH   3  25
ATOM     25  O   UNL     1      34.701 -23.436 -15.749  0.00  0.00    -0.453 OA
BRANCH  25  27
ATOM     26  N   UNL     1      30.849 -24.121 -14.349  0.00  0.00    -0.239 NA
ATOM     27  C   UNL     1      33.418 -23.663 -15.283  0.00  0.00    +0.149 C 
ATOM     28  C   UNL     1      32.346 -23.152 -15.982  0.00  0.00    +0.061 C 
ATOM     29  C   UNL     1      31.082 -23.409 -15.475  0.00  0.00    +0.137 C 
ATOM     30  C   UNL     1      33.241 -24.396 -14.129  0.00  0.00    +0.058 C 
ATOM     31  C   UNL     1      31.938 -24.597 -13.704  0.00  0.00    +0.102 C 
BRANCH  29  34
ATOM     32  O   UNL     1      30.009 -22.296 -17.237  0.00  0.00    -0.268 OA
ATOM     33  N   UNL     1      28.663 -23.155 -15.555  0.00  0.00    -0.298 N 
ATOM     34  C   UNL     1      29.902 -22.904 -16.157  0.00  0.00    +0.264 C 
ATOM     35  C   UNL     1      27.400 -22.739 -16.121  0.00  0.00    +0.111 C 
ATOM     36  H   UNL     1      28.651 -23.641 -14.700  0.00  0.00    +0.150 HD
ENDBRANCH  29  34
ENDBRANCH  25  27
ENDBRANCH   3  25
TORSDOF 6
ENDMDL
MODEL 8
REMARK VINA RESULT:     -12.1      7.790     13.288
REMARK  Name = 11167602
REMARK  6 active torsions:
REMARK  status: ('A' for Active; 'I' for Inactive)
REMARK    1  A    between atoms: C_2  and  N_10
REMARK    2  A    between atoms: C_3  and  O_25
REMARK    3  A    between atoms: N_9  and  C_15
REMARK    4  A    between atoms: C_16  and  C_24
REMARK    5  A    between atoms: O_25  and  C_27
REMARK    6  A    between atoms: C_29  and  C_34
REMARK                            x       y       z     vdW  Elec       q    Type
REMARK                         _______ _______ _______ _____ _____    ______ ____
ROOT
ATOM      1  F   UNL     1      32.744 -13.606 -25.977  0.00  0.00    -0.203 F 
ATOM      2  C   UNL     1      33.824 -13.583 -23.862  0.00  0.00    +0.079 C 
ATOM      3  C   UNL     1      34.043 -16.342 -23.967  0.00  0.00    +0.148 C 
ATOM      4  C   UNL     1      33.327 -14.261 -24.963  0.00  0.00    +0.157 C 
ATOM      5  C   UNL     1      34.429 -14.256 -22.813  0.00  0.00    +0.020 C 
ATOM      6  C   UNL     1      33.438 -15.650 -25.016  0.00  0.00    +0.068 C 
ATOM      7  C   UNL     1      34.538 -15.645 -22.865  0.00  0.00    +0.039 C 
ENDROOT
BRANCH   2  10
ATOM      8  O   UNL     1      31.705 -11.859 -22.652  0.00  0.00    -0.252 OA
ATOM      9  N   UNL     1      32.967 -10.028 -23.387  0.00  0.00    -0.268 N 
ATOM     10  N   UNL     1      33.714 -12.173 -23.806  0.00  0.00    -0.266 N 
ATOM     11  C   UNL     1      32.693 -11.408 -23.223  0.00  0.00    +0.308 C 
ATOM     12  H   UNL     1      33.800  -9.813 -23.867  0.00  0.00    +0.156 HD
ATOM     13  H   UNL     1      34.446 -11.667 -24.229  0.00  0.00    +0.156 HD
BRANCH   9  15
ATOM     14 CL   UNL     1      29.758  -5.392 -21.613  0.00  0.00    -0.082 Cl
ATOM     15  C   UNL     1      32.215  -8.933 -22.960  0.00  0.00    +0.052 C 
ATOM     16  C   UNL     1      31.785  -7.193 -21.341  0.00  0.00    +0.083 C 
ATOM     17  C   UNL     1      32.538  -8.288 -21.766  0.00  0.00    +0.019 C 
ATOM     18  C   UNL     1      31.140  -8.485 -23.727  0.00  0.00    +0.016 C 
ATOM     19  C   UNL     1      30.711  -6.744 -22.108  0.00  0.00    +0.062 C 
ATOM     20  C   UNL     1      30.388  -7.390 -23.301  0.00  0.00    +0.013 C 
BRANCH  16  24
ATOM     21  F   UNL     1      32.370  -5.185 -20.180  0.00  0.00    -0.166 F 
ATOM     22  F   UNL     1      31.226  -6.660 -19.077  0.00  0.00    -0.166 F 
ATOM     23  F   UNL     1      33.320  -7.030 -19.533  0.00  0.00    -0.166 F 
ATOM     24  C   UNL     1      32.165  -6.528 -20.058  0.00  0.00    +0.419 C 
ENDBRANCH  16  24
ENDBRANCH   9  15
ENDBRANCH   2  10
BRANCH   3  25
ATOM     25  O   UNL     1      34.151 -17.698 -24.019  0.00  0.00    -0.453 OA
BRANCH  25  27
ATOM     26  N   UNL     1      35.411 -19.669 -20.584  0.00  0.00    -0.239 NA
ATOM     27  C   UNL     1      34.570 -18.354 -22.874  0.00  0.00    +0.149 C 
ATOM     28  C   UNL     1      33.665 -19.107 -22.158  0.00  0.00    +0.061 C 
ATOM     29  C   UNL     1      34.134 -19.746 -21.021  0.00  0.00    +0.137 C 
ATOM     30  C   UNL     1      35.885 -18.239 -22.475  0.00  0.00    +0.058 C 
ATOM     31  C   UNL     1      36.255 -18.915 -21.324  0.00  0.00    +0.102 C 
BRANCH  29  34
ATOM     32  O   UNL     1      32.008 -20.388 -20.271  0.00  0.00    -0.268 OA
ATOM     33  N   UNL     1      33.826 -21.539 -19.405  0.00  0.00    -0.298 N 
ATOM     34  C   UNL     1      33.240 -20.558 -20.215  0.00  0.00    +0.264 C 
ATOM     35  C   UNL     1      33.070 -22.439 -18.565  0.00  0.00    +0.111 C 
ATOM     36  H   UNL     1      34.807 -21.618 -19.407  0.00  0.00    +0.150 HD
ENDBRANCH  29  34
ENDBRANCH  25  27
ENDBRANCH   3  25
TORSDOF 6
ENDMDL
MODEL 9
REMARK VINA RESULT:     -11.9      1.773      2.236
REMARK  Name = 11167602
REMARK  6 active torsions:
REMARK  status: ('A' for Active; 'I' for Inactive)
REMARK    1  A    between atoms: C_2  and  N_10
REMARK    2  A    between atoms: C_3  and  O_25
REMARK    3  A    between atoms: N_9  and  C_15
REMARK    4  A    between atoms: C_16  and  C_24
REMARK    5  A    between atoms: O_25  and  C_27
REMARK    6  A    between atoms: C_29  and  C_34
REMARK                            x       y       z     vdW  Elec       q    Type
REMARK                         _______ _______ _______ _____ _____    ______ ____
ROOT
ATOM      1  F   UNL     1      32.848 -20.569 -20.070  0.00  0.00    -0.203 F 
ATOM      2  C   UNL     1      35.220 -20.573 -19.964  0.00  0.00    +0.079 C 
ATOM      3  C   UNL     1      35.289 -18.597 -21.904  0.00  0.00    +0.148 C 
ATOM      4  C   UNL     1      34.030 -20.094 -20.486  0.00  0.00    +0.157 C 
ATOM      5  C   UNL     1      36.444 -20.083 -20.391  0.00  0.00    +0.020 C 
ATOM      6  C   UNL     1      34.064 -19.100 -21.463  0.00  0.00    +0.068 C 
ATOM      7  C   UNL     1      36.479 -19.090 -21.369  0.00  0.00    +0.039 C 
ENDROOT
BRANCH   2  10
ATOM      8  O   UNL     1      36.802 -20.849 -17.445  0.00  0.00    -0.252 OA
ATOM      9  N   UNL     1      35.615 -22.836 -17.080  0.00  0.00    -0.268 N 
ATOM     10  N   UNL     1      35.189 -21.581 -18.972  0.00  0.00    -0.266 N 
ATOM     11  C   UNL     1      35.957 -21.665 -17.800  0.00  0.00    +0.308 C 
ATOM     12  H   UNL     1      34.917 -23.399 -17.487  0.00  0.00    +0.156 HD
ATOM     13  H   UNL     1      34.549 -22.314 -19.122  0.00  0.00    +0.156 HD
BRANCH   9  15
ATOM     14 CL   UNL     1      37.857 -24.799 -11.975  0.00  0.00    -0.082 Cl
ATOM     15  C   UNL     1      36.136 -23.298 -15.871  0.00  0.00    +0.052 C 
ATOM     16  C   UNL     1      35.827 -23.887 -13.548  0.00  0.00    +0.083 C 
ATOM     17  C   UNL     1      35.305 -23.425 -14.757  0.00  0.00    +0.019 C 
ATOM     18  C   UNL     1      37.487 -23.631 -15.776  0.00  0.00    +0.016 C 
ATOM     19  C   UNL     1      37.177 -24.222 -13.454  0.00  0.00    +0.062 C 
ATOM     20  C   UNL     1      38.007 -24.094 -14.567  0.00  0.00    +0.013 C 
BRANCH  16  24
ATOM     21  F   UNL     1      33.594 -23.796 -12.695  0.00  0.00    -0.166 F 
ATOM     22  F   UNL     1      34.933 -25.243 -11.792  0.00  0.00    -0.166 F 
ATOM     23  F   UNL     1      35.196 -23.123 -11.388  0.00  0.00    -0.166 F 
ATOM     24  C   UNL     1      34.904 -24.012 -12.380  0.00  0.00    +0.419 C 
ENDBRANCH  16  24
ENDBRANCH   9  15
ENDBRANCH   2  10
BRANCH   3  25
ATOM     25  O   UNL     1      35.323 -17.626 -22.858  0.00  0.00    -0.453 OA
BRANCH  25  27
ATOM     26  N   UNL     1      33.254 -18.322 -26.395  0.00  0.00    -0.239 NA
ATOM     27  C   UNL     1      34.632 -17.858 -24.036  0.00  0.00    +0.149 C 
ATOM     28  C   UNL     1      34.154 -16.787 -24.759  0.00  0.00    +0.061 C 
ATOM     29  C   UNL     1      33.472 -17.071 -25.931  0.00  0.00    +0.137 C 
ATOM     30  C   UNL     1      34.440 -19.156 -24.460  0.00  0.00    +0.058 C 
ATOM     31  C   UNL     1      33.745 -19.334 -25.645  0.00  0.00    +0.102 C 
BRANCH  29  34
ATOM     32  O   UNL     1      33.695 -15.135 -27.235  0.00  0.00    -0.268 OA
ATOM     33  N   UNL     1      31.555 -15.990 -26.972  0.00  0.00    -0.298 N 
ATOM     34  C   UNL     1      32.938 -15.995 -26.748  0.00  0.00    +0.264 C 
ATOM     35  C   UNL     1      30.879 -15.002 -27.779  0.00  0.00    +0.111 C 
ATOM     36  H   UNL     1      31.015 -16.699 -26.555  0.00  0.00    +0.150 HD
ENDBRANCH  29  34
ENDBRANCH  25  27
ENDBRANCH   3  25
TORSDOF 6
ENDMDL
