MODEL 1
REMARK VINA RESULT:     -11.9      0.000      0.000
REMARK  Name = 15984937
REMARK  6 active torsions:
REMARK  status: ('A' for Active; 'I' for Inactive)
REMARK    1  A    between atoms: C_1  and  C_9
REMARK    2  A    between atoms: C_1  and  C_20
REMARK    3  A    between atoms: C_4  and  N_10
REMARK    4  A    between atoms: N_10  and  C_13
REMARK    5  A    between atoms: C_19  and  C_25
REMARK    6  A    between atoms: C_25  and  N_26
REMARK                            x       y       z     vdW  Elec       q    Type
REMARK                         _______ _______ _______ _____ _____    ______ ____
ROOT
ATOM      1  C   UNL     1      35.096 -18.136 -22.163  0.00  0.00    +0.112 C 
ENDROOT
BRANCH   1   9
ATOM      2  O   UNL     1      34.845 -16.851 -20.189  0.00  0.00    -0.275 OA
ATOM      3  N   UNL     1      34.696 -15.698 -22.201  0.00  0.00    -0.279 N 
ATOM      4  C   UNL     1      33.124 -13.674 -23.577  0.00  0.00    +0.072 C 
ATOM      5  C   UNL     1      33.432 -15.035 -24.210  0.00  0.00    +0.041 C 
ATOM      6  C   UNL     1      33.212 -13.735 -22.048  0.00  0.00    +0.041 C 
ATOM      7  C   UNL     1      34.719 -15.657 -23.667  0.00  0.00    +0.095 C 
ATOM      8  C   UNL     1      34.497 -14.400 -21.556  0.00  0.00    +0.095 C 
ATOM      9  C   UNL     1      34.870 -16.843 -21.422  0.00  0.00    +0.230 C 
BRANCH   4  10
ATOM     10  N   UNL     1      34.033 -12.671 -24.096  0.00  0.00    -0.334 N 
ATOM     11  H   UNL     1      34.842 -12.975 -24.568  0.00  0.00    +0.147 HD
BRANCH  10  13
ATOM     12  F   UNL     1      35.619  -8.157 -24.449  0.00  0.00    -0.204 F 
ATOM     13  C   UNL     1      33.826 -11.310 -23.962  0.00  0.00    +0.047 C 
ATOM     14  C   UNL     1      34.845 -10.388 -24.278  0.00  0.00    +0.044 C 
ATOM     15  C   UNL     1      32.594 -10.804 -23.506  0.00  0.00    +0.014 C 
ATOM     16  C   UNL     1      34.637  -9.016 -24.142  0.00  0.00    +0.141 C 
ATOM     17  C   UNL     1      32.386  -9.432 -23.370  0.00  0.00    +0.004 C 
ATOM     18  C   UNL     1      33.409  -8.538 -23.688  0.00  0.00    +0.030 C 
ENDBRANCH  10  13
ENDBRANCH   4  10
ENDBRANCH   1   9
BRANCH   1  20
ATOM     19  C   UNL     1      33.865 -21.472 -19.780  0.00  0.00    -0.043 C 
ATOM     20  C   UNL     1      34.665 -19.302 -21.331  0.00  0.00    -0.013 C 
ATOM     21  C   UNL     1      35.222 -21.221 -19.981  0.00  0.00    -0.007 C 
ATOM     22  C   UNL     1      32.909 -20.635 -20.355  0.00  0.00    -0.007 C 
ATOM     23  C   UNL     1      35.624 -20.135 -20.757  0.00  0.00    -0.004 C 
ATOM     24  C   UNL     1      33.310 -19.549 -21.133  0.00  0.00    -0.004 C 
BRANCH  19  25
ATOM     25  C   UNL     1      33.436 -22.634 -18.950  0.00  0.00    -0.050 C 
BRANCH  25  26
ATOM     26  N   UNL     1      33.803 -22.479 -17.543  0.00  0.00    +0.387 N 
ATOM     27  N   UNL     1      34.849 -23.446 -15.030  0.00  0.00    +0.382 N 
ATOM     28  C   UNL     1      35.628 -22.531 -15.872  0.00  0.00    -0.083 C 
ATOM     29  C   UNL     1      35.243 -22.697 -17.352  0.00  0.00    -0.099 C 
ATOM     30  C   UNL     1      33.029 -23.399 -16.700  0.00  0.00    -0.101 C 
ATOM     31  C   UNL     1      33.414 -23.241 -15.228  0.00  0.00    -0.105 C 
ATOM     32  C   UNL     1      37.115 -22.811 -15.668  0.00  0.00    -0.026 C 
ATOM     33  H   UNL     1      33.582 -21.524 -17.262  0.00  0.00    -0.079 HD
ATOM     34  H   UNL     1      35.078 -23.277 -14.051  0.00  0.00    -0.085 HD
ATOM     35  H   UNL     1      35.080 -24.405 -15.289  0.00  0.00    -0.085 HD
ENDBRANCH  25  26
ENDBRANCH  19  25
ENDBRANCH   1  20
TORSDOF 6
ENDMDL
MODEL 2
REMARK VINA RESULT:     -11.8      2.903      4.829
REMARK  Name = 15984937
REMARK  6 active torsions:
REMARK  status: ('A' for Active; 'I' for Inactive)
REMARK    1  A    between atoms: C_1  and  C_9
REMARK    2  A    between atoms: C_1  and  C_20
REMARK    3  A    between atoms: C_4  and  N_10
REMARK    4  A    between atoms: N_10  and  C_13
REMARK    5  A    between atoms: C_19  and  C_25
REMARK    6  A    between atoms: C_25  and  N_26
REMARK                            x       y       z     vdW  Elec       q    Type
REMARK                         _______ _______ _______ _____ _____    ______ ____
ROOT
ATOM      1  C   UNL     1      36.075 -21.296 -19.568  0.00  0.00    +0.112 C 
ENDROOT
BRANCH   1   9
ATOM      2  O   UNL     1      33.753 -21.520 -19.978  0.00  0.00    -0.275 OA
ATOM      3  N   UNL     1      34.791 -19.653 -20.894  0.00  0.00    -0.279 N 
ATOM      4  C   UNL     1      34.951 -18.082 -23.336  0.00  0.00    +0.072 C 
ATOM      5  C   UNL     1      36.201 -18.612 -22.626  0.00  0.00    +0.041 C 
ATOM      6  C   UNL     1      33.712 -18.913 -22.984  0.00  0.00    +0.041 C 
ATOM      7  C   UNL     1      35.978 -18.825 -21.128  0.00  0.00    +0.095 C 
ATOM      8  C   UNL     1      33.555 -19.132 -21.479  0.00  0.00    +0.095 C 
ATOM      9  C   UNL     1      34.766 -20.840 -20.160  0.00  0.00    +0.230 C 
BRANCH   4  10
ATOM     10  N   UNL     1      34.740 -16.690 -22.993  0.00  0.00    -0.334 N 
ATOM     11  H   UNL     1      35.015 -16.384 -22.098  0.00  0.00    +0.147 HD
BRANCH  10  13
ATOM     12  F   UNL     1      32.988 -15.537 -27.308  0.00  0.00    -0.204 F 
ATOM     13  C   UNL     1      34.171 -15.768 -23.852  0.00  0.00    +0.047 C 
ATOM     14  C   UNL     1      33.854 -16.115 -25.181  0.00  0.00    +0.044 C 
ATOM     15  C   UNL     1      33.892 -14.454 -23.427  0.00  0.00    +0.014 C 
ATOM     16  C   UNL     1      33.282 -15.185 -26.049  0.00  0.00    +0.141 C 
ATOM     17  C   UNL     1      33.320 -13.524 -24.295  0.00  0.00    +0.004 C 
ATOM     18  C   UNL     1      33.015 -13.891 -25.606  0.00  0.00    +0.030 C 
ENDBRANCH  10  13
ENDBRANCH   4  10
ENDBRANCH   1   9
BRANCH   1  20
ATOM     19  C   UNL     1      35.484 -22.854 -15.625  0.00  0.00    -0.043 C 
ATOM     20  C   UNL     1      35.869 -21.841 -18.190  0.00  0.00    -0.013 C 
ATOM     21  C   UNL     1      36.681 -22.216 -15.950  0.00  0.00    -0.007 C 
ATOM     22  C   UNL     1      34.480 -22.983 -16.584  0.00  0.00    -0.007 C 
ATOM     23  C   UNL     1      36.874 -21.709 -17.235  0.00  0.00    -0.004 C 
ATOM     24  C   UNL     1      34.672 -22.476 -17.869  0.00  0.00    -0.004 C 
BRANCH  19  25
ATOM     25  C   UNL     1      35.278 -23.397 -14.252  0.00  0.00    -0.050 C 
BRANCH  25  26
ATOM     26  N   UNL     1      36.019 -24.638 -14.027  0.00  0.00    +0.387 N 
ATOM     27  N   UNL     1      37.845 -26.730 -14.822  0.00  0.00    +0.382 N 
ATOM     28  C   UNL     1      38.245 -25.705 -13.852  0.00  0.00    -0.083 C 
ATOM     29  C   UNL     1      37.467 -24.400 -14.091  0.00  0.00    -0.099 C 
ATOM     30  C   UNL     1      35.624 -25.663 -15.001  0.00  0.00    -0.101 C 
ATOM     31  C   UNL     1      36.401 -26.959 -14.771  0.00  0.00    -0.105 C 
ATOM     32  C   UNL     1      39.749 -25.465 -13.973  0.00  0.00    -0.026 C 
ATOM     33  H   UNL     1      35.790 -24.978 -13.093  0.00  0.00    -0.079 HD
ATOM     34  H   UNL     1      38.329 -27.601 -14.608  0.00  0.00    -0.085 HD
ATOM     35  H   UNL     1      38.090 -26.408 -15.759  0.00  0.00    -0.085 HD
ENDBRANCH  25  26
ENDBRANCH  19  25
ENDBRANCH   1  20
TORSDOF 6
ENDMDL
MODEL 3
REMARK VINA RESULT:     -11.8      1.996      2.711
REMARK  Name = 15984937
REMARK  6 active torsions:
REMARK  status: ('A' for Active; 'I' for Inactive)
REMARK    1  A    between atoms: C_1  and  C_9
REMARK    2  A    between atoms: C_1  and  C_20
REMARK    3  A    between atoms: C_4  and  N_10
REMARK    4  A    between atoms: N_10  and  C_13
REMARK    5  A    between atoms: C_19  and  C_25
REMARK    6  A    between atoms: C_25  and  N_26
REMARK                            x       y       z     vdW  Elec       q    Type
REMARK                         _______ _______ _______ _____ _____    ______ ____
ROOT
ATOM      1  C   UNL     1      35.587 -18.983 -21.468  0.00  0.00    +0.112 C 
ENDROOT
BRANCH   1   9
ATOM      2  O   UNL     1      34.885 -19.809 -23.574  0.00  0.00    -0.275 OA
ATOM      3  N   UNL     1      34.329 -17.606 -23.087  0.00  0.00    -0.279 N 
ATOM      4  C   UNL     1      34.281 -14.940 -24.249  0.00  0.00    +0.072 C 
ATOM      5  C   UNL     1      34.942 -15.227 -22.896  0.00  0.00    +0.041 C 
ATOM      6  C   UNL     1      34.199 -16.204 -25.112  0.00  0.00    +0.041 C 
ATOM      7  C   UNL     1      34.336 -16.443 -22.194  0.00  0.00    +0.095 C 
ATOM      8  C   UNL     1      33.625 -17.401 -24.354  0.00  0.00    +0.095 C 
ATOM      9  C   UNL     1      34.904 -18.845 -22.804  0.00  0.00    +0.230 C 
BRANCH   4  10
ATOM     10  N   UNL     1      32.959 -14.381 -24.045  0.00  0.00    -0.334 N 
ATOM     11  H   UNL     1      32.179 -14.968 -24.180  0.00  0.00    +0.147 HD
BRANCH  10  13
ATOM     12  F   UNL     1      31.076 -11.168 -21.020  0.00  0.00    -0.204 F 
ATOM     13  C   UNL     1      32.732 -13.069 -23.673  0.00  0.00    +0.047 C 
ATOM     14  C   UNL     1      32.002 -12.761 -22.508  0.00  0.00    +0.044 C 
ATOM     15  C   UNL     1      33.223 -12.000 -24.448  0.00  0.00    +0.014 C 
ATOM     16  C   UNL     1      31.772 -11.437 -22.134  0.00  0.00    +0.141 C 
ATOM     17  C   UNL     1      32.993 -10.676 -24.074  0.00  0.00    +0.004 C 
ATOM     18  C   UNL     1      32.267 -10.395 -22.916  0.00  0.00    +0.030 C 
ENDBRANCH  10  13
ENDBRANCH   4  10
ENDBRANCH   1   9
BRANCH   1  20
ATOM     19  C   UNL     1      33.794 -22.125 -19.178  0.00  0.00    -0.043 C 
ATOM     20  C   UNL     1      34.961 -20.081 -20.667  0.00  0.00    -0.013 C 
ATOM     21  C   UNL     1      32.990 -21.196 -19.838  0.00  0.00    -0.007 C 
ATOM     22  C   UNL     1      35.183 -22.030 -19.265  0.00  0.00    -0.007 C 
ATOM     23  C   UNL     1      33.573 -20.172 -20.584  0.00  0.00    -0.004 C 
ATOM     24  C   UNL     1      35.768 -21.006 -20.010  0.00  0.00    -0.004 C 
BRANCH  19  25
ATOM     25  C   UNL     1      33.170 -23.218 -18.380  0.00  0.00    -0.050 C 
BRANCH  25  26
ATOM     26  N   UNL     1      33.079 -22.888 -16.958  0.00  0.00    +0.387 N 
ATOM     27  N   UNL     1      32.765 -23.568 -14.169  0.00  0.00    +0.382 N 
ATOM     28  C   UNL     1      34.071 -23.176 -14.709  0.00  0.00    -0.083 C 
ATOM     29  C   UNL     1      34.166 -23.526 -16.204  0.00  0.00    -0.099 C 
ATOM     30  C   UNL     1      31.775 -23.286 -16.414  0.00  0.00    -0.101 C 
ATOM     31  C   UNL     1      31.680 -22.945 -14.926  0.00  0.00    -0.105 C 
ATOM     32  C   UNL     1      35.170 -23.885 -13.919  0.00  0.00    -0.026 C 
ATOM     33  H   UNL     1      33.172 -21.877 -16.863  0.00  0.00    -0.079 HD
ATOM     34  H   UNL     1      32.703 -23.274 -13.194  0.00  0.00    -0.085 HD
ATOM     35  H   UNL     1      32.672 -24.581 -14.241  0.00  0.00    -0.085 HD
ENDBRANCH  25  26
ENDBRANCH  19  25
ENDBRANCH   1  20
TORSDOF 6
ENDMDL
MODEL 4
REMARK VINA RESULT:     -11.7      2.791      4.812
REMARK  Name = 15984937
REMARK  6 active torsions:
REMARK  status: ('A' for Active; 'I' for Inactive)
REMARK    1  A    between atoms: C_1  and  C_9
REMARK    2  A    between atoms: C_1  and  C_20
REMARK    3  A    between atoms: C_4  and  N_10
REMARK    4  A    between atoms: N_10  and  C_13
REMARK    5  A    between atoms: C_19  and  C_25
REMARK    6  A    between atoms: C_25  and  N_26
REMARK                            x       y       z     vdW  Elec       q    Type
REMARK                         _______ _______ _______ _____ _____    ______ ____
ROOT
ATOM      1  C   UNL     1      35.711 -21.496 -19.645  0.00  0.00    +0.112 C 
ENDROOT
BRANCH   1   9
ATOM      2  O   UNL     1      33.420 -21.513 -20.249  0.00  0.00    -0.275 OA
ATOM      3  N   UNL     1      34.666 -19.685 -20.960  0.00  0.00    -0.279 N 
ATOM      4  C   UNL     1      35.142 -17.995 -23.279  0.00  0.00    +0.072 C 
ATOM      5  C   UNL     1      36.287 -18.661 -22.508  0.00  0.00    +0.041 C 
ATOM      6  C   UNL     1      33.820 -18.744 -23.077  0.00  0.00    +0.041 C 
ATOM      7  C   UNL     1      35.926 -18.940 -21.048  0.00  0.00    +0.095 C 
ATOM      8  C   UNL     1      33.525 -19.035 -21.606  0.00  0.00    +0.095 C 
ATOM      9  C   UNL     1      34.493 -20.906 -20.307  0.00  0.00    +0.230 C 
BRANCH   4  10
ATOM     10  N   UNL     1      35.007 -16.612 -22.866  0.00  0.00    -0.334 N 
ATOM     11  H   UNL     1      35.389 -16.345 -21.997  0.00  0.00    +0.147 HD
BRANCH  10  13
ATOM     12  F   UNL     1      32.786 -15.269 -26.901  0.00  0.00    -0.204 F 
ATOM     13  C   UNL     1      34.368 -15.646 -23.622  0.00  0.00    +0.047 C 
ATOM     14  C   UNL     1      33.883 -15.941 -24.913  0.00  0.00    +0.044 C 
ATOM     15  C   UNL     1      34.184 -14.341 -23.128  0.00  0.00    +0.014 C 
ATOM     16  C   UNL     1      33.240 -14.967 -25.677  0.00  0.00    +0.141 C 
ATOM     17  C   UNL     1      33.541 -13.367 -23.892  0.00  0.00    +0.004 C 
ATOM     18  C   UNL     1      33.069 -13.681 -25.167  0.00  0.00    +0.030 C 
ENDBRANCH  10  13
ENDBRANCH   4  10
ENDBRANCH   1   9
BRANCH   1  20
ATOM     19  C   UNL     1      34.724 -23.044 -15.778  0.00  0.00    -0.043 C 
ATOM     20  C   UNL     1      35.366 -22.037 -18.293  0.00  0.00    -0.013 C 
ATOM     21  C   UNL     1      33.814 -23.161 -16.829  0.00  0.00    -0.007 C 
ATOM     22  C   UNL     1      35.955 -22.423 -15.987  0.00  0.00    -0.007 C 
ATOM     23  C   UNL     1      34.135 -22.656 -18.089  0.00  0.00    -0.004 C 
ATOM     24  C   UNL     1      36.277 -21.918 -17.247  0.00  0.00    -0.004 C 
BRANCH  19  25
ATOM     25  C   UNL     1      34.379 -23.582 -14.431  0.00  0.00    -0.050 C 
BRANCH  25  26
ATOM     26  N   UNL     1      35.537 -23.633 -13.539  0.00  0.00    +0.387 N 
ATOM     27  N   UNL     1      37.300 -24.963 -11.677  0.00  0.00    +0.382 N 
ATOM     28  C   UNL     1      37.720 -24.696 -13.056  0.00  0.00    -0.083 C 
ATOM     29  C   UNL     1      36.501 -24.645 -13.993  0.00  0.00    -0.099 C 
ATOM     30  C   UNL     1      35.119 -23.907 -12.159  0.00  0.00    -0.101 C 
ATOM     31  C   UNL     1      36.329 -23.966 -11.226  0.00  0.00    -0.105 C 
ATOM     32  C   UNL     1      38.694 -25.785 -13.500  0.00  0.00    -0.026 C 
ATOM     33  H   UNL     1      35.993 -22.722 -13.561  0.00  0.00    -0.079 HD
ATOM     34  H   UNL     1      38.116 -24.935 -11.066  0.00  0.00    -0.085 HD
ATOM     35  H   UNL     1      36.861 -25.884 -11.641  0.00  0.00    -0.085 HD
ENDBRANCH  25  26
ENDBRANCH  19  25
ENDBRANCH   1  20
TORSDOF 6
ENDMDL
MODEL 5
REMARK VINA RESULT:     -11.4      4.374     12.185
REMARK  Name = 15984937
REMARK  6 active torsions:
REMARK  status: ('A' for Active; 'I' for Inactive)
REMARK    1  A    between atoms: C_1  and  C_9
REMARK    2  A    between atoms: C_1  and  C_20
REMARK    3  A    between atoms: C_4  and  N_10
REMARK    4  A    between atoms: N_10  and  C_13
REMARK    5  A    between atoms: C_19  and  C_25
REMARK    6  A    between atoms: C_25  and  N_26
REMARK                            x       y       z     vdW  Elec       q    Type
REMARK                         _______ _______ _______ _____ _____    ______ ____
ROOT
ATOM      1  C   UNL     1      35.509 -21.125 -19.246  0.00  0.00    +0.112 C 
ENDROOT
BRANCH   1   9
ATOM      2  O   UNL     1      33.271 -21.795 -19.643  0.00  0.00    -0.275 OA
ATOM      3  N   UNL     1      34.317 -22.723 -17.787  0.00  0.00    -0.279 N 
ATOM      4  C   UNL     1      33.881 -23.347 -14.979  0.00  0.00    +0.072 C 
ATOM      5  C   UNL     1      35.104 -22.557 -15.457  0.00  0.00    +0.041 C 
ATOM      6  C   UNL     1      32.723 -23.246 -15.978  0.00  0.00    +0.041 C 
ATOM      7  C   UNL     1      35.479 -22.877 -16.905  0.00  0.00    +0.095 C 
ATOM      8  C   UNL     1      33.156 -23.533 -17.416  0.00  0.00    +0.095 C 
ATOM      9  C   UNL     1      34.263 -21.908 -18.917  0.00  0.00    +0.230 C 
BRANCH   4  10
ATOM     10  N   UNL     1      34.241 -24.734 -14.763  0.00  0.00    -0.334 N 
ATOM     11  H   UNL     1      33.563 -25.426 -14.945  0.00  0.00    +0.147 HD
BRANCH  10  13
ATOM     12  F   UNL     1      37.752 -24.574 -11.497  0.00  0.00    -0.204 F 
ATOM     13  C   UNL     1      35.484 -25.140 -14.313  0.00  0.00    +0.047 C 
ATOM     14  C   UNL     1      36.014 -24.647 -13.104  0.00  0.00    +0.044 C 
ATOM     15  C   UNL     1      36.259 -26.057 -15.050  0.00  0.00    +0.014 C 
ATOM     16  C   UNL     1      37.268 -25.055 -12.651  0.00  0.00    +0.141 C 
ATOM     17  C   UNL     1      37.514 -26.465 -14.597  0.00  0.00    +0.004 C 
ATOM     18  C   UNL     1      38.018 -25.963 -13.396  0.00  0.00    +0.030 C 
ENDBRANCH  10  13
ENDBRANCH   4  10
ENDBRANCH   1   9
BRANCH   1  20
ATOM     19  C   UNL     1      34.840 -18.573 -22.617  0.00  0.00    -0.043 C 
ATOM     20  C   UNL     1      35.275 -20.233 -20.424  0.00  0.00    -0.013 C 
ATOM     21  C   UNL     1      36.126 -18.718 -22.096  0.00  0.00    -0.007 C 
ATOM     22  C   UNL     1      33.773 -19.260 -22.040  0.00  0.00    -0.007 C 
ATOM     23  C   UNL     1      36.344 -19.549 -20.998  0.00  0.00    -0.004 C 
ATOM     24  C   UNL     1      33.990 -20.091 -20.941  0.00  0.00    -0.004 C 
BRANCH  19  25
ATOM     25  C   UNL     1      34.607 -17.684 -23.791  0.00  0.00    -0.050 C 
BRANCH  25  26
ATOM     26  N   UNL     1      33.987 -16.415 -23.413  0.00  0.00    +0.387 N 
ATOM     27  N   UNL     1      33.950 -13.537 -23.162  0.00  0.00    +0.382 N 
ATOM     28  C   UNL     1      33.154 -14.217 -24.190  0.00  0.00    -0.083 C 
ATOM     29  C   UNL     1      33.809 -15.551 -24.588  0.00  0.00    -0.099 C 
ATOM     30  C   UNL     1      34.786 -15.729 -22.389  0.00  0.00    -0.101 C 
ATOM     31  C   UNL     1      34.141 -14.400 -21.997  0.00  0.00    -0.105 C 
ATOM     32  C   UNL     1      33.020 -13.300 -25.404  0.00  0.00    -0.026 C 
ATOM     33  H   UNL     1      33.068 -16.617 -23.021  0.00  0.00    -0.079 HD
ATOM     34  H   UNL     1      33.468 -12.686 -22.873  0.00  0.00    -0.085 HD
ATOM     35  H   UNL     1      34.865 -13.312 -23.553  0.00  0.00    -0.085 HD
ENDBRANCH  25  26
ENDBRANCH  19  25
ENDBRANCH   1  20
TORSDOF 6
ENDMDL
MODEL 6
REMARK VINA RESULT:     -11.1      3.724     11.253
REMARK  Name = 15984937
REMARK  6 active torsions:
REMARK  status: ('A' for Active; 'I' for Inactive)
REMARK    1  A    between atoms: C_1  and  C_9
REMARK    2  A    between atoms: C_1  and  C_20
REMARK    3  A    between atoms: C_4  and  N_10
REMARK    4  A    between atoms: N_10  and  C_13
REMARK    5  A    between atoms: C_19  and  C_25
REMARK    6  A    between atoms: C_25  and  N_26
REMARK                            x       y       z     vdW  Elec       q    Type
REMARK                         _______ _______ _______ _____ _____    ______ ____
ROOT
ATOM      1  C   UNL     1      34.168 -17.413 -25.780  0.00  0.00    +0.112 C 
ENDROOT
BRANCH   1   9
ATOM      2  O   UNL     1      32.115 -18.324 -25.025  0.00  0.00    -0.275 OA
ATOM      3  N   UNL     1      33.995 -18.805 -23.746  0.00  0.00    -0.279 N 
ATOM      4  C   UNL     1      34.928 -18.932 -20.994  0.00  0.00    +0.072 C 
ATOM      5  C   UNL     1      35.682 -18.149 -22.073  0.00  0.00    +0.041 C 
ATOM      6  C   UNL     1      33.450 -19.111 -21.360  0.00  0.00    +0.041 C 
ATOM      7  C   UNL     1      35.433 -18.699 -23.478  0.00  0.00    +0.095 C 
ATOM      8  C   UNL     1      33.253 -19.624 -22.787  0.00  0.00    +0.095 C 
ATOM      9  C   UNL     1      33.328 -18.220 -24.823  0.00  0.00    +0.230 C 
BRANCH   4  10
ATOM     10  N   UNL     1      35.557 -20.222 -20.789  0.00  0.00    -0.334 N 
ATOM     11  H   UNL     1      36.178 -20.553 -21.478  0.00  0.00    +0.147 HD
BRANCH  10  13
ATOM     12  F   UNL     1      37.083 -22.196 -16.691  0.00  0.00    -0.204 F 
ATOM     13  C   UNL     1      35.331 -21.016 -19.679  0.00  0.00    +0.047 C 
ATOM     14  C   UNL     1      36.339 -21.217 -18.715  0.00  0.00    +0.044 C 
ATOM     15  C   UNL     1      34.087 -21.647 -19.479  0.00  0.00    +0.014 C 
ATOM     16  C   UNL     1      36.111 -22.019 -17.596  0.00  0.00    +0.141 C 
ATOM     17  C   UNL     1      33.860 -22.448 -18.360  0.00  0.00    +0.004 C 
ATOM     18  C   UNL     1      34.873 -22.634 -17.419  0.00  0.00    +0.030 C 
ENDBRANCH  10  13
ENDBRANCH   4  10
ENDBRANCH   1   9
BRANCH   1  20
ATOM     19  C   UNL     1      33.017 -13.291 -25.692  0.00  0.00    -0.043 C 
ATOM     20  C   UNL     1      33.766 -15.973 -25.750  0.00  0.00    -0.013 C 
ATOM     21  C   UNL     1      33.386 -13.938 -24.513  0.00  0.00    -0.007 C 
ATOM     22  C   UNL     1      33.024 -13.988 -26.900  0.00  0.00    -0.007 C 
ATOM     23  C   UNL     1      33.761 -15.281 -24.541  0.00  0.00    -0.004 C 
ATOM     24  C   UNL     1      33.398 -15.332 -26.929  0.00  0.00    -0.004 C 
BRANCH  19  25
ATOM     25  C   UNL     1      32.615 -11.856 -25.662  0.00  0.00    -0.050 C 
BRANCH  25  26
ATOM     26  N   UNL     1      33.572 -11.026 -24.931  0.00  0.00    +0.387 N 
ATOM     27  N   UNL     1      34.994  -8.561 -24.434  0.00  0.00    +0.382 N 
ATOM     28  C   UNL     1      33.907  -8.998 -23.552  0.00  0.00    -0.083 C 
ATOM     29  C   UNL     1      32.901  -9.869 -24.322  0.00  0.00    -0.099 C 
ATOM     30  C   UNL     1      34.657 -10.582 -25.814  0.00  0.00    -0.101 C 
ATOM     31  C   UNL     1      35.656  -9.709 -25.053  0.00  0.00    -0.105 C 
ATOM     32  C   UNL     1      33.216  -7.768 -22.966  0.00  0.00    -0.026 C 
ATOM     33  H   UNL     1      33.976 -11.592 -24.185  0.00  0.00    -0.079 HD
ATOM     34  H   UNL     1      35.677  -8.035 -23.890  0.00  0.00    -0.085 HD
ATOM     35  H   UNL     1      34.601  -7.976 -25.172  0.00  0.00    -0.085 HD
ENDBRANCH  25  26
ENDBRANCH  19  25
ENDBRANCH   1  20
TORSDOF 6
ENDMDL
MODEL 7
REMARK VINA RESULT:     -11.0      2.774      3.534
REMARK  Name = 15984937
REMARK  6 active torsions:
REMARK  status: ('A' for Active; 'I' for Inactive)
REMARK    1  A    between atoms: C_1  and  C_9
REMARK    2  A    between atoms: C_1  and  C_20
REMARK    3  A    between atoms: C_4  and  N_10
REMARK    4  A    between atoms: N_10  and  C_13
REMARK    5  A    between atoms: C_19  and  C_25
REMARK    6  A    between atoms: C_25  and  N_26
REMARK                            x       y       z     vdW  Elec       q    Type
REMARK                         _______ _______ _______ _____ _____    ______ ____
ROOT
ATOM      1  C   UNL     1      35.420 -19.185 -21.166  0.00  0.00    +0.112 C 
ENDROOT
BRANCH   1   9
ATOM      2  O   UNL     1      34.862 -20.253 -23.206  0.00  0.00    -0.275 OA
ATOM      3  N   UNL     1      34.383 -17.984 -23.061  0.00  0.00    -0.279 N 
ATOM      4  C   UNL     1      34.580 -15.496 -24.554  0.00  0.00    +0.072 C 
ATOM      5  C   UNL     1      35.103 -15.628 -23.120  0.00  0.00    +0.041 C 
ATOM      6  C   UNL     1      34.506 -16.859 -25.251  0.00  0.00    +0.041 C 
ATOM      7  C   UNL     1      34.374 -16.714 -22.327  0.00  0.00    +0.095 C 
ATOM      8  C   UNL     1      33.805 -17.920 -24.403  0.00  0.00    +0.095 C 
ATOM      9  C   UNL     1      34.864 -19.197 -22.568  0.00  0.00    +0.230 C 
BRANCH   4  10
ATOM     10  N   UNL     1      33.277 -14.861 -24.548  0.00  0.00    -0.334 N 
ATOM     11  H   UNL     1      32.677 -15.035 -23.786  0.00  0.00    +0.147 HD
BRANCH  10  13
ATOM     12  F   UNL     1      30.797 -14.163 -28.596  0.00  0.00    -0.204 F 
ATOM     13  C   UNL     1      32.829 -14.025 -25.555  0.00  0.00    +0.047 C 
ATOM     14  C   UNL     1      32.018 -14.517 -26.598  0.00  0.00    +0.044 C 
ATOM     15  C   UNL     1      33.169 -12.659 -25.569  0.00  0.00    +0.014 C 
ATOM     16  C   UNL     1      31.568 -13.675 -27.614  0.00  0.00    +0.141 C 
ATOM     17  C   UNL     1      32.719 -11.816 -26.586  0.00  0.00    +0.004 C 
ATOM     18  C   UNL     1      31.918 -12.325 -27.608  0.00  0.00    +0.030 C 
ENDBRANCH  10  13
ENDBRANCH   4  10
ENDBRANCH   1   9
BRANCH   1  20
ATOM     19  C   UNL     1      33.682 -22.323 -18.831  0.00  0.00    -0.043 C 
ATOM     20  C   UNL     1      34.813 -20.282 -20.350  0.00  0.00    -0.013 C 
ATOM     21  C   UNL     1      32.862 -21.442 -19.535  0.00  0.00    -0.007 C 
ATOM     22  C   UNL     1      35.068 -22.182 -18.888  0.00  0.00    -0.007 C 
ATOM     23  C   UNL     1      33.427 -20.419 -20.296  0.00  0.00    -0.004 C 
ATOM     24  C   UNL     1      35.635 -21.159 -19.648  0.00  0.00    -0.004 C 
BRANCH  19  25
ATOM     25  C   UNL     1      33.077 -23.416 -18.016  0.00  0.00    -0.050 C 
BRANCH  25  26
ATOM     26  N   UNL     1      33.021 -23.084 -16.593  0.00  0.00    +0.387 N 
ATOM     27  N   UNL     1      32.629 -23.739 -13.807  0.00  0.00    +0.382 N 
ATOM     28  C   UNL     1      33.971 -23.493 -14.345  0.00  0.00    -0.083 C 
ATOM     29  C   UNL     1      34.029 -23.844 -15.841  0.00  0.00    -0.099 C 
ATOM     30  C   UNL     1      31.680 -23.336 -16.052  0.00  0.00    -0.101 C 
ATOM     31  C   UNL     1      31.622 -22.994 -14.563  0.00  0.00    -0.105 C 
ATOM     32  C   UNL     1      34.983 -24.324 -13.557  0.00  0.00    -0.026 C 
ATOM     33  H   UNL     1      33.227 -22.090 -16.492  0.00  0.00    -0.079 HD
ATOM     34  H   UNL     1      32.599 -23.444 -12.831  0.00  0.00    -0.085 HD
ATOM     35  H   UNL     1      32.423 -24.735 -13.885  0.00  0.00    -0.085 HD
ENDBRANCH  25  26
ENDBRANCH  19  25
ENDBRANCH   1  20
TORSDOF 6
ENDMDL
MODEL 8
REMARK VINA RESULT:     -11.0      5.142     12.265
REMARK  Name = 15984937
REMARK  6 active torsions:
REMARK  status: ('A' for Active; 'I' for Inactive)
REMARK    1  A    between atoms: C_1  and  C_9
REMARK    2  A    between atoms: C_1  and  C_20
REMARK    3  A    between atoms: C_4  and  N_10
REMARK    4  A    between atoms: N_10  and  C_13
REMARK    5  A    between atoms: C_19  and  C_25
REMARK    6  A    between atoms: C_25  and  N_26
REMARK                            x       y       z     vdW  Elec       q    Type
REMARK                         _______ _______ _______ _____ _____    ______ ____
ROOT
ATOM      1  C   UNL     1      35.451 -21.787 -19.330  0.00  0.00    +0.112 C 
ENDROOT
BRANCH   1   9
ATOM      2  O   UNL     1      33.155 -22.287 -19.632  0.00  0.00    -0.275 OA
ATOM      3  N   UNL     1      34.120 -23.010 -17.645  0.00  0.00    -0.279 N 
ATOM      4  C   UNL     1      33.649 -23.137 -14.777  0.00  0.00    +0.072 C 
ATOM      5  C   UNL     1      34.940 -22.558 -15.365  0.00  0.00    +0.041 C 
ATOM      6  C   UNL     1      32.498 -23.081 -15.788  0.00  0.00    +0.041 C 
ATOM      7  C   UNL     1      35.269 -23.136 -16.742  0.00  0.00    +0.095 C 
ATOM      8  C   UNL     1      32.888 -23.633 -17.159  0.00  0.00    +0.095 C 
ATOM      9  C   UNL     1      34.137 -22.382 -18.891  0.00  0.00    +0.230 C 
BRANCH   4  10
ATOM     10  N   UNL     1      33.873 -24.502 -14.343  0.00  0.00    -0.334 N 
ATOM     11  H   UNL     1      33.151 -25.159 -14.478  0.00  0.00    +0.147 HD
BRANCH  10  13
ATOM     12  F   UNL     1      37.986 -26.964 -14.523  0.00  0.00    -0.204 F 
ATOM     13  C   UNL     1      35.043 -24.932 -13.746  0.00  0.00    +0.047 C 
ATOM     14  C   UNL     1      35.954 -25.751 -14.443  0.00  0.00    +0.044 C 
ATOM     15  C   UNL     1      35.361 -24.566 -12.423  0.00  0.00    +0.014 C 
ATOM     16  C   UNL     1      37.134 -26.186 -13.841  0.00  0.00    +0.141 C 
ATOM     17  C   UNL     1      36.542 -25.001 -11.821  0.00  0.00    +0.004 C 
ATOM     18  C   UNL     1      37.428 -25.811 -12.531  0.00  0.00    +0.030 C 
ENDBRANCH  10  13
ENDBRANCH   4  10
ENDBRANCH   1   9
BRANCH   1  20
ATOM     19  C   UNL     1      34.803 -18.272 -21.685  0.00  0.00    -0.043 C 
ATOM     20  C   UNL     1      35.225 -20.559 -20.153  0.00  0.00    -0.013 C 
ATOM     21  C   UNL     1      33.714 -18.996 -21.198  0.00  0.00    -0.007 C 
ATOM     22  C   UNL     1      36.102 -18.694 -21.404  0.00  0.00    -0.007 C 
ATOM     23  C   UNL     1      33.925 -20.142 -20.431  0.00  0.00    -0.004 C 
ATOM     24  C   UNL     1      36.314 -19.840 -20.638  0.00  0.00    -0.004 C 
BRANCH  19  25
ATOM     25  C   UNL     1      34.577 -17.049 -22.506  0.00  0.00    -0.050 C 
BRANCH  25  26
ATOM     26  N   UNL     1      34.483 -17.346 -23.935  0.00  0.00    +0.387 N 
ATOM     27  N   UNL     1      33.018 -17.813 -26.380  0.00  0.00    +0.382 N 
ATOM     28  C   UNL     1      33.741 -16.555 -26.160  0.00  0.00    -0.083 C 
ATOM     29  C   UNL     1      33.836 -16.242 -24.657  0.00  0.00    -0.099 C 
ATOM     30  C   UNL     1      33.755 -18.601 -24.158  0.00  0.00    -0.101 C 
ATOM     31  C   UNL     1      33.652 -18.911 -25.652  0.00  0.00    -0.105 C 
ATOM     32  C   UNL     1      33.019 -15.430 -26.899  0.00  0.00    -0.026 C 
ATOM     33  H   UNL     1      35.430 -17.456 -24.297  0.00  0.00    -0.079 HD
ATOM     34  H   UNL     1      33.018 -18.029 -27.377  0.00  0.00    -0.085 HD
ATOM     35  H   UNL     1      32.063 -17.705 -26.040  0.00  0.00    -0.085 HD
ENDBRANCH  25  26
ENDBRANCH  19  25
ENDBRANCH   1  20
TORSDOF 6
ENDMDL
MODEL 9
REMARK VINA RESULT:     -10.8      3.793     11.604
REMARK  Name = 15984937
REMARK  6 active torsions:
REMARK  status: ('A' for Active; 'I' for Inactive)
REMARK    1  A    between atoms: C_1  and  C_9
REMARK    2  A    between atoms: C_1  and  C_20
REMARK    3  A    between atoms: C_4  and  N_10
REMARK    4  A    between atoms: N_10  and  C_13
REMARK    5  A    between atoms: C_19  and  C_25
REMARK    6  A    between atoms: C_25  and  N_26
REMARK                            x       y       z     vdW  Elec       q    Type
REMARK                         _______ _______ _______ _____ _____    ______ ____
ROOT
ATOM      1  C   UNL     1      34.138 -13.972 -23.438  0.00  0.00    +0.112 C 
ENDROOT
BRANCH   1   9
ATOM      2  O   UNL     1      34.816 -14.019 -21.168  0.00  0.00    -0.275 OA
ATOM      3  N   UNL     1      34.380 -16.074 -22.162  0.00  0.00    -0.279 N 
ATOM      4  C   UNL     1      35.435 -18.773 -22.410  0.00  0.00    +0.072 C 
ATOM      5  C   UNL     1      35.050 -17.934 -23.633  0.00  0.00    +0.041 C 
ATOM      6  C   UNL     1      35.745 -17.888 -21.198  0.00  0.00    +0.041 C 
ATOM      7  C   UNL     1      33.981 -16.889 -23.314  0.00  0.00    +0.095 C 
ATOM      8  C   UNL     1      34.667 -16.834 -20.945  0.00  0.00    +0.095 C 
ATOM      9  C   UNL     1      34.475 -14.682 -22.151  0.00  0.00    +0.230 C 
BRANCH   4  10
ATOM     10  N   UNL     1      34.370 -19.705 -22.095  0.00  0.00    -0.334 N 
ATOM     11  H   UNL     1      33.626 -19.797 -22.736  0.00  0.00    +0.147 HD
BRANCH  10  13
ATOM     12  F   UNL     1      36.647 -22.031 -18.571  0.00  0.00    -0.204 F 
ATOM     13  C   UNL     1      34.339 -20.471 -20.945  0.00  0.00    +0.047 C 
ATOM     14  C   UNL     1      35.532 -20.880 -20.315  0.00  0.00    +0.044 C 
ATOM     15  C   UNL     1      33.116 -20.867 -20.368  0.00  0.00    +0.014 C 
ATOM     16  C   UNL     1      35.501 -21.654 -19.155  0.00  0.00    +0.141 C 
ATOM     17  C   UNL     1      33.086 -21.640 -19.208  0.00  0.00    +0.004 C 
ATOM     18  C   UNL     1      34.279 -22.034 -18.602  0.00  0.00    +0.030 C 
ENDBRANCH  10  13
ENDBRANCH   4  10
ENDBRANCH   1   9
BRANCH   1  20
ATOM     19  C   UNL     1      31.771 -10.490 -22.663  0.00  0.00    -0.043 C 
ATOM     20  C   UNL     1      33.311 -12.755 -23.166  0.00  0.00    -0.013 C 
ATOM     21  C   UNL     1      32.792 -10.442 -23.612  0.00  0.00    -0.007 C 
ATOM     22  C   UNL     1      31.522 -11.673 -21.967  0.00  0.00    -0.007 C 
ATOM     23  C   UNL     1      33.564 -11.576 -23.865  0.00  0.00    -0.004 C 
ATOM     24  C   UNL     1      32.293 -12.807 -22.218  0.00  0.00    -0.004 C 
BRANCH  19  25
ATOM     25  C   UNL     1      30.947  -9.278 -22.392  0.00  0.00    -0.050 C 
BRANCH  25  26
ATOM     26  N   UNL     1      31.766  -8.093 -22.139  0.00  0.00    +0.387 N 
ATOM     27  N   UNL     1      32.131  -5.305 -21.478  0.00  0.00    +0.382 N 
ATOM     28  C   UNL     1      32.430  -6.359 -20.503  0.00  0.00    -0.083 C 
ATOM     29  C   UNL     1      31.566  -7.603 -20.769  0.00  0.00    -0.099 C 
ATOM     30  C   UNL     1      31.464  -7.035 -23.111  0.00  0.00    -0.101 C 
ATOM     31  C   UNL     1      32.316  -5.793 -22.844  0.00  0.00    -0.105 C 
ATOM     32  C   UNL     1      32.179  -5.821 -19.095  0.00  0.00    -0.026 C 
ATOM     33  H   UNL     1      32.745  -8.357 -22.247  0.00  0.00    -0.079 HD
ATOM     34  H   UNL     1      32.755  -4.514 -21.319  0.00  0.00    -0.085 HD
ATOM     35  H   UNL     1      31.159  -5.019 -21.364  0.00  0.00    -0.085 HD
ENDBRANCH  25  26
ENDBRANCH  19  25
ENDBRANCH   1  20
TORSDOF 6
ENDMDL
