MODEL 1
REMARK VINA RESULT:     -12.5      0.000      0.000
REMARK  Name = 44472635
REMARK  7 active torsions:
REMARK  status: ('A' for Active; 'I' for Inactive)
REMARK    1  A    between atoms: C_1  and  C_21
REMARK    2  A    between atoms: C_4  and  N_8
REMARK    3  A    between atoms: C_9  and  C_14
REMARK    4  A    between atoms: C_21  and  C_24
REMARK    5  A    between atoms: C_23  and  C_29
REMARK    6  A    between atoms: C_29  and  C_30
REMARK    7  A    between atoms: C_29  and  O_36
REMARK                            x       y       z     vdW  Elec       q    Type
REMARK                         _______ _______ _______ _____ _____    ______ ____
ROOT
ATOM      1  C   UNL     1      34.574 -19.920 -20.900  0.00  0.00    -0.024 C 
ATOM      2  C   UNL     1      35.565 -20.659 -20.252  0.00  0.00    -0.003 C 
ATOM      3  C   UNL     1      33.230 -20.153 -20.610  0.00  0.00    -0.003 C 
ATOM      4  C   UNL     1      33.866 -21.862 -19.025  0.00  0.00    +0.050 C 
ATOM      5  C   UNL     1      35.211 -21.630 -19.315  0.00  0.00    +0.014 C 
ATOM      6  C   UNL     1      32.876 -21.123 -19.673  0.00  0.00    +0.014 C 
ENDROOT
BRANCH   4   8
ATOM      7  O   UNL     1      35.032 -22.486 -16.320  0.00  0.00    -0.273 OA
ATOM      8  N   UNL     1      33.507 -22.847 -18.075  0.00  0.00    -0.283 N 
ATOM      9  C   UNL     1      34.092 -23.082 -16.839  0.00  0.00    +0.245 C 
ATOM     10  H   UNL     1      32.754 -23.433 -18.320  0.00  0.00    +0.155 HD
BRANCH   9  14
ATOM     11  O   UNL     1      35.937 -25.710 -15.655  0.00  0.00    -0.269 OA
ATOM     12  N   UNL     1      34.143 -24.437 -14.895  0.00  0.00    -0.237 N 
ATOM     13  N   UNL     1      33.898 -23.898 -12.585  0.00  0.00    -0.233 NA
ATOM     14  C   UNL     1      33.420 -24.218 -16.129  0.00  0.00    +0.158 C 
ATOM     15  C   UNL     1      32.021 -23.841 -15.662  0.00  0.00    +0.037 C 
ATOM     16  C   UNL     1      32.232 -23.199 -14.289  0.00  0.00    +0.064 C 
ATOM     17  C   UNL     1      33.486 -23.865 -13.809  0.00  0.00    +0.115 C 
ATOM     18  C   UNL     1      35.317 -25.152 -14.758  0.00  0.00    +0.256 C 
ATOM     19  C   UNL     1      35.799 -25.190 -13.353  0.00  0.00    +0.079 C 
ATOM     20  C   UNL     1      35.078 -24.578 -12.400  0.00  0.00    +0.105 C 
ENDBRANCH   9  14
ENDBRANCH   4   8
BRANCH   1  21
ATOM     21  C   UNL     1      34.952 -18.884 -21.903  0.00  0.00    +0.005 C 
BRANCH  21  24
ATOM     22  N   UNL     1      34.092 -17.642 -23.869  0.00  0.00    +0.388 N 
ATOM     23  C   UNL     1      33.511 -17.964 -25.181  0.00  0.00    -0.030 C 
ATOM     24  C   UNL     1      34.054 -18.911 -23.129  0.00  0.00    -0.057 C 
ATOM     25  C   UNL     1      33.965 -19.391 -25.487  0.00  0.00    -0.021 C 
ATOM     26  C   UNL     1      34.493 -19.936 -24.165  0.00  0.00    -0.023 C 
ATOM     27  H   UNL     1      33.537 -16.931 -23.394  0.00  0.00    -0.084 HD
ATOM     28  H   UNL     1      35.036 -17.266 -23.945  0.00  0.00    -0.084 HD
BRANCH  23  29
ATOM     29  C   UNL     1      33.937 -16.964 -26.247  0.00  0.00    +0.113 C 
BRANCH  29  30
ATOM     30  C   UNL     1      32.765 -16.184 -26.799  0.00  0.00    +0.002 C 
ATOM     31  C   UNL     1      31.543 -16.820 -27.017  0.00  0.00    -0.002 C 
ATOM     32  C   UNL     1      32.907 -14.827 -27.091  0.00  0.00    -0.002 C 
ATOM     33  C   UNL     1      30.463 -16.100 -27.527  0.00  0.00    -0.000 C 
ATOM     34  C   UNL     1      31.827 -14.106 -27.601  0.00  0.00    -0.000 C 
ATOM     35  C   UNL     1      30.605 -14.743 -27.819  0.00  0.00    -0.000 C 
ENDBRANCH  29  30
BRANCH  29  36
ATOM     36  O   UNL     1      34.888 -16.051 -25.700  0.00  0.00    -0.382 OA
ATOM     37  H   UNL     1      35.265 -15.512 -26.412  0.00  0.00    +0.211 HD
ENDBRANCH  29  36
ENDBRANCH  23  29
ENDBRANCH  21  24
ENDBRANCH   1  21
TORSDOF 7
ENDMDL
MODEL 2
REMARK VINA RESULT:     -12.2      1.629      2.729
REMARK  Name = 44472635
REMARK  7 active torsions:
REMARK  status: ('A' for Active; 'I' for Inactive)
REMARK    1  A    between atoms: C_1  and  C_21
REMARK    2  A    between atoms: C_4  and  N_8
REMARK    3  A    between atoms: C_9  and  C_14
REMARK    4  A    between atoms: C_21  and  C_24
REMARK    5  A    between atoms: C_23  and  C_29
REMARK    6  A    between atoms: C_29  and  C_30
REMARK    7  A    between atoms: C_29  and  O_36
REMARK                            x       y       z     vdW  Elec       q    Type
REMARK                         _______ _______ _______ _____ _____    ______ ____
ROOT
ATOM      1  C   UNL     1      32.965 -21.057 -19.733  0.00  0.00    -0.024 C 
ATOM      2  C   UNL     1      31.924 -21.468 -18.900  0.00  0.00    -0.003 C 
ATOM      3  C   UNL     1      34.266 -21.499 -19.491  0.00  0.00    -0.003 C 
ATOM      4  C   UNL     1      33.485 -22.760 -17.585  0.00  0.00    +0.050 C 
ATOM      5  C   UNL     1      32.184 -22.319 -17.825  0.00  0.00    +0.014 C 
ATOM      6  C   UNL     1      34.526 -22.350 -18.418  0.00  0.00    +0.014 C 
ENDROOT
BRANCH   4   8
ATOM      7  O   UNL     1      36.053 -23.330 -16.120  0.00  0.00    -0.273 OA
ATOM      8  N   UNL     1      33.749 -23.624 -16.495  0.00  0.00    -0.283 N 
ATOM      9  C   UNL     1      34.967 -23.841 -15.865  0.00  0.00    +0.245 C 
ATOM     10  H   UNL     1      32.980 -24.129 -16.144  0.00  0.00    +0.155 HD
BRANCH   9  14
ATOM     11  O   UNL     1      36.453 -26.915 -16.098  0.00  0.00    -0.269 OA
ATOM     12  N   UNL     1      36.159 -25.311 -14.437  0.00  0.00    -0.237 N 
ATOM     13  N   UNL     1      37.842 -24.902 -12.798  0.00  0.00    -0.233 NA
ATOM     14  C   UNL     1      34.829 -24.833 -14.750  0.00  0.00    +0.158 C 
ATOM     15  C   UNL     1      34.374 -24.169 -13.458  0.00  0.00    +0.037 C 
ATOM     16  C   UNL     1      35.669 -23.700 -12.789  0.00  0.00    +0.064 C 
ATOM     17  C   UNL     1      36.675 -24.681 -13.308  0.00  0.00    +0.115 C 
ATOM     18  C   UNL     1      36.849 -26.293 -15.119  0.00  0.00    +0.256 C 
ATOM     19  C   UNL     1      38.193 -26.551 -14.539  0.00  0.00    +0.079 C 
ATOM     20  C   UNL     1      38.579 -25.857 -13.457  0.00  0.00    +0.105 C 
ENDBRANCH   9  14
ENDBRANCH   4   8
BRANCH   1  21
ATOM     21  C   UNL     1      32.688 -20.146 -20.880  0.00  0.00    +0.005 C 
BRANCH  21  24
ATOM     22  N   UNL     1      33.639 -19.018 -22.872  0.00  0.00    +0.388 N 
ATOM     23  C   UNL     1      34.950 -18.511 -23.305  0.00  0.00    -0.030 C 
ATOM     24  C   UNL     1      33.935 -19.848 -21.696  0.00  0.00    -0.057 C 
ATOM     25  C   UNL     1      35.744 -18.291 -22.018  0.00  0.00    -0.021 C 
ATOM     26  C   UNL     1      34.961 -19.021 -20.933  0.00  0.00    -0.023 C 
ATOM     27  H   UNL     1      33.208 -19.578 -23.608  0.00  0.00    -0.084 HD
ATOM     28  H   UNL     1      32.983 -18.267 -22.663  0.00  0.00    -0.084 HD
BRANCH  23  29
ATOM     29  C   UNL     1      34.818 -17.248 -24.145  0.00  0.00    +0.113 C 
BRANCH  29  30
ATOM     30  C   UNL     1      33.704 -17.353 -25.162  0.00  0.00    +0.002 C 
ATOM     31  C   UNL     1      33.063 -18.574 -25.373  0.00  0.00    -0.002 C 
ATOM     32  C   UNL     1      33.318 -16.228 -25.891  0.00  0.00    -0.002 C 
ATOM     33  C   UNL     1      32.037 -18.669 -26.312  0.00  0.00    -0.000 C 
ATOM     34  C   UNL     1      32.292 -16.323 -26.831  0.00  0.00    -0.000 C 
ATOM     35  C   UNL     1      31.651 -17.544 -27.041  0.00  0.00    -0.000 C 
ENDBRANCH  29  30
BRANCH  29  36
ATOM     36  O   UNL     1      34.568 -16.129 -23.295  0.00  0.00    -0.382 OA
ATOM     37  H   UNL     1      34.093 -16.424 -22.503  0.00  0.00    +0.211 HD
ENDBRANCH  29  36
ENDBRANCH  23  29
ENDBRANCH  21  24
ENDBRANCH   1  21
TORSDOF 7
ENDMDL
MODEL 3
REMARK VINA RESULT:     -12.1      1.965     12.258
REMARK  Name = 44472635
REMARK  7 active torsions:
REMARK  status: ('A' for Active; 'I' for Inactive)
REMARK    1  A    between atoms: C_1  and  C_21
REMARK    2  A    between atoms: C_4  and  N_8
REMARK    3  A    between atoms: C_9  and  C_14
REMARK    4  A    between atoms: C_21  and  C_24
REMARK    5  A    between atoms: C_23  and  C_29
REMARK    6  A    between atoms: C_29  and  C_30
REMARK    7  A    between atoms: C_29  and  O_36
REMARK                            x       y       z     vdW  Elec       q    Type
REMARK                         _______ _______ _______ _____ _____    ______ ____
ROOT
ATOM      1  C   UNL     1      33.747 -21.815 -19.316  0.00  0.00    -0.024 C 
ATOM      2  C   UNL     1      32.804 -20.948 -19.868  0.00  0.00    -0.003 C 
ATOM      3  C   UNL     1      35.092 -21.695 -19.663  0.00  0.00    -0.003 C 
ATOM      4  C   UNL     1      34.553 -19.840 -21.114  0.00  0.00    +0.050 C 
ATOM      5  C   UNL     1      33.207 -19.960 -20.767  0.00  0.00    +0.014 C 
ATOM      6  C   UNL     1      35.496 -20.708 -20.561  0.00  0.00    +0.014 C 
ENDROOT
BRANCH   4   8
ATOM      7  O   UNL     1      33.165 -18.716 -23.537  0.00  0.00    -0.273 OA
ATOM      8  N   UNL     1      34.963 -18.839 -22.025  0.00  0.00    -0.283 N 
ATOM      9  C   UNL     1      34.269 -18.367 -23.130  0.00  0.00    +0.245 C 
ATOM     10  H   UNL     1      35.843 -18.429 -21.855  0.00  0.00    +0.155 HD
BRANCH   9  14
ATOM     11  O   UNL     1      34.239 -18.201 -26.549  0.00  0.00    -0.269 OA
ATOM     12  N   UNL     1      34.146 -16.679 -24.790  0.00  0.00    -0.237 N 
ATOM     13  N   UNL     1      32.825 -14.698 -24.936  0.00  0.00    -0.233 NA
ATOM     14  C   UNL     1      35.045 -17.300 -23.842  0.00  0.00    +0.158 C 
ATOM     15  C   UNL     1      35.423 -16.160 -22.907  0.00  0.00    +0.037 C 
ATOM     16  C   UNL     1      34.219 -15.214 -22.946  0.00  0.00    +0.064 C 
ATOM     17  C   UNL     1      33.651 -15.470 -24.309  0.00  0.00    +0.115 C 
ATOM     18  C   UNL     1      33.822 -17.166 -26.041  0.00  0.00    +0.256 C 
ATOM     19  C   UNL     1      32.871 -16.285 -26.767  0.00  0.00    +0.079 C 
ATOM     20  C   UNL     1      32.454 -15.153 -26.179  0.00  0.00    +0.105 C 
ENDBRANCH   9  14
ENDBRANCH   4   8
BRANCH   1  21
ATOM     21  C   UNL     1      33.316 -22.872 -18.356  0.00  0.00    +0.005 C 
BRANCH  21  24
ATOM     22  N   UNL     1      33.487 -23.712 -16.030  0.00  0.00    +0.388 N 
ATOM     23  C   UNL     1      34.349 -23.488 -14.860  0.00  0.00    -0.030 C 
ATOM     24  C   UNL     1      33.812 -22.608 -16.944  0.00  0.00    -0.057 C 
ATOM     25  C   UNL     1      35.651 -22.916 -15.420  0.00  0.00    -0.021 C 
ATOM     26  C   UNL     1      35.328 -22.514 -16.854  0.00  0.00    -0.023 C 
ATOM     27  H   UNL     1      32.503 -23.681 -15.763  0.00  0.00    -0.084 HD
ATOM     28  H   UNL     1      33.640 -24.626 -16.455  0.00  0.00    -0.084 HD
BRANCH  23  29
ATOM     29  C   UNL     1      34.558 -24.766 -14.060  0.00  0.00    +0.113 C 
BRANCH  29  30
ATOM     30  C   UNL     1      36.022 -25.108 -13.902  0.00  0.00    +0.002 C 
ATOM     31  C   UNL     1      36.637 -25.977 -14.804  0.00  0.00    -0.002 C 
ATOM     32  C   UNL     1      36.759 -24.556 -12.854  0.00  0.00    -0.002 C 
ATOM     33  C   UNL     1      37.988 -26.293 -14.658  0.00  0.00    -0.000 C 
ATOM     34  C   UNL     1      38.109 -24.872 -12.707  0.00  0.00    -0.000 C 
ATOM     35  C   UNL     1      38.724 -25.740 -13.610  0.00  0.00    -0.000 C 
ENDBRANCH  29  30
BRANCH  29  36
ATOM     36  O   UNL     1      33.971 -24.626 -12.766  0.00  0.00    -0.382 OA
ATOM     37  H   UNL     1      34.040 -25.467 -12.287  0.00  0.00    +0.211 HD
ENDBRANCH  29  36
ENDBRANCH  23  29
ENDBRANCH  21  24
ENDBRANCH   1  21
TORSDOF 7
ENDMDL
MODEL 4
REMARK VINA RESULT:     -12.0      2.212     11.552
REMARK  Name = 44472635
REMARK  7 active torsions:
REMARK  status: ('A' for Active; 'I' for Inactive)
REMARK    1  A    between atoms: C_1  and  C_21
REMARK    2  A    between atoms: C_4  and  N_8
REMARK    3  A    between atoms: C_9  and  C_14
REMARK    4  A    between atoms: C_21  and  C_24
REMARK    5  A    between atoms: C_23  and  C_29
REMARK    6  A    between atoms: C_29  and  C_30
REMARK    7  A    between atoms: C_29  and  O_36
REMARK                            x       y       z     vdW  Elec       q    Type
REMARK                         _______ _______ _______ _____ _____    ______ ____
ROOT
ATOM      1  C   UNL     1      33.745 -22.064 -19.304  0.00  0.00    -0.024 C 
ATOM      2  C   UNL     1      32.809 -21.206 -19.883  0.00  0.00    -0.003 C 
ATOM      3  C   UNL     1      35.104 -21.896 -19.572  0.00  0.00    -0.003 C 
ATOM      4  C   UNL     1      34.591 -20.014 -20.997  0.00  0.00    +0.050 C 
ATOM      5  C   UNL     1      33.232 -20.182 -20.730  0.00  0.00    +0.014 C 
ATOM      6  C   UNL     1      35.527 -20.871 -20.418  0.00  0.00    +0.014 C 
ENDROOT
BRANCH   4   8
ATOM      7  O   UNL     1      33.240 -18.762 -23.379  0.00  0.00    -0.273 OA
ATOM      8  N   UNL     1      35.020 -18.974 -21.856  0.00  0.00    -0.283 N 
ATOM      9  C   UNL     1      34.342 -18.443 -22.944  0.00  0.00    +0.245 C 
ATOM     10  H   UNL     1      35.902 -18.583 -21.657  0.00  0.00    +0.155 HD
BRANCH   9  14
ATOM     11  O   UNL     1      34.438 -18.181 -26.355  0.00  0.00    -0.269 OA
ATOM     12  N   UNL     1      34.269 -16.709 -24.560  0.00  0.00    -0.237 N 
ATOM     13  N   UNL     1      32.941 -14.734 -24.699  0.00  0.00    -0.233 NA
ATOM     14  C   UNL     1      35.137 -17.352 -23.596  0.00  0.00    +0.158 C 
ATOM     15  C   UNL     1      35.471 -16.236 -22.616  0.00  0.00    +0.037 C 
ATOM     16  C   UNL     1      34.263 -15.297 -22.674  0.00  0.00    +0.064 C 
ATOM     17  C   UNL     1      33.748 -15.518 -24.063  0.00  0.00    +0.115 C 
ATOM     18  C   UNL     1      33.996 -17.163 -25.835  0.00  0.00    +0.256 C 
ATOM     19  C   UNL     1      33.066 -16.268 -26.570  0.00  0.00    +0.079 C 
ATOM     20  C   UNL     1      32.619 -15.156 -25.967  0.00  0.00    +0.105 C 
ENDBRANCH   9  14
ENDBRANCH   4   8
BRANCH   1  21
ATOM     21  C   UNL     1      33.293 -23.161 -18.400  0.00  0.00    +0.005 C 
BRANCH  21  24
ATOM     22  N   UNL     1      32.407 -22.972 -16.093  0.00  0.00    +0.388 N 
ATOM     23  C   UNL     1      32.933 -23.057 -14.722  0.00  0.00    -0.030 C 
ATOM     24  C   UNL     1      33.603 -22.872 -16.941  0.00  0.00    -0.057 C 
ATOM     25  C   UNL     1      34.230 -23.858 -14.835  0.00  0.00    -0.021 C 
ATOM     26  C   UNL     1      34.557 -23.885 -16.323  0.00  0.00    -0.023 C 
ATOM     27  H   UNL     1      31.818 -22.147 -16.202  0.00  0.00    -0.084 HD
ATOM     28  H   UNL     1      31.825 -23.774 -16.335  0.00  0.00    -0.084 HD
BRANCH  23  29
ATOM     29  C   UNL     1      31.927 -23.688 -13.769  0.00  0.00    +0.113 C 
BRANCH  29  30
ATOM     30  C   UNL     1      30.572 -23.879 -14.413  0.00  0.00    +0.002 C 
ATOM     31  C   UNL     1      29.871 -22.777 -14.903  0.00  0.00    -0.002 C 
ATOM     32  C   UNL     1      30.024 -25.157 -14.517  0.00  0.00    -0.002 C 
ATOM     33  C   UNL     1      28.621 -22.953 -15.496  0.00  0.00    -0.000 C 
ATOM     34  C   UNL     1      28.773 -25.334 -15.110  0.00  0.00    -0.000 C 
ATOM     35  C   UNL     1      28.072 -24.231 -15.600  0.00  0.00    -0.000 C 
ENDBRANCH  29  30
BRANCH  29  36
ATOM     36  O   UNL     1      32.413 -24.954 -13.324  0.00  0.00    -0.382 OA
ATOM     37  H   UNL     1      32.875 -25.397 -14.053  0.00  0.00    +0.211 HD
ENDBRANCH  29  36
ENDBRANCH  23  29
ENDBRANCH  21  24
ENDBRANCH   1  21
TORSDOF 7
ENDMDL
MODEL 5
REMARK VINA RESULT:     -11.7      5.026     12.302
REMARK  Name = 44472635
REMARK  7 active torsions:
REMARK  status: ('A' for Active; 'I' for Inactive)
REMARK    1  A    between atoms: C_1  and  C_21
REMARK    2  A    between atoms: C_4  and  N_8
REMARK    3  A    between atoms: C_9  and  C_14
REMARK    4  A    between atoms: C_21  and  C_24
REMARK    5  A    between atoms: C_23  and  C_29
REMARK    6  A    between atoms: C_29  and  C_30
REMARK    7  A    between atoms: C_29  and  O_36
REMARK                            x       y       z     vdW  Elec       q    Type
REMARK                         _______ _______ _______ _____ _____    ______ ____
ROOT
ATOM      1  C   UNL     1      34.426 -16.112 -23.574  0.00  0.00    -0.024 C 
ATOM      2  C   UNL     1      34.575 -15.229 -22.504  0.00  0.00    -0.003 C 
ATOM      3  C   UNL     1      33.710 -15.721 -24.706  0.00  0.00    -0.003 C 
ATOM      4  C   UNL     1      33.293 -13.565 -23.699  0.00  0.00    +0.050 C 
ATOM      5  C   UNL     1      34.008 -13.956 -22.567  0.00  0.00    +0.014 C 
ATOM      6  C   UNL     1      33.144 -14.448 -24.769  0.00  0.00    +0.014 C 
ENDROOT
BRANCH   4   8
ATOM      7  O   UNL     1      34.534 -10.905 -24.366  0.00  0.00    -0.273 OA
ATOM      8  N   UNL     1      32.719 -12.274 -23.763  0.00  0.00    -0.283 N 
ATOM      9  C   UNL     1      33.354 -11.081 -24.078  0.00  0.00    +0.245 C 
ATOM     10  H   UNL     1      31.756 -12.215 -23.560  0.00  0.00    +0.155 HD
BRANCH   9  14
ATOM     11  O   UNL     1      30.864 -10.993 -21.732  0.00  0.00    -0.269 OA
ATOM     12  N   UNL     1      32.347  -9.462 -22.668  0.00  0.00    -0.237 N 
ATOM     13  N   UNL     1      33.284  -7.693 -21.372  0.00  0.00    -0.233 NA
ATOM     14  C   UNL     1      32.395  -9.930 -24.037  0.00  0.00    +0.158 C 
ATOM     15  C   UNL     1      32.924  -8.728 -24.807  0.00  0.00    +0.037 C 
ATOM     16  C   UNL     1      33.778  -7.964 -23.791  0.00  0.00    +0.064 C 
ATOM     17  C   UNL     1      33.131  -8.326 -22.488  0.00  0.00    +0.115 C 
ATOM     18  C   UNL     1      31.601 -10.017 -21.647  0.00  0.00    +0.256 C 
ATOM     19  C   UNL     1      31.773  -9.295 -20.360  0.00  0.00    +0.079 C 
ATOM     20  C   UNL     1      32.578  -8.222 -20.317  0.00  0.00    +0.105 C 
ENDBRANCH   9  14
ENDBRANCH   4   8
BRANCH   1  21
ATOM     21  C   UNL     1      35.029 -17.474 -23.507  0.00  0.00    +0.005 C 
BRANCH  21  24
ATOM     22  N   UNL     1      33.981 -18.988 -21.847  0.00  0.00    +0.388 N 
ATOM     23  C   UNL     1      34.382 -19.689 -20.618  0.00  0.00    -0.030 C 
ATOM     24  C   UNL     1      35.062 -18.022 -22.090  0.00  0.00    -0.057 C 
ATOM     25  C   UNL     1      35.906 -19.789 -20.688  0.00  0.00    -0.021 C 
ATOM     26  C   UNL     1      36.321 -18.823 -21.791  0.00  0.00    -0.023 C 
ATOM     27  H   UNL     1      33.092 -18.507 -21.713  0.00  0.00    -0.084 HD
ATOM     28  H   UNL     1      33.847 -19.626 -22.631  0.00  0.00    -0.084 HD
BRANCH  23  29
ATOM     29  C   UNL     1      33.703 -21.046 -20.494  0.00  0.00    +0.113 C 
BRANCH  29  30
ATOM     30  C   UNL     1      34.023 -21.727 -19.183  0.00  0.00    +0.002 C 
ATOM     31  C   UNL     1      33.028 -22.424 -18.497  0.00  0.00    -0.002 C 
ATOM     32  C   UNL     1      35.314 -21.658 -18.658  0.00  0.00    -0.002 C 
ATOM     33  C   UNL     1      33.324 -23.052 -17.288  0.00  0.00    -0.000 C 
ATOM     34  C   UNL     1      35.610 -22.285 -17.448  0.00  0.00    -0.000 C 
ATOM     35  C   UNL     1      34.614 -22.983 -16.763  0.00  0.00    -0.000 C 
ENDBRANCH  29  30
BRANCH  29  36
ATOM     36  O   UNL     1      32.289 -20.888 -20.604  0.00  0.00    -0.382 OA
ATOM     37  H   UNL     1      32.047 -20.779 -21.537  0.00  0.00    +0.211 HD
ENDBRANCH  29  36
ENDBRANCH  23  29
ENDBRANCH  21  24
ENDBRANCH   1  21
TORSDOF 7
ENDMDL
MODEL 6
REMARK VINA RESULT:     -11.4      3.333     10.718
REMARK  Name = 44472635
REMARK  7 active torsions:
REMARK  status: ('A' for Active; 'I' for Inactive)
REMARK    1  A    between atoms: C_1  and  C_21
REMARK    2  A    between atoms: C_4  and  N_8
REMARK    3  A    between atoms: C_9  and  C_14
REMARK    4  A    between atoms: C_21  and  C_24
REMARK    5  A    between atoms: C_23  and  C_29
REMARK    6  A    between atoms: C_29  and  C_30
REMARK    7  A    between atoms: C_29  and  O_36
REMARK                            x       y       z     vdW  Elec       q    Type
REMARK                         _______ _______ _______ _____ _____    ______ ____
ROOT
ATOM      1  C   UNL     1      33.865 -22.632 -17.954  0.00  0.00    -0.024 C 
ATOM      2  C   UNL     1      32.934 -22.104 -18.849  0.00  0.00    -0.003 C 
ATOM      3  C   UNL     1      35.219 -22.329 -18.098  0.00  0.00    -0.003 C 
ATOM      4  C   UNL     1      34.711 -20.968 -20.028  0.00  0.00    +0.050 C 
ATOM      5  C   UNL     1      33.357 -21.272 -19.886  0.00  0.00    +0.014 C 
ATOM      6  C   UNL     1      35.642 -21.496 -19.133  0.00  0.00    +0.014 C 
ENDROOT
BRANCH   4   8
ATOM      7  O   UNL     1      33.123 -19.420 -22.065  0.00  0.00    -0.273 OA
ATOM      8  N   UNL     1      35.141 -20.124 -21.079  0.00  0.00    -0.283 N 
ATOM      9  C   UNL     1      34.349 -19.438 -21.989  0.00  0.00    +0.245 C 
ATOM     10  H   UNL     1      36.114 -20.011 -21.176  0.00  0.00    +0.155 HD
BRANCH   9  14
ATOM     11  O   UNL     1      34.285 -20.164 -25.333  0.00  0.00    -0.269 OA
ATOM     12  N   UNL     1      34.320 -18.234 -24.032  0.00  0.00    -0.237 N 
ATOM     13  N   UNL     1      33.138 -16.272 -24.694  0.00  0.00    -0.233 NA
ATOM     14  C   UNL     1      35.187 -18.649 -22.950  0.00  0.00    +0.158 C 
ATOM     15  C   UNL     1      35.655 -17.335 -22.341  0.00  0.00    +0.037 C 
ATOM     16  C   UNL     1      34.519 -16.350 -22.631  0.00  0.00    +0.064 C 
ATOM     17  C   UNL     1      33.916 -16.910 -23.884  0.00  0.00    +0.115 C 
ATOM     18  C   UNL     1      33.948 -19.006 -25.115  0.00  0.00    +0.256 C 
ATOM     19  C   UNL     1      33.050 -18.279 -26.049  0.00  0.00    +0.079 C 
ATOM     20  C   UNL     1      32.720 -17.007 -25.778  0.00  0.00    +0.105 C 
ENDBRANCH   9  14
ENDBRANCH   4   8
BRANCH   1  21
ATOM     21  C   UNL     1      33.414 -23.523 -16.847  0.00  0.00    +0.005 C 
BRANCH  21  24
ATOM     22  N   UNL     1      30.968 -23.315 -16.500  0.00  0.00    +0.388 N 
ATOM     23  C   UNL     1      30.058 -22.966 -15.399  0.00  0.00    -0.030 C 
ATOM     24  C   UNL     1      32.296 -22.903 -16.025  0.00  0.00    -0.057 C 
ATOM     25  C   UNL     1      30.857 -23.213 -14.119  0.00  0.00    -0.021 C 
ATOM     26  C   UNL     1      32.305 -23.356 -14.572  0.00  0.00    -0.023 C 
ATOM     27  H   UNL     1      30.716 -22.809 -17.349  0.00  0.00    -0.084 HD
ATOM     28  H   UNL     1      30.930 -24.307 -16.734  0.00  0.00    -0.084 HD
BRANCH  23  29
ATOM     29  C   UNL     1      28.767 -23.769 -15.457  0.00  0.00    +0.113 C 
BRANCH  29  30
ATOM     30  C   UNL     1      27.654 -23.014 -16.148  0.00  0.00    +0.002 C 
ATOM     31  C   UNL     1      26.688 -22.348 -15.393  0.00  0.00    -0.002 C 
ATOM     32  C   UNL     1      27.593 -22.983 -17.541  0.00  0.00    -0.002 C 
ATOM     33  C   UNL     1      25.662 -21.653 -16.031  0.00  0.00    -0.000 C 
ATOM     34  C   UNL     1      26.567 -22.288 -18.180  0.00  0.00    -0.000 C 
ATOM     35  C   UNL     1      25.601 -21.622 -17.424  0.00  0.00    -0.000 C 
ENDBRANCH  29  30
BRANCH  29  36
ATOM     36  O   UNL     1      28.994 -24.998 -16.147  0.00  0.00    -0.382 OA
ATOM     37  H   UNL     1      29.821 -24.937 -16.651  0.00  0.00    +0.211 HD
ENDBRANCH  29  36
ENDBRANCH  23  29
ENDBRANCH  21  24
ENDBRANCH   1  21
TORSDOF 7
ENDMDL
MODEL 7
REMARK VINA RESULT:     -11.4      5.190     13.084
REMARK  Name = 44472635
REMARK  7 active torsions:
REMARK  status: ('A' for Active; 'I' for Inactive)
REMARK    1  A    between atoms: C_1  and  C_21
REMARK    2  A    between atoms: C_4  and  N_8
REMARK    3  A    between atoms: C_9  and  C_14
REMARK    4  A    between atoms: C_21  and  C_24
REMARK    5  A    between atoms: C_23  and  C_29
REMARK    6  A    between atoms: C_29  and  C_30
REMARK    7  A    between atoms: C_29  and  O_36
REMARK                            x       y       z     vdW  Elec       q    Type
REMARK                         _______ _______ _______ _____ _____    ______ ____
ROOT
ATOM      1  C   UNL     1      33.348 -15.122 -24.741  0.00  0.00    -0.024 C 
ATOM      2  C   UNL     1      33.818 -14.718 -23.491  0.00  0.00    -0.003 C 
ATOM      3  C   UNL     1      33.147 -14.178 -25.748  0.00  0.00    -0.003 C 
ATOM      4  C   UNL     1      33.887 -12.428 -24.256  0.00  0.00    +0.050 C 
ATOM      5  C   UNL     1      34.087 -13.371 -23.248  0.00  0.00    +0.014 C 
ATOM      6  C   UNL     1      33.417 -12.831 -25.506  0.00  0.00    +0.014 C 
ENDROOT
BRANCH   4   8
ATOM      7  O   UNL     1      32.055 -10.186 -23.428  0.00  0.00    -0.273 OA
ATOM      8  N   UNL     1      34.160 -11.061 -24.011  0.00  0.00    -0.283 N 
ATOM      9  C   UNL     1      33.261 -10.075 -23.631  0.00  0.00    +0.245 C 
ATOM     10  H   UNL     1      35.097 -10.778 -24.123  0.00  0.00    +0.155 HD
BRANCH   9  14
ATOM     11  O   UNL     1      35.915  -9.253 -25.628  0.00  0.00    -0.269 OA
ATOM     12  N   UNL     1      34.042  -8.158 -24.787  0.00  0.00    -0.237 N 
ATOM     13  N   UNL     1      32.892  -6.507 -26.068  0.00  0.00    -0.233 NA
ATOM     14  C   UNL     1      33.946  -8.751 -23.470  0.00  0.00    +0.158 C 
ATOM     15  C   UNL     1      33.087  -7.763 -22.694  0.00  0.00    +0.037 C 
ATOM     16  C   UNL     1      32.206  -7.100 -23.756  0.00  0.00    +0.064 C 
ATOM     17  C   UNL     1      33.054  -7.197 -24.987  0.00  0.00    +0.115 C 
ATOM     18  C   UNL     1      34.998  -8.447 -25.739  0.00  0.00    +0.256 C 
ATOM     19  C   UNL     1      34.816  -7.660 -26.986  0.00  0.00    +0.079 C 
ATOM     20  C   UNL     1      33.808  -6.778 -27.058  0.00  0.00    +0.105 C 
ENDBRANCH   9  14
ENDBRANCH   4   8
BRANCH   1  21
ATOM     21  C   UNL     1      33.058 -16.562 -25.000  0.00  0.00    +0.005 C 
BRANCH  21  24
ATOM     22  N   UNL     1      34.766 -17.194 -23.318  0.00  0.00    +0.388 N 
ATOM     23  C   UNL     1      35.603 -18.365 -23.014  0.00  0.00    -0.030 C 
ATOM     24  C   UNL     1      34.239 -17.458 -24.664  0.00  0.00    -0.057 C 
ATOM     25  C   UNL     1      34.893 -19.551 -23.668  0.00  0.00    -0.021 C 
ATOM     26  C   UNL     1      33.869 -18.934 -24.613  0.00  0.00    -0.023 C 
ATOM     27  H   UNL     1      35.325 -16.341 -23.311  0.00  0.00    -0.084 HD
ATOM     28  H   UNL     1      34.026 -17.058 -22.630  0.00  0.00    -0.084 HD
BRANCH  23  29
ATOM     29  C   UNL     1      35.800 -18.544 -21.515  0.00  0.00    +0.113 C 
BRANCH  29  30
ATOM     30  C   UNL     1      34.840 -19.554 -20.929  0.00  0.00    +0.002 C 
ATOM     31  C   UNL     1      33.464 -19.374 -21.073  0.00  0.00    -0.002 C 
ATOM     32  C   UNL     1      35.329 -20.665 -20.243  0.00  0.00    -0.002 C 
ATOM     33  C   UNL     1      32.578 -20.305 -20.532  0.00  0.00    -0.000 C 
ATOM     34  C   UNL     1      34.444 -21.597 -19.701  0.00  0.00    -0.000 C 
ATOM     35  C   UNL     1      33.068 -21.416 -19.846  0.00  0.00    -0.000 C 
ENDBRANCH  29  30
BRANCH  29  36
ATOM     36  O   UNL     1      37.138 -18.967 -21.253  0.00  0.00    -0.382 OA
ATOM     37  H   UNL     1      37.760 -18.331 -21.639  0.00  0.00    +0.211 HD
ENDBRANCH  29  36
ENDBRANCH  23  29
ENDBRANCH  21  24
ENDBRANCH   1  21
TORSDOF 7
ENDMDL
MODEL 8
REMARK VINA RESULT:     -11.3      2.943     12.092
REMARK  Name = 44472635
REMARK  7 active torsions:
REMARK  status: ('A' for Active; 'I' for Inactive)
REMARK    1  A    between atoms: C_1  and  C_21
REMARK    2  A    between atoms: C_4  and  N_8
REMARK    3  A    between atoms: C_9  and  C_14
REMARK    4  A    between atoms: C_21  and  C_24
REMARK    5  A    between atoms: C_23  and  C_29
REMARK    6  A    between atoms: C_29  and  C_30
REMARK    7  A    between atoms: C_29  and  O_36
REMARK                            x       y       z     vdW  Elec       q    Type
REMARK                         _______ _______ _______ _____ _____    ______ ____
ROOT
ATOM      1  C   UNL     1      35.394 -18.562 -22.700  0.00  0.00    -0.024 C 
ATOM      2  C   UNL     1      34.586 -18.819 -23.808  0.00  0.00    -0.003 C 
ATOM      3  C   UNL     1      35.498 -17.263 -22.200  0.00  0.00    -0.003 C 
ATOM      4  C   UNL     1      33.986 -16.481 -23.914  0.00  0.00    +0.050 C 
ATOM      5  C   UNL     1      33.882 -17.780 -24.415  0.00  0.00    +0.014 C 
ATOM      6  C   UNL     1      34.794 -16.224 -22.806  0.00  0.00    +0.014 C 
ENDROOT
BRANCH   4   8
ATOM      7  O   UNL     1      33.890 -15.603 -26.792  0.00  0.00    -0.273 OA
ATOM      8  N   UNL     1      33.271 -15.426 -24.529  0.00  0.00    -0.283 N 
ATOM      9  C   UNL     1      33.274 -15.073 -25.871  0.00  0.00    +0.245 C 
ATOM     10  H   UNL     1      32.707 -14.879 -23.935  0.00  0.00    +0.155 HD
BRANCH   9  14
ATOM     11  O   UNL     1      32.423 -12.975 -23.305  0.00  0.00    -0.269 OA
ATOM     12  N   UNL     1      33.029 -12.739 -25.539  0.00  0.00    -0.237 N 
ATOM     13  N   UNL     1      34.344 -10.891 -26.277  0.00  0.00    -0.233 NA
ATOM     14  C   UNL     1      32.383 -13.895 -26.122  0.00  0.00    +0.158 C 
ATOM     15  C   UNL     1      32.306 -13.553 -27.604  0.00  0.00    +0.037 C 
ATOM     16  C   UNL     1      33.494 -12.618 -27.846  0.00  0.00    +0.064 C 
ATOM     17  C   UNL     1      33.679 -11.975 -26.505  0.00  0.00    +0.115 C 
ATOM     18  C   UNL     1      32.998 -12.377 -24.207  0.00  0.00    +0.256 C 
ATOM     19  C   UNL     1      33.763 -11.132 -23.937  0.00  0.00    +0.079 C 
ATOM     20  C   UNL     1      34.362 -10.502 -24.958  0.00  0.00    +0.105 C 
ENDBRANCH   9  14
ENDBRANCH   4   8
BRANCH   1  21
ATOM     21  C   UNL     1      36.149 -19.673 -22.053  0.00  0.00    +0.005 C 
BRANCH  21  24
ATOM     22  N   UNL     1      34.462 -20.777 -20.610  0.00  0.00    +0.388 N 
ATOM     23  C   UNL     1      34.374 -21.258 -19.223  0.00  0.00    -0.030 C 
ATOM     24  C   UNL     1      35.674 -19.945 -20.635  0.00  0.00    -0.057 C 
ATOM     25  C   UNL     1      35.820 -21.466 -18.773  0.00  0.00    -0.021 C 
ATOM     26  C   UNL     1      36.671 -20.754 -19.818  0.00  0.00    -0.023 C 
ATOM     27  H   UNL     1      33.641 -20.223 -20.852  0.00  0.00    -0.084 HD
ATOM     28  H   UNL     1      34.502 -21.541 -21.283  0.00  0.00    -0.084 HD
BRANCH  23  29
ATOM     29  C   UNL     1      33.531 -22.520 -19.116  0.00  0.00    +0.113 C 
BRANCH  29  30
ATOM     30  C   UNL     1      33.143 -22.829 -17.687  0.00  0.00    +0.002 C 
ATOM     31  C   UNL     1      34.129 -23.108 -16.741  0.00  0.00    -0.002 C 
ATOM     32  C   UNL     1      31.799 -22.836 -17.316  0.00  0.00    -0.002 C 
ATOM     33  C   UNL     1      33.771 -23.393 -15.424  0.00  0.00    -0.000 C 
ATOM     34  C   UNL     1      31.440 -23.122 -15.999  0.00  0.00    -0.000 C 
ATOM     35  C   UNL     1      32.426 -23.399 -15.052  0.00  0.00    -0.000 C 
ENDBRANCH  29  30
BRANCH  29  36
ATOM     36  O   UNL     1      32.347 -22.377 -19.899  0.00  0.00    -0.382 OA
ATOM     37  H   UNL     1      32.080 -23.243 -20.244  0.00  0.00    +0.211 HD
ENDBRANCH  29  36
ENDBRANCH  23  29
ENDBRANCH  21  24
ENDBRANCH   1  21
TORSDOF 7
ENDMDL
MODEL 9
REMARK VINA RESULT:     -11.0      3.877     12.630
REMARK  Name = 44472635
REMARK  7 active torsions:
REMARK  status: ('A' for Active; 'I' for Inactive)
REMARK    1  A    between atoms: C_1  and  C_21
REMARK    2  A    between atoms: C_4  and  N_8
REMARK    3  A    between atoms: C_9  and  C_14
REMARK    4  A    between atoms: C_21  and  C_24
REMARK    5  A    between atoms: C_23  and  C_29
REMARK    6  A    between atoms: C_29  and  C_30
REMARK    7  A    between atoms: C_29  and  O_36
REMARK                            x       y       z     vdW  Elec       q    Type
REMARK                         _______ _______ _______ _____ _____    ______ ____
ROOT
ATOM      1  C   UNL     1      34.383 -17.894 -23.776  0.00  0.00    -0.024 C 
ATOM      2  C   UNL     1      33.523 -17.768 -24.866  0.00  0.00    -0.003 C 
ATOM      3  C   UNL     1      34.828 -16.755 -23.103  0.00  0.00    -0.003 C 
ATOM      4  C   UNL     1      33.551 -15.365 -24.611  0.00  0.00    +0.050 C 
ATOM      5  C   UNL     1      33.107 -16.504 -25.284  0.00  0.00    +0.014 C 
ATOM      6  C   UNL     1      34.412 -15.492 -23.520  0.00  0.00    +0.014 C 
ENDROOT
BRANCH   4   8
ATOM      7  O   UNL     1      33.958 -12.660 -23.354  0.00  0.00    -0.273 OA
ATOM      8  N   UNL     1      33.129 -14.083 -25.034  0.00  0.00    -0.283 N 
ATOM      9  C   UNL     1      33.351 -12.868 -24.400  0.00  0.00    +0.245 C 
ATOM     10  H   UNL     1      32.618 -14.049 -25.875  0.00  0.00    +0.155 HD
BRANCH   9  14
ATOM     11  O   UNL     1      32.537  -9.945 -22.817  0.00  0.00    -0.269 OA
ATOM     12  N   UNL     1      33.497 -10.545 -24.851  0.00  0.00    -0.237 N 
ATOM     13  N   UNL     1      35.225  -9.232 -25.839  0.00  0.00    -0.233 NA
ATOM     14  C   UNL     1      32.740 -11.737 -25.170  0.00  0.00    +0.158 C 
ATOM     15  C   UNL     1      32.946 -11.900 -26.670  0.00  0.00    +0.037 C 
ATOM     16  C   UNL     1      34.309 -11.260 -26.944  0.00  0.00    +0.064 C 
ATOM     17  C   UNL     1      34.412 -10.237 -25.854  0.00  0.00    +0.115 C 
ATOM     18  C   UNL     1      33.338  -9.760 -23.726  0.00  0.00    +0.256 C 
ATOM     19  C   UNL     1      34.272  -8.605 -23.701  0.00  0.00    +0.079 C 
ATOM     20  C   UNL     1      35.121  -8.433 -24.726  0.00  0.00    +0.105 C 
ENDBRANCH   9  14
ENDBRANCH   4   8
BRANCH   1  21
ATOM     21  C   UNL     1      34.831 -19.245 -23.330  0.00  0.00    +0.005 C 
BRANCH  21  24
ATOM     22  N   UNL     1      34.031 -20.500 -21.348  0.00  0.00    +0.388 N 
ATOM     23  C   UNL     1      34.466 -20.722 -19.960  0.00  0.00    -0.030 C 
ATOM     24  C   UNL     1      34.854 -19.376 -21.816  0.00  0.00    -0.057 C 
ATOM     25  C   UNL     1      35.965 -20.422 -19.953  0.00  0.00    -0.021 C 
ATOM     26  C   UNL     1      36.236 -19.701 -21.268  0.00  0.00    -0.023 C 
ATOM     27  H   UNL     1      33.040 -20.259 -21.380  0.00  0.00    -0.084 HD
ATOM     28  H   UNL     1      34.143 -21.332 -21.927  0.00  0.00    -0.084 HD
BRANCH  23  29
ATOM     29  C   UNL     1      34.140 -22.131 -19.485  0.00  0.00    +0.113 C 
BRANCH  29  30
ATOM     30  C   UNL     1      34.597 -22.375 -18.065  0.00  0.00    +0.002 C 
ATOM     31  C   UNL     1      33.735 -22.978 -17.148  0.00  0.00    -0.002 C 
ATOM     32  C   UNL     1      35.880 -21.995 -17.670  0.00  0.00    -0.002 C 
ATOM     33  C   UNL     1      34.157 -23.202 -15.838  0.00  0.00    -0.000 C 
ATOM     34  C   UNL     1      36.301 -22.218 -16.359  0.00  0.00    -0.000 C 
ATOM     35  C   UNL     1      35.440 -22.822 -15.443  0.00  0.00    -0.000 C 
ENDBRANCH  29  30
BRANCH  29  36
ATOM     36  O   UNL     1      32.733 -22.354 -19.567  0.00  0.00    -0.382 OA
ATOM     37  H   UNL     1      32.516 -22.741 -20.429  0.00  0.00    +0.211 HD
ENDBRANCH  29  36
ENDBRANCH  23  29
ENDBRANCH  21  24
ENDBRANCH   1  21
TORSDOF 7
ENDMDL
