MODEL 1
REMARK VINA RESULT:     -12.1      0.000      0.000
REMARK  Name = 11978813
REMARK  7 active torsions:
REMARK  status: ('A' for Active; 'I' for Inactive)
REMARK    1  A    between atoms: C_1  and  N_2
REMARK    2  A    between atoms: C_1  and  C_18
REMARK    3  A    between atoms: N_3  and  C_10
REMARK    4  A    between atoms: C_18  and  C_19
REMARK    5  A    between atoms: C_19  and  C_20
REMARK    6  A    between atoms: C_20  and  O_21
REMARK    7  A    between atoms: O_21  and  C_24
REMARK                            x       y       z     vdW  Elec       q    Type
REMARK                         _______ _______ _______ _____ _____    ______ ____
ROOT
ATOM      1  C   UNL     1      36.002 -21.756 -18.649  0.00  0.00    -0.077 C 
ENDROOT
BRANCH   1   2
ATOM      2  N   UNL     1      35.589 -20.591 -19.429  0.00  0.00    +0.389 N 
ATOM      3  N   UNL     1      34.919 -19.142 -21.797  0.00  0.00    -0.312 N 
ATOM      4  C   UNL     1      36.633 -20.219 -20.391  0.00  0.00    -0.055 C 
ATOM      5  C   UNL     1      34.332 -20.863 -20.136  0.00  0.00    -0.055 C 
ATOM      6  C   UNL     1      36.236 -18.965 -21.174  0.00  0.00    +0.068 C 
ATOM      7  C   UNL     1      33.858 -19.631 -20.911  0.00  0.00    +0.068 C 
ATOM      8  H   UNL     1      35.442 -19.813 -18.784  0.00  0.00    -0.080 HD
BRANCH   3  10
ATOM      9  S   UNL     1      34.047 -14.469 -23.528  0.00  0.00    -0.086 S 
ATOM     10  C   UNL     1      34.592 -18.327 -22.887  0.00  0.00    +0.048 C 
ATOM     11  C   UNL     1      34.470 -16.904 -22.769  0.00  0.00    +0.020 C 
ATOM     12  C   UNL     1      34.372 -18.913 -24.152  0.00  0.00    +0.015 C 
ATOM     13  C   UNL     1      34.139 -16.150 -23.899  0.00  0.00    +0.031 C 
ATOM     14  C   UNL     1      34.638 -16.065 -21.617  0.00  0.00    +0.009 C 
ATOM     15  C   UNL     1      34.044 -18.144 -25.260  0.00  0.00    +0.002 C 
ATOM     16  C   UNL     1      33.924 -16.757 -25.152  0.00  0.00    +0.007 C 
ATOM     17  C   UNL     1      34.438 -14.734 -21.891  0.00  0.00    +0.035 C 
ENDBRANCH   3  10
ENDBRANCH   1   2
BRANCH   1  18
ATOM     18  C   UNL     1      36.473 -21.327 -17.260  0.00  0.00    -0.019 C 
BRANCH  18  19
ATOM     19  C   UNL     1      37.243 -22.449 -16.566  0.00  0.00    +0.045 C 
BRANCH  19  20
ATOM     20  C   UNL     1      36.401 -23.128 -15.494  0.00  0.00    +0.205 C 
BRANCH  20  21
ATOM     21  O   UNL     1      35.427 -23.965 -16.103  0.00  0.00    -0.475 OA
BRANCH  21  24
ATOM     22  O   UNL     1      28.605 -22.325 -17.277  0.00  0.00    -0.270 OA
ATOM     23  N   UNL     1      30.817 -22.850 -16.914  0.00  0.00    -0.280 N 
ATOM     24  C   UNL     1      34.139 -23.846 -15.652  0.00  0.00    +0.140 C 
ATOM     25  C   UNL     1      33.145 -23.408 -16.519  0.00  0.00    +0.052 C 
ATOM     26  C   UNL     1      31.834 -23.291 -16.049  0.00  0.00    +0.054 C 
ATOM     27  C   UNL     1      33.843 -24.165 -14.331  0.00  0.00    +0.037 C 
ATOM     28  C   UNL     1      31.521 -23.607 -14.723  0.00  0.00    +0.014 C 
ATOM     29  C   UNL     1      32.531 -24.047 -13.863  0.00  0.00    +0.004 C 
ATOM     30  C   UNL     1      30.138 -23.472 -14.272  0.00  0.00    +0.006 C 
ATOM     31  C   UNL     1      29.499 -22.709 -16.526  0.00  0.00    +0.250 C 
ATOM     32  C   UNL     1      29.185 -23.050 -15.113  0.00  0.00    +0.058 C 
ATOM     33  H   UNL     1      31.056 -22.630 -17.844  0.00  0.00    +0.155 HD
ENDBRANCH  21  24
ENDBRANCH  20  21
ENDBRANCH  19  20
ENDBRANCH  18  19
ENDBRANCH   1  18
TORSDOF 7
ENDMDL
MODEL 2
REMARK VINA RESULT:     -12.1      2.494      5.089
REMARK  Name = 11978813
REMARK  7 active torsions:
REMARK  status: ('A' for Active; 'I' for Inactive)
REMARK    1  A    between atoms: C_1  and  N_2
REMARK    2  A    between atoms: C_1  and  C_18
REMARK    3  A    between atoms: N_3  and  C_10
REMARK    4  A    between atoms: C_18  and  C_19
REMARK    5  A    between atoms: C_19  and  C_20
REMARK    6  A    between atoms: C_20  and  O_21
REMARK    7  A    between atoms: O_21  and  C_24
REMARK                            x       y       z     vdW  Elec       q    Type
REMARK                         _______ _______ _______ _____ _____    ______ ____
ROOT
ATOM      1  C   UNL     1      33.664 -22.862 -18.476  0.00  0.00    -0.077 C 
ENDROOT
BRANCH   1   2
ATOM      2  N   UNL     1      33.843 -21.954 -19.608  0.00  0.00    +0.389 N 
ATOM      3  N   UNL     1      34.224 -19.432 -20.894  0.00  0.00    -0.312 N 
ATOM      4  C   UNL     1      32.751 -20.976 -19.661  0.00  0.00    -0.055 C 
ATOM      5  C   UNL     1      35.132 -21.259 -19.512  0.00  0.00    -0.055 C 
ATOM      6  C   UNL     1      32.896 -20.056 -20.875  0.00  0.00    +0.068 C 
ATOM      7  C   UNL     1      35.357 -20.348 -20.721  0.00  0.00    +0.068 C 
ATOM      8  H   UNL     1      33.831 -22.509 -20.464  0.00  0.00    -0.080 HD
BRANCH   3  10
ATOM      9  S   UNL     1      34.266 -17.215 -25.440  0.00  0.00    -0.086 S 
ATOM     10  C   UNL     1      34.389 -18.256 -21.634  0.00  0.00    +0.048 C 
ATOM     11  C   UNL     1      34.273 -18.228 -23.061  0.00  0.00    +0.020 C 
ATOM     12  C   UNL     1      34.681 -17.049 -20.963  0.00  0.00    +0.015 C 
ATOM     13  C   UNL     1      34.451 -17.017 -23.738  0.00  0.00    +0.031 C 
ATOM     14  C   UNL     1      33.987 -19.296 -23.976  0.00  0.00    +0.009 C 
ATOM     15  C   UNL     1      34.854 -15.858 -21.656  0.00  0.00    +0.002 C 
ATOM     16  C   UNL     1      34.741 -15.823 -23.048  0.00  0.00    +0.007 C 
ATOM     17  C   UNL     1      33.955 -18.884 -25.286  0.00  0.00    +0.035 C 
ENDBRANCH   3  10
ENDBRANCH   1   2
BRANCH   1  18
ATOM     18  C   UNL     1      32.355 -22.555 -17.750  0.00  0.00    -0.019 C 
BRANCH  18  19
ATOM     19  C   UNL     1      32.077 -23.583 -16.654  0.00  0.00    +0.045 C 
BRANCH  19  20
ATOM     20  C   UNL     1      32.829 -23.253 -15.371  0.00  0.00    +0.205 C 
BRANCH  20  21
ATOM     21  O   UNL     1      33.201 -24.455 -14.709  0.00  0.00    -0.475 OA
BRANCH  21  24
ATOM     22  O   UNL     1      40.045 -26.117 -15.718  0.00  0.00    -0.270 OA
ATOM     23  N   UNL     1      37.826 -25.586 -15.408  0.00  0.00    -0.280 N 
ATOM     24  C   UNL     1      34.488 -24.530 -14.241  0.00  0.00    +0.140 C 
ATOM     25  C   UNL     1      35.490 -25.021 -15.068  0.00  0.00    +0.052 C 
ATOM     26  C   UNL     1      36.799 -25.093 -14.583  0.00  0.00    +0.054 C 
ATOM     27  C   UNL     1      34.772 -24.115 -12.945  0.00  0.00    +0.037 C 
ATOM     28  C   UNL     1      37.101 -24.679 -13.281  0.00  0.00    +0.014 C 
ATOM     29  C   UNL     1      36.081 -24.187 -12.461  0.00  0.00    +0.004 C 
ATOM     30  C   UNL     1      38.481 -24.770 -12.813  0.00  0.00    +0.006 C 
ATOM     31  C   UNL     1      39.142 -25.688 -15.002  0.00  0.00    +0.250 C 
ATOM     32  C   UNL     1      39.444 -25.243 -13.615  0.00  0.00    +0.058 C 
ATOM     33  H   UNL     1      37.595 -25.874 -16.321  0.00  0.00    +0.155 HD
ENDBRANCH  21  24
ENDBRANCH  20  21
ENDBRANCH  19  20
ENDBRANCH  18  19
ENDBRANCH   1  18
TORSDOF 7
ENDMDL
MODEL 3
REMARK VINA RESULT:     -11.9      1.127      2.186
REMARK  Name = 11978813
REMARK  7 active torsions:
REMARK  status: ('A' for Active; 'I' for Inactive)
REMARK    1  A    between atoms: C_1  and  N_2
REMARK    2  A    between atoms: C_1  and  C_18
REMARK    3  A    between atoms: N_3  and  C_10
REMARK    4  A    between atoms: C_18  and  C_19
REMARK    5  A    between atoms: C_19  and  C_20
REMARK    6  A    between atoms: C_20  and  O_21
REMARK    7  A    between atoms: O_21  and  C_24
REMARK                            x       y       z     vdW  Elec       q    Type
REMARK                         _______ _______ _______ _____ _____    ______ ____
ROOT
ATOM      1  C   UNL     1      35.220 -22.053 -18.898  0.00  0.00    -0.077 C 
ENDROOT
BRANCH   1   2
ATOM      2  N   UNL     1      35.130 -21.143 -20.040  0.00  0.00    +0.389 N 
ATOM      3  N   UNL     1      34.775 -18.631 -21.351  0.00  0.00    -0.312 N 
ATOM      4  C   UNL     1      33.804 -20.517 -20.096  0.00  0.00    -0.055 C 
ATOM      5  C   UNL     1      36.168 -20.109 -19.958  0.00  0.00    -0.055 C 
ATOM      6  C   UNL     1      33.678 -19.606 -21.320  0.00  0.00    +0.068 C 
ATOM      7  C   UNL     1      36.122 -19.184 -21.176  0.00  0.00    +0.068 C 
ATOM      8  H   UNL     1      35.274 -21.687 -20.891  0.00  0.00    -0.080 HD
BRANCH   3  10
ATOM      9  S   UNL     1      33.870 -16.561 -25.878  0.00  0.00    -0.086 S 
ATOM     10  C   UNL     1      34.596 -17.464 -22.103  0.00  0.00    +0.048 C 
ATOM     11  C   UNL     1      34.338 -17.494 -23.512  0.00  0.00    +0.020 C 
ATOM     12  C   UNL     1      34.672 -16.207 -21.464  0.00  0.00    +0.015 C 
ATOM     13  C   UNL     1      34.170 -16.289 -24.202  0.00  0.00    +0.031 C 
ATOM     14  C   UNL     1      34.213 -18.618 -24.394  0.00  0.00    +0.009 C 
ATOM     15  C   UNL     1      34.502 -15.024 -22.170  0.00  0.00    +0.002 C 
ATOM     16  C   UNL     1      34.249 -15.046 -23.544  0.00  0.00    +0.007 C 
ATOM     17  C   UNL     1      33.961 -18.253 -25.695  0.00  0.00    +0.035 C 
ENDBRANCH   3  10
ENDBRANCH   1   2
BRANCH   1  18
ATOM     18  C   UNL     1      36.333 -21.607 -17.950  0.00  0.00    -0.019 C 
BRANCH  18  19
ATOM     19  C   UNL     1      36.099 -22.137 -16.536  0.00  0.00    +0.045 C 
BRANCH  19  20
ATOM     20  C   UNL     1      34.945 -23.131 -16.493  0.00  0.00    +0.205 C 
BRANCH  20  21
ATOM     21  O   UNL     1      34.334 -23.103 -15.210  0.00  0.00    -0.475 OA
BRANCH  21  24
ATOM     22  O   UNL     1      27.676 -22.845 -17.705  0.00  0.00    -0.270 OA
ATOM     23  N   UNL     1      29.835 -22.915 -16.909  0.00  0.00    -0.280 N 
ATOM     24  C   UNL     1      33.022 -23.496 -15.141  0.00  0.00    +0.140 C 
ATOM     25  C   UNL     1      32.108 -22.999 -16.062  0.00  0.00    +0.052 C 
ATOM     26  C   UNL     1      30.774 -23.408 -15.985  0.00  0.00    +0.054 C 
ATOM     27  C   UNL     1      32.625 -24.388 -14.151  0.00  0.00    +0.037 C 
ATOM     28  C   UNL     1      30.358 -24.304 -14.994  0.00  0.00    +0.014 C 
ATOM     29  C   UNL     1      31.290 -24.795 -14.075  0.00  0.00    +0.004 C 
ATOM     30  C   UNL     1      28.954 -24.705 -14.948  0.00  0.00    +0.006 C 
ATOM     31  C   UNL     1      28.501 -23.270 -16.899  0.00  0.00    +0.250 C 
ATOM     32  C   UNL     1      28.078 -24.224 -15.839  0.00  0.00    +0.058 C 
ATOM     33  H   UNL     1      30.146 -22.284 -17.600  0.00  0.00    +0.155 HD
ENDBRANCH  21  24
ENDBRANCH  20  21
ENDBRANCH  19  20
ENDBRANCH  18  19
ENDBRANCH   1  18
TORSDOF 7
ENDMDL
MODEL 4
REMARK VINA RESULT:     -11.8      4.042      7.233
REMARK  Name = 11978813
REMARK  7 active torsions:
REMARK  status: ('A' for Active; 'I' for Inactive)
REMARK    1  A    between atoms: C_1  and  N_2
REMARK    2  A    between atoms: C_1  and  C_18
REMARK    3  A    between atoms: N_3  and  C_10
REMARK    4  A    between atoms: C_18  and  C_19
REMARK    5  A    between atoms: C_19  and  C_20
REMARK    6  A    between atoms: C_20  and  O_21
REMARK    7  A    between atoms: O_21  and  C_24
REMARK                            x       y       z     vdW  Elec       q    Type
REMARK                         _______ _______ _______ _____ _____    ______ ____
ROOT
ATOM      1  C   UNL     1      32.932 -16.552 -25.941  0.00  0.00    -0.077 C 
ENDROOT
BRANCH   1   2
ATOM      2  N   UNL     1      32.815 -15.184 -25.438  0.00  0.00    +0.389 N 
ATOM      3  N   UNL     1      33.672 -12.504 -24.947  0.00  0.00    -0.312 N 
ATOM      4  C   UNL     1      33.862 -14.910 -24.446  0.00  0.00    -0.055 C 
ATOM      5  C   UNL     1      32.906 -14.220 -26.540  0.00  0.00    -0.055 C 
ATOM      6  C   UNL     1      33.715 -13.499 -23.869  0.00  0.00    +0.068 C 
ATOM      7  C   UNL     1      32.729 -12.786 -26.034  0.00  0.00    +0.068 C 
ATOM      8  H   UNL     1      31.903 -15.087 -24.990  0.00  0.00    -0.080 HD
BRANCH   3  10
ATOM      9  S   UNL     1      32.508  -8.338 -22.323  0.00  0.00    -0.086 S 
ATOM     10  C   UNL     1      33.990 -11.178 -24.631  0.00  0.00    +0.048 C 
ATOM     11  C   UNL     1      33.209 -10.401 -23.716  0.00  0.00    +0.020 C 
ATOM     12  C   UNL     1      35.118 -10.573 -25.229  0.00  0.00    +0.015 C 
ATOM     13  C   UNL     1      33.584  -9.080 -23.447  0.00  0.00    +0.031 C 
ATOM     14  C   UNL     1      32.032 -10.765 -22.981  0.00  0.00    +0.009 C 
ATOM     15  C   UNL     1      35.471  -9.261 -24.946  0.00  0.00    +0.002 C 
ATOM     16  C   UNL     1      34.713  -8.497 -24.055  0.00  0.00    +0.007 C 
ATOM     17  C   UNL     1      31.555  -9.745 -22.194  0.00  0.00    +0.035 C 
ENDBRANCH   3  10
ENDBRANCH   1   2
BRANCH   1  18
ATOM     18  C   UNL     1      34.115 -17.261 -25.283  0.00  0.00    -0.019 C 
BRANCH  18  19
ATOM     19  C   UNL     1      33.691 -18.601 -24.682  0.00  0.00    +0.045 C 
BRANCH  19  20
ATOM     20  C   UNL     1      34.391 -18.867 -23.356  0.00  0.00    +0.205 C 
BRANCH  20  21
ATOM     21  O   UNL     1      33.424 -19.058 -22.331  0.00  0.00    -0.475 OA
BRANCH  21  24
ATOM     22  O   UNL     1      31.596 -23.319 -16.935  0.00  0.00    -0.270 OA
ATOM     23  N   UNL     1      32.170 -21.936 -18.684  0.00  0.00    -0.280 N 
ATOM     24  C   UNL     1      33.778 -19.879 -21.292  0.00  0.00    +0.140 C 
ATOM     25  C   UNL     1      32.788 -20.481 -20.525  0.00  0.00    +0.052 C 
ATOM     26  C   UNL     1      33.160 -21.317 -19.469  0.00  0.00    +0.054 C 
ATOM     27  C   UNL     1      35.124 -20.097 -21.018  0.00  0.00    +0.037 C 
ATOM     28  C   UNL     1      34.509 -21.547 -19.181  0.00  0.00    +0.014 C 
ATOM     29  C   UNL     1      35.494 -20.933 -19.961  0.00  0.00    +0.004 C 
ATOM     30  C   UNL     1      34.855 -22.428 -18.068  0.00  0.00    +0.006 C 
ATOM     31  C   UNL     1      32.456 -22.774 -17.624  0.00  0.00    +0.250 C 
ATOM     32  C   UNL     1      33.897 -23.006 -17.334  0.00  0.00    +0.058 C 
ATOM     33  H   UNL     1      31.225 -21.762 -18.900  0.00  0.00    +0.155 HD
ENDBRANCH  21  24
ENDBRANCH  20  21
ENDBRANCH  19  20
ENDBRANCH  18  19
ENDBRANCH   1  18
TORSDOF 7
ENDMDL
MODEL 5
REMARK VINA RESULT:     -11.4      2.237      4.624
REMARK  Name = 11978813
REMARK  7 active torsions:
REMARK  status: ('A' for Active; 'I' for Inactive)
REMARK    1  A    between atoms: C_1  and  N_2
REMARK    2  A    between atoms: C_1  and  C_18
REMARK    3  A    between atoms: N_3  and  C_10
REMARK    4  A    between atoms: C_18  and  C_19
REMARK    5  A    between atoms: C_19  and  C_20
REMARK    6  A    between atoms: C_20  and  O_21
REMARK    7  A    between atoms: O_21  and  C_24
REMARK                            x       y       z     vdW  Elec       q    Type
REMARK                         _______ _______ _______ _____ _____    ______ ____
ROOT
ATOM      1  C   UNL     1      34.507 -22.258 -18.590  0.00  0.00    -0.077 C 
ENDROOT
BRANCH   1   2
ATOM      2  N   UNL     1      34.478 -21.531 -19.858  0.00  0.00    +0.389 N 
ATOM      3  N   UNL     1      34.487 -19.225 -21.543  0.00  0.00    -0.312 N 
ATOM      4  C   UNL     1      33.303 -20.655 -19.923  0.00  0.00    -0.055 C 
ATOM      5  C   UNL     1      35.702 -20.739 -20.026  0.00  0.00    -0.055 C 
ATOM      6  C   UNL     1      33.230 -19.932 -21.270  0.00  0.00    +0.068 C 
ATOM      7  C   UNL     1      35.710 -20.017 -21.376  0.00  0.00    +0.068 C 
ATOM      8  H   UNL     1      34.422 -22.214 -20.614  0.00  0.00    -0.080 HD
BRANCH   3  10
ATOM      9  S   UNL     1      34.456 -14.227 -22.322  0.00  0.00    -0.086 S 
ATOM     10  C   UNL     1      34.464 -18.172 -22.465  0.00  0.00    +0.048 C 
ATOM     11  C   UNL     1      34.469 -16.799 -22.058  0.00  0.00    +0.020 C 
ATOM     12  C   UNL     1      34.433 -18.460 -23.847  0.00  0.00    +0.015 C 
ATOM     13  C   UNL     1      34.443 -15.797 -23.034  0.00  0.00    +0.031 C 
ATOM     14  C   UNL     1      34.498 -16.237 -20.739  0.00  0.00    +0.009 C 
ATOM     15  C   UNL     1      34.407 -17.448 -24.797  0.00  0.00    +0.002 C 
ATOM     16  C   UNL     1      34.413 -16.107 -24.408  0.00  0.00    +0.007 C 
ATOM     17  C   UNL     1      34.494 -14.863 -20.741  0.00  0.00    +0.035 C 
ENDBRANCH   3  10
ENDBRANCH   1   2
BRANCH   1  18
ATOM     18  C   UNL     1      33.089 -22.626 -18.156  0.00  0.00    -0.019 C 
BRANCH  18  19
ATOM     19  C   UNL     1      33.096 -23.810 -17.191  0.00  0.00    +0.045 C 
BRANCH  19  20
ATOM     20  C   UNL     1      32.675 -23.395 -15.788  0.00  0.00    +0.205 C 
BRANCH  20  21
ATOM     21  O   UNL     1      33.735 -22.690 -15.155  0.00  0.00    -0.475 OA
BRANCH  21  24
ATOM     22  O   UNL     1      40.292 -25.408 -15.643  0.00  0.00    -0.270 OA
ATOM     23  N   UNL     1      38.171 -24.522 -15.502  0.00  0.00    -0.280 N 
ATOM     24  C   UNL     1      34.752 -23.444 -14.629  0.00  0.00    +0.140 C 
ATOM     25  C   UNL     1      35.936 -23.593 -15.341  0.00  0.00    +0.052 C 
ATOM     26  C   UNL     1      36.966 -24.362 -14.795  0.00  0.00    +0.054 C 
ATOM     27  C   UNL     1      34.584 -24.051 -13.389  0.00  0.00    +0.037 C 
ATOM     28  C   UNL     1      36.813 -24.980 -13.549  0.00  0.00    +0.014 C 
ATOM     29  C   UNL     1      35.615 -24.821 -12.845  0.00  0.00    +0.004 C 
ATOM     30  C   UNL     1      37.915 -25.776 -13.014  0.00  0.00    +0.006 C 
ATOM     31  C   UNL     1      39.235 -25.265 -15.031  0.00  0.00    +0.250 C 
ATOM     32  C   UNL     1      39.053 -25.914 -13.704  0.00  0.00    +0.058 C 
ATOM     33  H   UNL     1      38.261 -24.081 -16.379  0.00  0.00    +0.155 HD
ENDBRANCH  21  24
ENDBRANCH  20  21
ENDBRANCH  19  20
ENDBRANCH  18  19
ENDBRANCH   1  18
TORSDOF 7
ENDMDL
MODEL 6
REMARK VINA RESULT:     -11.4      4.413      8.105
REMARK  Name = 11978813
REMARK  7 active torsions:
REMARK  status: ('A' for Active; 'I' for Inactive)
REMARK    1  A    between atoms: C_1  and  N_2
REMARK    2  A    between atoms: C_1  and  C_18
REMARK    3  A    between atoms: N_3  and  C_10
REMARK    4  A    between atoms: C_18  and  C_19
REMARK    5  A    between atoms: C_19  and  C_20
REMARK    6  A    between atoms: C_20  and  O_21
REMARK    7  A    between atoms: O_21  and  C_24
REMARK                            x       y       z     vdW  Elec       q    Type
REMARK                         _______ _______ _______ _____ _____    ______ ____
ROOT
ATOM      1  C   UNL     1      32.454 -15.758 -26.488  0.00  0.00    -0.077 C 
ENDROOT
BRANCH   1   2
ATOM      2  N   UNL     1      33.208 -14.582 -26.057  0.00  0.00    +0.389 N 
ATOM      3  N   UNL     1      33.559 -11.961 -24.976  0.00  0.00    -0.312 N 
ATOM      4  C   UNL     1      32.805 -13.401 -26.829  0.00  0.00    -0.055 C 
ATOM      5  C   UNL     1      33.005 -14.336 -24.624  0.00  0.00    -0.055 C 
ATOM      6  C   UNL     1      33.628 -12.174 -26.427  0.00  0.00    +0.068 C 
ATOM      7  C   UNL     1      33.833 -13.140 -24.148  0.00  0.00    +0.068 C 
ATOM      8  H   UNL     1      34.199 -14.761 -26.222  0.00  0.00    -0.080 HD
BRANCH   3  10
ATOM      9  S   UNL     1      32.233  -8.149 -21.926  0.00  0.00    -0.086 S 
ATOM     10  C   UNL     1      33.852 -10.685 -24.484  0.00  0.00    +0.048 C 
ATOM     11  C   UNL     1      33.019 -10.025 -23.522  0.00  0.00    +0.020 C 
ATOM     12  C   UNL     1      35.006 -10.011 -24.942  0.00  0.00    +0.015 C 
ATOM     13  C   UNL     1      33.372  -8.748 -23.074  0.00  0.00    +0.031 C 
ATOM     14  C   UNL     1      31.807 -10.477 -22.901  0.00  0.00    +0.009 C 
ATOM     15  C   UNL     1      35.335  -8.744 -24.482  0.00  0.00    +0.002 C 
ATOM     16  C   UNL     1      34.528  -8.095 -23.545  0.00  0.00    +0.007 C 
ATOM     17  C   UNL     1      31.283  -9.561 -22.021  0.00  0.00    +0.035 C 
ENDBRANCH   3  10
ENDBRANCH   1   2
BRANCH   1  18
ATOM     18  C   UNL     1      32.700 -16.926 -25.533  0.00  0.00    -0.019 C 
BRANCH  18  19
ATOM     19  C   UNL     1      34.112 -17.485 -25.697  0.00  0.00    +0.045 C 
BRANCH  19  20
ATOM     20  C   UNL     1      34.814 -17.640 -24.354  0.00  0.00    +0.205 C 
BRANCH  20  21
ATOM     21  O   UNL     1      33.856 -17.901 -23.337  0.00  0.00    -0.475 OA
BRANCH  21  24
ATOM     22  O   UNL     1      32.161 -22.624 -18.294  0.00  0.00    -0.270 OA
ATOM     23  N   UNL     1      32.692 -21.092 -19.929  0.00  0.00    -0.280 N 
ATOM     24  C   UNL     1      34.234 -18.760 -22.338  0.00  0.00    +0.140 C 
ATOM     25  C   UNL     1      33.265 -19.481 -21.650  0.00  0.00    +0.052 C 
ATOM     26  C   UNL     1      33.660 -20.355 -20.634  0.00  0.00    +0.054 C 
ATOM     27  C   UNL     1      35.582 -18.899 -22.026  0.00  0.00    +0.037 C 
ATOM     28  C   UNL     1      35.012 -20.506 -20.308  0.00  0.00    +0.014 C 
ATOM     29  C   UNL     1      35.975 -19.774 -21.010  0.00  0.00    +0.004 C 
ATOM     30  C   UNL     1      35.383 -21.430 -19.240  0.00  0.00    +0.006 C 
ATOM     31  C   UNL     1      33.002 -21.976 -18.913  0.00  0.00    +0.250 C 
ATOM     32  C   UNL     1      34.445 -22.122 -18.581  0.00  0.00    +0.058 C 
ATOM     33  H   UNL     1      31.745 -20.973 -20.171  0.00  0.00    +0.155 HD
ENDBRANCH  21  24
ENDBRANCH  20  21
ENDBRANCH  19  20
ENDBRANCH  18  19
ENDBRANCH   1  18
TORSDOF 7
ENDMDL
MODEL 7
REMARK VINA RESULT:     -11.3      6.023     10.566
REMARK  Name = 11978813
REMARK  7 active torsions:
REMARK  status: ('A' for Active; 'I' for Inactive)
REMARK    1  A    between atoms: C_1  and  N_2
REMARK    2  A    between atoms: C_1  and  C_18
REMARK    3  A    between atoms: N_3  and  C_10
REMARK    4  A    between atoms: C_18  and  C_19
REMARK    5  A    between atoms: C_19  and  C_20
REMARK    6  A    between atoms: C_20  and  O_21
REMARK    7  A    between atoms: O_21  and  C_24
REMARK                            x       y       z     vdW  Elec       q    Type
REMARK                         _______ _______ _______ _____ _____    ______ ____
ROOT
ATOM      1  C   UNL     1      32.892 -12.657 -27.748  0.00  0.00    -0.077 C 
ENDROOT
BRANCH   1   2
ATOM      2  N   UNL     1      33.254 -11.788 -26.629  0.00  0.00    +0.389 N 
ATOM      3  N   UNL     1      32.803 -10.284 -24.243  0.00  0.00    -0.312 N 
ATOM      4  C   UNL     1      32.479 -10.542 -26.672  0.00  0.00    -0.055 C 
ATOM      5  C   UNL     1      33.027 -12.473 -25.351  0.00  0.00    -0.055 C 
ATOM      6  C   UNL     1      32.891  -9.600 -25.539  0.00  0.00    +0.068 C 
ATOM      7  C   UNL     1      33.455 -11.596 -24.172  0.00  0.00    +0.068 C 
ATOM      8  H   UNL     1      34.246 -11.562 -26.710  0.00  0.00    -0.080 HD
BRANCH   3  10
ATOM      9  S   UNL     1      30.930  -9.783 -19.571  0.00  0.00    -0.086 S 
ATOM     10  C   UNL     1      32.697  -9.499 -23.090  0.00  0.00    +0.048 C 
ATOM     11  C   UNL     1      31.946  -9.918 -21.944  0.00  0.00    +0.020 C 
ATOM     12  C   UNL     1      33.349  -8.247 -23.040  0.00  0.00    +0.015 C 
ATOM     13  C   UNL     1      31.882  -9.082 -20.824  0.00  0.00    +0.031 C 
ATOM     14  C   UNL     1      31.198 -11.124 -21.733  0.00  0.00    +0.009 C 
ATOM     15  C   UNL     1      33.272  -7.434 -21.917  0.00  0.00    +0.002 C 
ATOM     16  C   UNL     1      32.541  -7.837 -20.797  0.00  0.00    +0.007 C 
ATOM     17  C   UNL     1      30.603 -11.176 -20.496  0.00  0.00    +0.035 C 
ENDBRANCH   3  10
ENDBRANCH   1   2
BRANCH   1  18
ATOM     18  C   UNL     1      33.081 -14.124 -27.365  0.00  0.00    -0.019 C 
BRANCH  18  19
ATOM     19  C   UNL     1      31.813 -14.932 -27.634  0.00  0.00    +0.045 C 
BRANCH  19  20
ATOM     20  C   UNL     1      31.989 -16.397 -27.254  0.00  0.00    +0.205 C 
BRANCH  20  21
ATOM     21  O   UNL     1      33.366 -16.676 -27.037  0.00  0.00    -0.475 OA
BRANCH  21  24
ATOM     22  O   UNL     1      35.113 -16.717 -20.140  0.00  0.00    -0.270 OA
ATOM     23  N   UNL     1      34.549 -16.686 -22.372  0.00  0.00    -0.280 N 
ATOM     24  C   UNL     1      33.685 -17.365 -25.895  0.00  0.00    +0.140 C 
ATOM     25  C   UNL     1      33.953 -16.666 -24.725  0.00  0.00    +0.052 C 
ATOM     26  C   UNL     1      34.275 -17.377 -23.566  0.00  0.00    +0.054 C 
ATOM     27  C   UNL     1      33.735 -18.754 -25.925  0.00  0.00    +0.037 C 
ATOM     28  C   UNL     1      34.331 -18.775 -23.579  0.00  0.00    +0.014 C 
ATOM     29  C   UNL     1      34.058 -19.464 -24.765  0.00  0.00    +0.004 C 
ATOM     30  C   UNL     1      34.671 -19.481 -22.346  0.00  0.00    +0.006 C 
ATOM     31  C   UNL     1      34.874 -17.316 -21.187  0.00  0.00    +0.250 C 
ATOM     32  C   UNL     1      34.928 -18.802 -21.221  0.00  0.00    +0.058 C 
ATOM     33  H   UNL     1      34.506 -15.701 -22.382  0.00  0.00    +0.155 HD
ENDBRANCH  21  24
ENDBRANCH  20  21
ENDBRANCH  19  20
ENDBRANCH  18  19
ENDBRANCH   1  18
TORSDOF 7
ENDMDL
MODEL 8
REMARK VINA RESULT:     -11.2      2.717      4.448
REMARK  Name = 11978813
REMARK  7 active torsions:
REMARK  status: ('A' for Active; 'I' for Inactive)
REMARK    1  A    between atoms: C_1  and  N_2
REMARK    2  A    between atoms: C_1  and  C_18
REMARK    3  A    between atoms: N_3  and  C_10
REMARK    4  A    between atoms: C_18  and  C_19
REMARK    5  A    between atoms: C_19  and  C_20
REMARK    6  A    between atoms: C_20  and  O_21
REMARK    7  A    between atoms: O_21  and  C_24
REMARK                            x       y       z     vdW  Elec       q    Type
REMARK                         _______ _______ _______ _____ _____    ______ ____
ROOT
ATOM      1  C   UNL     1      35.179 -19.702 -20.434  0.00  0.00    -0.077 C 
ENDROOT
BRANCH   1   2
ATOM      2  N   UNL     1      35.093 -19.042 -21.736  0.00  0.00    +0.389 N 
ATOM      3  N   UNL     1      34.050 -17.219 -23.672  0.00  0.00    -0.312 N 
ATOM      4  C   UNL     1      33.781 -19.281 -22.349  0.00  0.00    -0.055 C 
ATOM      5  C   UNL     1      35.325 -17.600 -21.599  0.00  0.00    -0.055 C 
ATOM      6  C   UNL     1      33.699 -18.643 -23.738  0.00  0.00    +0.068 C 
ATOM      7  C   UNL     1      35.294 -16.904 -22.962  0.00  0.00    +0.068 C 
ATOM      8  H   UNL     1      35.815 -19.436 -22.340  0.00  0.00    -0.080 HD
BRANCH   3  10
ATOM      9  S   UNL     1      33.077 -12.510 -25.242  0.00  0.00    -0.086 S 
ATOM     10  C   UNL     1      33.612 -16.385 -24.707  0.00  0.00    +0.048 C 
ATOM     11  C   UNL     1      33.536 -14.961 -24.562  0.00  0.00    +0.020 C 
ATOM     12  C   UNL     1      33.228 -16.952 -25.942  0.00  0.00    +0.015 C 
ATOM     13  C   UNL     1      33.087 -14.188 -25.637  0.00  0.00    +0.031 C 
ATOM     14  C   UNL     1      33.860 -14.140 -23.431  0.00  0.00    +0.009 C 
ATOM     15  C   UNL     1      32.786 -16.163 -26.995  0.00  0.00    +0.002 C 
ATOM     16  C   UNL     1      32.709 -14.775 -26.860  0.00  0.00    +0.007 C 
ATOM     17  C   UNL     1      33.658 -12.801 -23.667  0.00  0.00    +0.035 C 
ENDBRANCH   3  10
ENDBRANCH   1   2
BRANCH   1  18
ATOM     18  C   UNL     1      35.048 -21.216 -20.597  0.00  0.00    -0.019 C 
BRANCH  18  19
ATOM     19  C   UNL     1      34.307 -21.836 -19.414  0.00  0.00    +0.045 C 
BRANCH  19  20
ATOM     20  C   UNL     1      35.213 -21.989 -18.200  0.00  0.00    +0.205 C 
BRANCH  20  21
ATOM     21  O   UNL     1      34.553 -22.751 -17.198  0.00  0.00    -0.475 OA
BRANCH  21  24
ATOM     22  O   UNL     1      34.919 -25.279 -10.558  0.00  0.00    -0.270 OA
ATOM     23  N   UNL     1      34.782 -24.461 -12.706  0.00  0.00    -0.280 N 
ATOM     24  C   UNL     1      35.293 -23.099 -16.097  0.00  0.00    +0.140 C 
ATOM     25  C   UNL     1      34.652 -23.599 -14.970  0.00  0.00    +0.052 C 
ATOM     26  C   UNL     1      35.415 -23.952 -13.854  0.00  0.00    +0.054 C 
ATOM     27  C   UNL     1      36.675 -22.946 -16.124  0.00  0.00    +0.037 C 
ATOM     28  C   UNL     1      36.806 -23.804 -13.865  0.00  0.00    +0.014 C 
ATOM     29  C   UNL     1      37.436 -23.300 -15.007  0.00  0.00    +0.004 C 
ATOM     30  C   UNL     1      37.567 -24.185 -12.677  0.00  0.00    +0.006 C 
ATOM     31  C   UNL     1      35.466 -24.832 -11.564  0.00  0.00    +0.250 C 
ATOM     32  C   UNL     1      36.944 -24.668 -11.595  0.00  0.00    +0.058 C 
ATOM     33  H   UNL     1      33.802 -24.557 -12.716  0.00  0.00    +0.155 HD
ENDBRANCH  21  24
ENDBRANCH  20  21
ENDBRANCH  19  20
ENDBRANCH  18  19
ENDBRANCH   1  18
TORSDOF 7
ENDMDL
MODEL 9
REMARK VINA RESULT:     -11.1      2.298      4.385
REMARK  Name = 11978813
REMARK  7 active torsions:
REMARK  status: ('A' for Active; 'I' for Inactive)
REMARK    1  A    between atoms: C_1  and  N_2
REMARK    2  A    between atoms: C_1  and  C_18
REMARK    3  A    between atoms: N_3  and  C_10
REMARK    4  A    between atoms: C_18  and  C_19
REMARK    5  A    between atoms: C_19  and  C_20
REMARK    6  A    between atoms: C_20  and  O_21
REMARK    7  A    between atoms: O_21  and  C_24
REMARK                            x       y       z     vdW  Elec       q    Type
REMARK                         _______ _______ _______ _____ _____    ______ ____
ROOT
ATOM      1  C   UNL     1      34.942 -19.066 -21.002  0.00  0.00    -0.077 C 
ENDROOT
BRANCH   1   2
ATOM      2  N   UNL     1      34.943 -18.276 -22.232  0.00  0.00    +0.389 N 
ATOM      3  N   UNL     1      33.887 -16.458 -24.165  0.00  0.00    -0.312 N 
ATOM      4  C   UNL     1      33.838 -18.683 -23.107  0.00  0.00    -0.055 C 
ATOM      5  C   UNL     1      34.836 -16.845 -21.925  0.00  0.00    -0.055 C 
ATOM      6  C   UNL     1      33.864 -17.903 -24.424  0.00  0.00    +0.068 C 
ATOM      7  C   UNL     1      34.894 -16.002 -23.201  0.00  0.00    +0.068 C 
ATOM      8  H   UNL     1      35.826 -18.443 -22.716  0.00  0.00    -0.080 HD
BRANCH   3  10
ATOM      9  S   UNL     1      32.902 -11.717 -25.630  0.00  0.00    -0.086 S 
ATOM     10  C   UNL     1      33.466 -15.600 -25.188  0.00  0.00    +0.048 C 
ATOM     11  C   UNL     1      33.370 -14.182 -25.005  0.00  0.00    +0.020 C 
ATOM     12  C   UNL     1      33.121 -16.136 -26.447  0.00  0.00    +0.015 C 
ATOM     13  C   UNL     1      32.942 -13.383 -26.071  0.00  0.00    +0.031 C 
ATOM     14  C   UNL     1      33.655 -13.389 -23.844  0.00  0.00    +0.009 C 
ATOM     15  C   UNL     1      32.698 -15.323 -27.490  0.00  0.00    +0.002 C 
ATOM     16  C   UNL     1      32.602 -13.940 -27.319  0.00  0.00    +0.007 C 
ATOM     17  C   UNL     1      33.444 -12.046 -24.048  0.00  0.00    +0.035 C 
ENDBRANCH   3  10
ENDBRANCH   1   2
BRANCH   1  18
ATOM     18  C   UNL     1      34.222 -20.395 -21.225  0.00  0.00    -0.019 C 
BRANCH  18  19
ATOM     19  C   UNL     1      33.283 -20.717 -20.063  0.00  0.00    +0.045 C 
BRANCH  19  20
ATOM     20  C   UNL     1      33.470 -22.146 -19.570  0.00  0.00    +0.205 C 
BRANCH  20  21
ATOM     21  O   UNL     1      32.418 -22.489 -18.677  0.00  0.00    -0.475 OA
BRANCH  21  24
ATOM     22  O   UNL     1      37.462 -23.735 -13.817  0.00  0.00    -0.270 OA
ATOM     23  N   UNL     1      35.843 -23.328 -15.402  0.00  0.00    -0.280 N 
ATOM     24  C   UNL     1      32.782 -22.881 -17.415  0.00  0.00    +0.140 C 
ATOM     25  C   UNL     1      34.126 -22.902 -17.063  0.00  0.00    +0.052 C 
ATOM     26  C   UNL     1      34.487 -23.302 -15.774  0.00  0.00    +0.054 C 
ATOM     27  C   UNL     1      31.800 -23.254 -16.503  0.00  0.00    +0.037 C 
ATOM     28  C   UNL     1      33.511 -23.681 -14.845  0.00  0.00    +0.014 C 
ATOM     29  C   UNL     1      32.163 -23.654 -15.214  0.00  0.00    +0.004 C 
ATOM     30  C   UNL     1      33.930 -24.093 -13.508  0.00  0.00    +0.006 C 
ATOM     31  C   UNL     1      36.279 -23.711 -14.149  0.00  0.00    +0.250 C 
ATOM     32  C   UNL     1      35.227 -24.109 -13.175  0.00  0.00    +0.058 C 
ATOM     33  H   UNL     1      36.516 -23.060 -16.070  0.00  0.00    +0.155 HD
ENDBRANCH  21  24
ENDBRANCH  20  21
ENDBRANCH  19  20
ENDBRANCH  18  19
ENDBRANCH   1  18
TORSDOF 7
ENDMDL
