MODEL 1
REMARK VINA RESULT:     -12.4      0.000      0.000
REMARK  Name = 11691242
REMARK  5 active torsions:
REMARK  status: ('A' for Active; 'I' for Inactive)
REMARK    1  A    between atoms: N_1  and  C_25
REMARK    2  A    between atoms: C_5  and  N_11
REMARK    3  A    between atoms: N_12  and  C_17
REMARK    4  A    between atoms: C_18  and  O_23
REMARK    5  A    between atoms: C_25  and  C_28
REMARK                            x       y       z     vdW  Elec       q    Type
REMARK                         _______ _______ _______ _____ _____    ______ ____
ROOT
ATOM      1  N   UNL     1      35.964 -22.647 -16.007  0.00  0.00    -0.282 N 
ATOM      2  C   UNL     1      34.902 -22.651 -16.881  0.00  0.00    +0.053 C 
ATOM      3  C   UNL     1      35.294 -21.925 -18.009  0.00  0.00    +0.028 C 
ATOM      4  C   UNL     1      37.013 -21.947 -16.540  0.00  0.00    +0.066 C 
ATOM      5  C   UNL     1      34.380 -21.773 -19.070  0.00  0.00    +0.053 C 
ATOM      6  C   UNL     1      36.629 -21.486 -17.778  0.00  0.00    +0.019 C 
ATOM      7  C   UNL     1      33.636 -23.234 -16.763  0.00  0.00    +0.015 C 
ATOM      8  C   UNL     1      33.110 -22.351 -18.965  0.00  0.00    +0.015 C 
ATOM      9  C   UNL     1      32.745 -23.071 -17.829  0.00  0.00    +0.003 C 
ENDROOT
BRANCH   5  11
ATOM     10  O   UNL     1      32.880 -19.643 -20.530  0.00  0.00    -0.252 OA
ATOM     11  N   UNL     1      34.721 -21.058 -20.219  0.00  0.00    -0.268 N 
ATOM     12  N   UNL     1      34.694 -19.595 -22.005  0.00  0.00    -0.266 N 
ATOM     13  C   UNL     1      33.982 -20.051 -20.885  0.00  0.00    +0.308 C 
ATOM     14  H   UNL     1      35.592 -21.283 -20.620  0.00  0.00    +0.156 HD
ATOM     15  H   UNL     1      35.568 -20.018 -22.163  0.00  0.00    +0.157 HD
BRANCH  12  17
ATOM     16 BR   UNL     1      32.202 -18.498 -26.506  0.00  0.00    -0.049 Br
ATOM     17  C   UNL     1      34.310 -18.599 -22.935  0.00  0.00    +0.086 C 
ATOM     18  C   UNL     1      34.667 -17.277 -22.720  0.00  0.00    +0.152 C 
ATOM     19  C   UNL     1      33.579 -18.975 -24.050  0.00  0.00    +0.024 C 
ATOM     20  C   UNL     1      34.282 -16.307 -23.645  0.00  0.00    +0.039 C 
ATOM     21  C   UNL     1      33.194 -18.005 -24.975  0.00  0.00    +0.036 C 
ATOM     22  C   UNL     1      33.545 -16.670 -24.772  0.00  0.00    +0.010 C 
BRANCH  18  23
ATOM     23  O   UNL     1      35.388 -16.902 -21.626  0.00  0.00    -0.470 OA
ATOM     24  C   UNL     1      34.700 -16.161 -20.620  0.00  0.00    +0.253 C 
ENDBRANCH  18  23
ENDBRANCH  12  17
ENDBRANCH   5  11
BRANCH   1  25
ATOM     25  C   UNL     1      35.986 -23.283 -14.707  0.00  0.00    +0.122 C 
BRANCH  25  28
ATOM     26  N   UNL     1      37.811 -27.157 -14.886  0.00  0.00    -0.230 NA
ATOM     27  N   UNL     1      39.913 -26.176 -14.345  0.00  0.00    -0.343 N 
ATOM     28  C   UNL     1      36.628 -24.643 -14.771  0.00  0.00    +0.002 C 
ATOM     29  C   UNL     1      37.983 -24.773 -14.527  0.00  0.00    +0.031 C 
ATOM     30  C   UNL     1      35.854 -25.749 -15.072  0.00  0.00    +0.018 C 
ATOM     31  C   UNL     1      38.525 -26.046 -14.596  0.00  0.00    +0.125 C 
ATOM     32  C   UNL     1      36.491 -26.979 -15.117  0.00  0.00    +0.100 C 
ATOM     33  H   UNL     1      40.339 -27.062 -14.383  0.00  0.00    +0.144 HD
ATOM     34  H   UNL     1      40.451 -25.379 -14.130  0.00  0.00    +0.144 HD
ENDBRANCH  25  28
ENDBRANCH   1  25
TORSDOF 5
ENDMDL
MODEL 2
REMARK VINA RESULT:     -11.9      1.498      2.049
REMARK  Name = 11691242
REMARK  5 active torsions:
REMARK  status: ('A' for Active; 'I' for Inactive)
REMARK    1  A    between atoms: N_1  and  C_25
REMARK    2  A    between atoms: C_5  and  N_11
REMARK    3  A    between atoms: N_12  and  C_17
REMARK    4  A    between atoms: C_18  and  O_23
REMARK    5  A    between atoms: C_25  and  C_28
REMARK                            x       y       z     vdW  Elec       q    Type
REMARK                         _______ _______ _______ _____ _____    ______ ____
ROOT
ATOM      1  N   UNL     1      36.001 -22.709 -15.840  0.00  0.00    -0.282 N 
ATOM      2  C   UNL     1      35.048 -22.682 -16.833  0.00  0.00    +0.053 C 
ATOM      3  C   UNL     1      35.529 -21.844 -17.841  0.00  0.00    +0.028 C 
ATOM      4  C   UNL     1      37.065 -21.919 -16.184  0.00  0.00    +0.066 C 
ATOM      5  C   UNL     1      34.737 -21.639 -18.988  0.00  0.00    +0.053 C 
ATOM      6  C   UNL     1      36.802 -21.369 -17.418  0.00  0.00    +0.019 C 
ATOM      7  C   UNL     1      33.810 -23.329 -16.915  0.00  0.00    +0.015 C 
ATOM      8  C   UNL     1      33.496 -22.280 -19.084  0.00  0.00    +0.015 C 
ATOM      9  C   UNL     1      33.042 -23.111 -18.063  0.00  0.00    +0.003 C 
ENDROOT
BRANCH   5  11
ATOM     10  O   UNL     1      33.241 -19.600 -20.578  0.00  0.00    -0.252 OA
ATOM     11  N   UNL     1      35.169 -20.812 -20.026  0.00  0.00    -0.268 N 
ATOM     12  N   UNL     1      35.252 -19.241 -21.717  0.00  0.00    -0.266 N 
ATOM     13  C   UNL     1      34.429 -19.853 -20.758  0.00  0.00    +0.308 C 
ATOM     14  H   UNL     1      36.115 -20.907 -20.282  0.00  0.00    +0.156 HD
ATOM     15  H   UNL     1      36.187 -19.549 -21.743  0.00  0.00    +0.157 HD
BRANCH  12  17
ATOM     16 BR   UNL     1      34.260 -14.138 -22.523  0.00  0.00    -0.049 Br
ATOM     17  C   UNL     1      34.905 -18.234 -22.649  0.00  0.00    +0.086 C 
ATOM     18  C   UNL     1      34.694 -18.565 -23.978  0.00  0.00    +0.152 C 
ATOM     19  C   UNL     1      34.782 -16.928 -22.203  0.00  0.00    +0.024 C 
ATOM     20  C   UNL     1      34.353 -17.562 -24.885  0.00  0.00    +0.039 C 
ATOM     21  C   UNL     1      34.440 -15.925 -23.111  0.00  0.00    +0.036 C 
ATOM     22  C   UNL     1      34.225 -16.242 -24.452  0.00  0.00    +0.010 C 
BRANCH  18  23
ATOM     23  O   UNL     1      34.812 -19.848 -24.421  0.00  0.00    -0.470 OA
ATOM     24  C   UNL     1      34.147 -20.178 -25.639  0.00  0.00    +0.253 C 
ENDBRANCH  18  23
ENDBRANCH  12  17
ENDBRANCH   5  11
BRANCH   1  25
ATOM     25  C   UNL     1      35.907 -23.455 -14.603  0.00  0.00    +0.122 C 
BRANCH  25  28
ATOM     26  N   UNL     1      37.897 -27.239 -14.899  0.00  0.00    -0.230 NA
ATOM     27  N   UNL     1      39.958 -26.182 -14.343  0.00  0.00    -0.343 N 
ATOM     28  C   UNL     1      36.606 -24.783 -14.708  0.00  0.00    +0.002 C 
ATOM     29  C   UNL     1      37.968 -24.860 -14.475  0.00  0.00    +0.031 C 
ATOM     30  C   UNL     1      35.879 -25.914 -15.034  0.00  0.00    +0.018 C 
ATOM     31  C   UNL     1      38.564 -26.106 -14.582  0.00  0.00    +0.125 C 
ATOM     32  C   UNL     1      36.569 -27.113 -15.117  0.00  0.00    +0.100 C 
ATOM     33  H   UNL     1      40.422 -27.047 -14.408  0.00  0.00    +0.144 HD
ATOM     34  H   UNL     1      40.462 -25.369 -14.110  0.00  0.00    +0.144 HD
ENDBRANCH  25  28
ENDBRANCH   1  25
TORSDOF 5
ENDMDL
MODEL 3
REMARK VINA RESULT:     -11.1      3.873     10.324
REMARK  Name = 11691242
REMARK  5 active torsions:
REMARK  status: ('A' for Active; 'I' for Inactive)
REMARK    1  A    between atoms: N_1  and  C_25
REMARK    2  A    between atoms: C_5  and  N_11
REMARK    3  A    between atoms: N_12  and  C_17
REMARK    4  A    between atoms: C_18  and  O_23
REMARK    5  A    between atoms: C_25  and  C_28
REMARK                            x       y       z     vdW  Elec       q    Type
REMARK                         _______ _______ _______ _____ _____    ______ ____
ROOT
ATOM      1  N   UNL     1      35.372 -18.736 -22.654  0.00  0.00    -0.282 N 
ATOM      2  C   UNL     1      34.601 -19.454 -21.768  0.00  0.00    +0.053 C 
ATOM      3  C   UNL     1      35.439 -19.853 -20.724  0.00  0.00    +0.028 C 
ATOM      4  C   UNL     1      36.664 -18.667 -22.208  0.00  0.00    +0.066 C 
ATOM      5  C   UNL     1      34.896 -20.613 -19.670  0.00  0.00    +0.053 C 
ATOM      6  C   UNL     1      36.738 -19.350 -21.016  0.00  0.00    +0.019 C 
ATOM      7  C   UNL     1      33.241 -19.779 -21.810  0.00  0.00    +0.015 C 
ATOM      8  C   UNL     1      33.536 -20.945 -19.698  0.00  0.00    +0.015 C 
ATOM      9  C   UNL     1      32.723 -20.533 -20.752  0.00  0.00    +0.003 C 
ENDROOT
BRANCH   5  11
ATOM     10  O   UNL     1      34.579 -22.958 -17.846  0.00  0.00    -0.252 OA
ATOM     11  N   UNL     1      35.688 -21.037 -18.602  0.00  0.00    -0.268 N 
ATOM     12  N   UNL     1      36.539 -22.216 -16.808  0.00  0.00    -0.266 N 
ATOM     13  C   UNL     1      35.506 -22.158 -17.757  0.00  0.00    +0.308 C 
ATOM     14  H   UNL     1      36.480 -20.483 -18.411  0.00  0.00    +0.156 HD
ATOM     15  H   UNL     1      37.214 -21.503 -16.861  0.00  0.00    +0.157 HD
BRANCH  12  17
ATOM     16 BR   UNL     1      39.783 -25.724 -14.607  0.00  0.00    -0.049 Br
ATOM     17  C   UNL     1      36.729 -23.176 -15.785  0.00  0.00    +0.086 C 
ATOM     18  C   UNL     1      35.713 -23.430 -14.876  0.00  0.00    +0.152 C 
ATOM     19  C   UNL     1      37.940 -23.846 -15.717  0.00  0.00    +0.024 C 
ATOM     20  C   UNL     1      35.915 -24.377 -13.874  0.00  0.00    +0.039 C 
ATOM     21  C   UNL     1      38.141 -24.794 -14.714  0.00  0.00    +0.036 C 
ATOM     22  C   UNL     1      37.129 -25.059 -13.792  0.00  0.00    +0.010 C 
BRANCH  18  23
ATOM     23  O   UNL     1      34.520 -22.774 -14.941  0.00  0.00    -0.470 OA
ATOM     24  C   UNL     1      33.343 -23.546 -14.708  0.00  0.00    +0.253 C 
ENDBRANCH  18  23
ENDBRANCH  12  17
ENDBRANCH   5  11
BRANCH   1  25
ATOM     25  C   UNL     1      34.901 -18.138 -23.885  0.00  0.00    +0.122 C 
BRANCH  25  28
ATOM     26  N   UNL     1      33.656 -14.082 -23.276  0.00  0.00    -0.230 NA
ATOM     27  N   UNL     1      32.714 -14.058 -25.464  0.00  0.00    -0.343 N 
ATOM     28  C   UNL     1      34.464 -16.714 -23.672  0.00  0.00    +0.002 C 
ATOM     29  C   UNL     1      33.789 -16.047 -24.678  0.00  0.00    +0.031 C 
ATOM     30  C   UNL     1      34.743 -16.087 -22.471  0.00  0.00    +0.018 C 
ATOM     31  C   UNL     1      33.407 -14.738 -24.432  0.00  0.00    +0.125 C 
ATOM     32  C   UNL     1      34.319 -14.776 -22.323  0.00  0.00    +0.100 C 
ATOM     33  H   UNL     1      32.424 -13.127 -25.331  0.00  0.00    +0.144 HD
ATOM     34  H   UNL     1      32.522 -14.518 -26.313  0.00  0.00    +0.144 HD
ENDBRANCH  25  28
ENDBRANCH   1  25
TORSDOF 5
ENDMDL
MODEL 4
REMARK VINA RESULT:     -11.1      5.500      9.123
REMARK  Name = 11691242
REMARK  5 active torsions:
REMARK  status: ('A' for Active; 'I' for Inactive)
REMARK    1  A    between atoms: N_1  and  C_25
REMARK    2  A    between atoms: C_5  and  N_11
REMARK    3  A    between atoms: N_12  and  C_17
REMARK    4  A    between atoms: C_18  and  O_23
REMARK    5  A    between atoms: C_25  and  C_28
REMARK                            x       y       z     vdW  Elec       q    Type
REMARK                         _______ _______ _______ _____ _____    ______ ____
ROOT
ATOM      1  N   UNL     1      35.110 -17.029 -22.528  0.00  0.00    -0.282 N 
ATOM      2  C   UNL     1      34.539 -16.501 -23.663  0.00  0.00    +0.053 C 
ATOM      3  C   UNL     1      33.976 -15.273 -23.307  0.00  0.00    +0.028 C 
ATOM      4  C   UNL     1      34.928 -16.181 -21.469  0.00  0.00    +0.066 C 
ATOM      5  C   UNL     1      33.319 -14.515 -24.296  0.00  0.00    +0.053 C 
ATOM      6  C   UNL     1      34.228 -15.085 -21.918  0.00  0.00    +0.019 C 
ATOM      7  C   UNL     1      34.478 -17.009 -24.965  0.00  0.00    +0.015 C 
ATOM      8  C   UNL     1      33.250 -15.011 -25.603  0.00  0.00    +0.015 C 
ATOM      9  C   UNL     1      33.822 -16.239 -25.931  0.00  0.00    +0.003 C 
ENDROOT
BRANCH   5  11
ATOM     10  O   UNL     1      34.447 -11.755 -24.484  0.00  0.00    -0.252 OA
ATOM     11  N   UNL     1      32.739 -13.282 -23.994  0.00  0.00    -0.268 N 
ATOM     12  N   UNL     1      32.374 -11.022 -23.688  0.00  0.00    -0.266 N 
ATOM     13  C   UNL     1      33.307 -11.989 -24.096  0.00  0.00    +0.308 C 
ATOM     14  H   UNL     1      31.811 -13.315 -23.665  0.00  0.00    +0.156 HD
ATOM     15  H   UNL     1      31.496 -11.362 -23.402  0.00  0.00    +0.157 HD
BRANCH  12  17
ATOM     16 BR   UNL     1      33.490  -6.624 -26.349  0.00  0.00    -0.049 Br
ATOM     17  C   UNL     1      32.541  -9.618 -23.639  0.00  0.00    +0.086 C 
ATOM     18  C   UNL     1      32.376  -8.942 -22.440  0.00  0.00    +0.152 C 
ATOM     19  C   UNL     1      32.869  -8.945 -24.805  0.00  0.00    +0.024 C 
ATOM     20  C   UNL     1      32.543  -7.559 -22.406  0.00  0.00    +0.039 C 
ATOM     21  C   UNL     1      33.036  -7.560 -24.771  0.00  0.00    +0.036 C 
ATOM     22  C   UNL     1      32.873  -6.867 -23.572  0.00  0.00    +0.010 C 
BRANCH  18  23
ATOM     23  O   UNL     1      32.055  -9.600 -21.290  0.00  0.00    -0.470 OA
ATOM     24  C   UNL     1      32.115  -8.852 -20.077  0.00  0.00    +0.253 C 
ENDBRANCH  18  23
ENDBRANCH  12  17
ENDBRANCH   5  11
BRANCH   1  25
ATOM     25  C   UNL     1      35.803 -18.298 -22.447  0.00  0.00    +0.122 C 
BRANCH  25  28
ATOM     26  N   UNL     1      33.745 -21.040 -19.877  0.00  0.00    -0.230 NA
ATOM     27  N   UNL     1      35.828 -21.678 -18.913  0.00  0.00    -0.343 N 
ATOM     28  C   UNL     1      35.081 -19.261 -21.545  0.00  0.00    +0.002 C 
ATOM     29  C   UNL     1      35.800 -20.026 -20.644  0.00  0.00    +0.031 C 
ATOM     30  C   UNL     1      33.704 -19.371 -21.625  0.00  0.00    +0.018 C 
ATOM     31  C   UNL     1      35.088 -20.897 -19.835  0.00  0.00    +0.125 C 
ATOM     32  C   UNL     1      33.086 -20.272 -20.773  0.00  0.00    +0.100 C 
ATOM     33  H   UNL     1      35.363 -22.310 -18.319  0.00  0.00    +0.144 HD
ATOM     34  H   UNL     1      36.808 -21.588 -18.867  0.00  0.00    +0.144 HD
ENDBRANCH  25  28
ENDBRANCH   1  25
TORSDOF 5
ENDMDL
MODEL 5
REMARK VINA RESULT:     -11.1      5.542      9.293
REMARK  Name = 11691242
REMARK  5 active torsions:
REMARK  status: ('A' for Active; 'I' for Inactive)
REMARK    1  A    between atoms: N_1  and  C_25
REMARK    2  A    between atoms: C_5  and  N_11
REMARK    3  A    between atoms: N_12  and  C_17
REMARK    4  A    between atoms: C_18  and  O_23
REMARK    5  A    between atoms: C_25  and  C_28
REMARK                            x       y       z     vdW  Elec       q    Type
REMARK                         _______ _______ _______ _____ _____    ______ ____
ROOT
ATOM      1  N   UNL     1      35.156 -17.028 -22.578  0.00  0.00    -0.282 N 
ATOM      2  C   UNL     1      34.560 -16.450 -23.676  0.00  0.00    +0.053 C 
ATOM      3  C   UNL     1      33.983 -15.253 -23.248  0.00  0.00    +0.028 C 
ATOM      4  C   UNL     1      34.976 -16.239 -21.474  0.00  0.00    +0.066 C 
ATOM      5  C   UNL     1      33.299 -14.455 -24.187  0.00  0.00    +0.053 C 
ATOM      6  C   UNL     1      34.253 -15.133 -21.855  0.00  0.00    +0.019 C 
ATOM      7  C   UNL     1      34.488 -16.891 -25.002  0.00  0.00    +0.015 C 
ATOM      8  C   UNL     1      33.219 -14.884 -25.517  0.00  0.00    +0.015 C 
ATOM      9  C   UNL     1      33.805 -16.083 -25.916  0.00  0.00    +0.003 C 
ENDROOT
BRANCH   5  11
ATOM     10  O   UNL     1      34.358 -11.664 -24.304  0.00  0.00    -0.252 OA
ATOM     11  N   UNL     1      32.704 -13.250 -23.812  0.00  0.00    -0.268 N 
ATOM     12  N   UNL     1      32.301 -11.013 -23.401  0.00  0.00    -0.266 N 
ATOM     13  C   UNL     1      33.239 -11.940 -23.883  0.00  0.00    +0.308 C 
ATOM     14  H   UNL     1      31.790 -13.318 -23.451  0.00  0.00    +0.156 HD
ATOM     15  H   UNL     1      31.443 -11.385 -23.096  0.00  0.00    +0.157 HD
BRANCH  12  17
ATOM     16 BR   UNL     1      33.317  -6.497 -25.900  0.00  0.00    -0.049 Br
ATOM     17  C   UNL     1      32.439  -9.608 -23.300  0.00  0.00    +0.086 C 
ATOM     18  C   UNL     1      32.263  -8.981 -22.077  0.00  0.00    +0.152 C 
ATOM     19  C   UNL     1      32.749  -8.886 -24.442  0.00  0.00    +0.024 C 
ATOM     20  C   UNL     1      32.401  -7.596 -21.993  0.00  0.00    +0.039 C 
ATOM     21  C   UNL     1      32.888  -7.500 -24.357  0.00  0.00    +0.036 C 
ATOM     22  C   UNL     1      32.713  -6.855 -23.133  0.00  0.00    +0.010 C 
BRANCH  18  23
ATOM     23  O   UNL     1      31.960  -9.687 -20.951  0.00  0.00    -0.470 OA
ATOM     24  C   UNL     1      31.577  -8.938 -19.799  0.00  0.00    +0.253 C 
ENDBRANCH  18  23
ENDBRANCH  12  17
ENDBRANCH   5  11
BRANCH   1  25
ATOM     25  C   UNL     1      35.870 -18.287 -22.573  0.00  0.00    +0.122 C 
BRANCH  25  28
ATOM     26  N   UNL     1      34.187 -21.033 -19.746  0.00  0.00    -0.230 NA
ATOM     27  N   UNL     1      32.007 -20.491 -20.539  0.00  0.00    -0.343 N 
ATOM     28  C   UNL     1      35.278 -19.250 -21.581  0.00  0.00    +0.002 C 
ATOM     29  C   UNL     1      33.906 -19.420 -21.524  0.00  0.00    +0.031 C 
ATOM     30  C   UNL     1      36.113 -19.958 -20.735  0.00  0.00    +0.018 C 
ATOM     31  C   UNL     1      33.412 -20.319 -20.594  0.00  0.00    +0.125 C 
ATOM     32  C   UNL     1      35.521 -20.834 -19.840  0.00  0.00    +0.100 C 
ATOM     33  H   UNL     1      31.613 -21.120 -19.893  0.00  0.00    +0.144 HD
ATOM     34  H   UNL     1      31.425 -19.981 -21.148  0.00  0.00    +0.144 HD
ENDBRANCH  25  28
ENDBRANCH   1  25
TORSDOF 5
ENDMDL
MODEL 6
REMARK VINA RESULT:     -11.1      4.147     10.292
REMARK  Name = 11691242
REMARK  5 active torsions:
REMARK  status: ('A' for Active; 'I' for Inactive)
REMARK    1  A    between atoms: N_1  and  C_25
REMARK    2  A    between atoms: C_5  and  N_11
REMARK    3  A    between atoms: N_12  and  C_17
REMARK    4  A    between atoms: C_18  and  O_23
REMARK    5  A    between atoms: C_25  and  C_28
REMARK                            x       y       z     vdW  Elec       q    Type
REMARK                         _______ _______ _______ _____ _____    ______ ____
ROOT
ATOM      1  N   UNL     1      35.363 -19.369 -21.430  0.00  0.00    -0.282 N 
ATOM      2  C   UNL     1      34.683 -20.213 -20.583  0.00  0.00    +0.053 C 
ATOM      3  C   UNL     1      35.616 -20.727 -19.679  0.00  0.00    +0.028 C 
ATOM      4  C   UNL     1      36.690 -19.331 -21.096  0.00  0.00    +0.066 C 
ATOM      5  C   UNL     1      35.178 -21.630 -18.691  0.00  0.00    +0.053 C 
ATOM      6  C   UNL     1      36.879 -20.163 -20.017  0.00  0.00    +0.019 C 
ATOM      7  C   UNL     1      33.328 -20.558 -20.545  0.00  0.00    +0.015 C 
ATOM      8  C   UNL     1      33.825 -21.985 -18.642  0.00  0.00    +0.015 C 
ATOM      9  C   UNL     1      32.915 -21.455 -19.555  0.00  0.00    +0.003 C 
ENDROOT
BRANCH   5  11
ATOM     10  O   UNL     1      34.653 -23.025 -16.102  0.00  0.00    -0.252 OA
ATOM     11  N   UNL     1      36.068 -22.174 -17.764  0.00  0.00    -0.268 N 
ATOM     12  N   UNL     1      36.976 -23.222 -15.916  0.00  0.00    -0.266 N 
ATOM     13  C   UNL     1      35.781 -22.830 -16.543  0.00  0.00    +0.308 C 
ATOM     14  H   UNL     1      37.024 -22.090 -17.989  0.00  0.00    +0.156 HD
ATOM     15  H   UNL     1      37.807 -22.996 -16.392  0.00  0.00    +0.157 HD
BRANCH  12  17
ATOM     16 BR   UNL     1      34.950 -24.266 -11.176  0.00  0.00    -0.049 Br
ATOM     17  C   UNL     1      37.131 -23.902 -14.685  0.00  0.00    +0.086 C 
ATOM     18  C   UNL     1      38.256 -24.680 -14.461  0.00  0.00    +0.152 C 
ATOM     19  C   UNL     1      36.143 -23.771 -13.723  0.00  0.00    +0.024 C 
ATOM     20  C   UNL     1      38.396 -25.344 -13.244  0.00  0.00    +0.039 C 
ATOM     21  C   UNL     1      36.283 -24.436 -12.504  0.00  0.00    +0.036 C 
ATOM     22  C   UNL     1      37.409 -25.223 -12.265  0.00  0.00    +0.010 C 
BRANCH  18  23
ATOM     23  O   UNL     1      39.232 -24.810 -15.404  0.00  0.00    -0.470 OA
ATOM     24  C   UNL     1      40.156 -25.884 -15.237  0.00  0.00    +0.253 C 
ENDBRANCH  18  23
ENDBRANCH  12  17
ENDBRANCH   5  11
BRANCH   1  25
ATOM     25  C   UNL     1      34.776 -18.624 -22.524  0.00  0.00    +0.122 C 
BRANCH  25  28
ATOM     26  N   UNL     1      34.334 -14.478 -21.535  0.00  0.00    -0.230 NA
ATOM     27  N   UNL     1      34.047 -13.972 -23.845  0.00  0.00    -0.343 N 
ATOM     28  C   UNL     1      34.622 -17.168 -22.178  0.00  0.00    +0.002 C 
ATOM     29  C   UNL     1      34.406 -16.244 -23.184  0.00  0.00    +0.031 C 
ATOM     30  C   UNL     1      34.696 -16.770 -20.855  0.00  0.00    +0.018 C 
ATOM     31  C   UNL     1      34.269 -14.916 -22.812  0.00  0.00    +0.125 C 
ATOM     32  C   UNL     1      34.546 -15.419 -20.587  0.00  0.00    +0.100 C 
ATOM     33  H   UNL     1      33.944 -13.018 -23.626  0.00  0.00    +0.144 HD
ATOM     34  H   UNL     1      33.996 -14.271 -24.782  0.00  0.00    +0.144 HD
ENDBRANCH  25  28
ENDBRANCH   1  25
TORSDOF 5
ENDMDL
MODEL 7
REMARK VINA RESULT:     -11.0      5.594      9.269
REMARK  Name = 11691242
REMARK  5 active torsions:
REMARK  status: ('A' for Active; 'I' for Inactive)
REMARK    1  A    between atoms: N_1  and  C_25
REMARK    2  A    between atoms: C_5  and  N_11
REMARK    3  A    between atoms: N_12  and  C_17
REMARK    4  A    between atoms: C_18  and  O_23
REMARK    5  A    between atoms: C_25  and  C_28
REMARK                            x       y       z     vdW  Elec       q    Type
REMARK                         _______ _______ _______ _____ _____    ______ ____
ROOT
ATOM      1  N   UNL     1      35.084 -16.981 -22.548  0.00  0.00    -0.282 N 
ATOM      2  C   UNL     1      34.518 -16.479 -23.698  0.00  0.00    +0.053 C 
ATOM      3  C   UNL     1      33.932 -15.255 -23.368  0.00  0.00    +0.028 C 
ATOM      4  C   UNL     1      34.876 -16.119 -21.505  0.00  0.00    +0.066 C 
ATOM      5  C   UNL     1      33.276 -14.523 -24.377  0.00  0.00    +0.053 C 
ATOM      6  C   UNL     1      34.166 -15.041 -21.980  0.00  0.00    +0.019 C 
ATOM      7  C   UNL     1      34.481 -17.009 -24.993  0.00  0.00    +0.015 C 
ATOM      8  C   UNL     1      33.230 -15.041 -25.677  0.00  0.00    +0.015 C 
ATOM      9  C   UNL     1      33.824 -16.265 -25.978  0.00  0.00    +0.003 C 
ENDROOT
BRANCH   5  11
ATOM     10  O   UNL     1      34.488 -11.813 -24.046  0.00  0.00    -0.252 OA
ATOM     11  N   UNL     1      32.673 -13.294 -24.101  0.00  0.00    -0.268 N 
ATOM     12  N   UNL     1      32.306 -11.054 -23.678  0.00  0.00    -0.266 N 
ATOM     13  C   UNL     1      33.283 -12.025 -23.951  0.00  0.00    +0.308 C 
ATOM     14  H   UNL     1      31.694 -13.312 -23.998  0.00  0.00    +0.156 HD
ATOM     15  H   UNL     1      31.378 -11.376 -23.632  0.00  0.00    +0.157 HD
BRANCH  12  17
ATOM     16 BR   UNL     1      32.427  -7.118 -20.191  0.00  0.00    -0.049 Br
ATOM     17  C   UNL     1      32.493  -9.668 -23.462  0.00  0.00    +0.086 C 
ATOM     18  C   UNL     1      32.774  -8.832 -24.531  0.00  0.00    +0.152 C 
ATOM     19  C   UNL     1      32.390  -9.175 -22.171  0.00  0.00    +0.024 C 
ATOM     20  C   UNL     1      32.956  -7.469 -24.303  0.00  0.00    +0.039 C 
ATOM     21  C   UNL     1      32.571  -7.811 -21.943  0.00  0.00    +0.036 C 
ATOM     22  C   UNL     1      32.855  -6.958 -23.009  0.00  0.00    +0.010 C 
BRANCH  18  23
ATOM     23  O   UNL     1      32.876  -9.312 -25.803  0.00  0.00    -0.470 OA
ATOM     24  C   UNL     1      34.161  -9.247 -26.419  0.00  0.00    +0.253 C 
ENDBRANCH  18  23
ENDBRANCH  12  17
ENDBRANCH   5  11
BRANCH   1  25
ATOM     25  C   UNL     1      35.795 -18.237 -22.439  0.00  0.00    +0.122 C 
BRANCH  25  28
ATOM     26  N   UNL     1      33.700 -21.004 -19.925  0.00  0.00    -0.230 NA
ATOM     27  N   UNL     1      35.775 -21.693 -18.979  0.00  0.00    -0.343 N 
ATOM     28  C   UNL     1      35.060 -19.209 -21.557  0.00  0.00    +0.002 C 
ATOM     29  C   UNL     1      35.769 -20.004 -20.674  0.00  0.00    +0.031 C 
ATOM     30  C   UNL     1      33.682 -19.297 -21.637  0.00  0.00    +0.018 C 
ATOM     31  C   UNL     1      35.045 -20.881 -19.883  0.00  0.00    +0.125 C 
ATOM     32  C   UNL     1      33.051 -20.207 -20.803  0.00  0.00    +0.100 C 
ATOM     33  H   UNL     1      35.301 -22.330 -18.397  0.00  0.00    +0.144 HD
ATOM     34  H   UNL     1      36.756 -21.618 -18.931  0.00  0.00    +0.144 HD
ENDBRANCH  25  28
ENDBRANCH   1  25
TORSDOF 5
ENDMDL
MODEL 8
REMARK VINA RESULT:     -10.7      3.521      5.324
REMARK  Name = 11691242
REMARK  5 active torsions:
REMARK  status: ('A' for Active; 'I' for Inactive)
REMARK    1  A    between atoms: N_1  and  C_25
REMARK    2  A    between atoms: C_5  and  N_11
REMARK    3  A    between atoms: N_12  and  C_17
REMARK    4  A    between atoms: C_18  and  O_23
REMARK    5  A    between atoms: C_25  and  C_28
REMARK                            x       y       z     vdW  Elec       q    Type
REMARK                         _______ _______ _______ _____ _____    ______ ____
ROOT
ATOM      1  N   UNL     1      33.971 -21.687 -19.495  0.00  0.00    -0.282 N 
ATOM      2  C   UNL     1      34.868 -20.811 -20.062  0.00  0.00    +0.053 C 
ATOM      3  C   UNL     1      34.128 -19.887 -20.804  0.00  0.00    +0.028 C 
ATOM      4  C   UNL     1      32.693 -21.351 -19.852  0.00  0.00    +0.066 C 
ATOM      5  C   UNL     1      34.812 -18.868 -21.494  0.00  0.00    +0.053 C 
ATOM      6  C   UNL     1      32.757 -20.241 -20.662  0.00  0.00    +0.019 C 
ATOM      7  C   UNL     1      36.264 -20.765 -19.976  0.00  0.00    +0.015 C 
ATOM      8  C   UNL     1      36.209 -18.809 -21.418  0.00  0.00    +0.015 C 
ATOM      9  C   UNL     1      36.922 -19.744 -20.670  0.00  0.00    +0.003 C 
ENDROOT
BRANCH   5  11
ATOM     10  O   UNL     1      34.604 -18.544 -24.457  0.00  0.00    -0.252 OA
ATOM     11  N   UNL     1      34.122 -17.919 -22.250  0.00  0.00    -0.268 N 
ATOM     12  N   UNL     1      33.242 -16.698 -24.002  0.00  0.00    -0.266 N 
ATOM     13  C   UNL     1      34.046 -17.797 -23.659  0.00  0.00    +0.308 C 
ATOM     14  H   UNL     1      33.621 -17.245 -21.736  0.00  0.00    +0.156 HD
ATOM     15  H   UNL     1      32.860 -16.191 -23.250  0.00  0.00    +0.157 HD
BRANCH  12  17
ATOM     16 BR   UNL     1      33.860 -12.925 -27.614  0.00  0.00    -0.049 Br
ATOM     17  C   UNL     1      32.911 -16.231 -25.296  0.00  0.00    +0.086 C 
ATOM     18  C   UNL     1      32.058 -16.970 -26.102  0.00  0.00    +0.152 C 
ATOM     19  C   UNL     1      33.454 -15.033 -25.731  0.00  0.00    +0.024 C 
ATOM     20  C   UNL     1      31.742 -16.498 -27.375  0.00  0.00    +0.039 C 
ATOM     21  C   UNL     1      33.136 -14.561 -27.004  0.00  0.00    +0.036 C 
ATOM     22  C   UNL     1      32.281 -15.293 -27.826  0.00  0.00    +0.010 C 
BRANCH  18  23
ATOM     23  O   UNL     1      31.521 -18.149 -25.678  0.00  0.00    -0.470 OA
ATOM     24  C   UNL     1      31.942 -19.333 -26.353  0.00  0.00    +0.253 C 
ENDBRANCH  18  23
ENDBRANCH  12  17
ENDBRANCH   5  11
BRANCH   1  25
ATOM     25  C   UNL     1      34.312 -22.809 -18.647  0.00  0.00    +0.122 C 
BRANCH  25  28
ATOM     26  N   UNL     1      31.621 -23.143 -15.329  0.00  0.00    -0.230 NA
ATOM     27  N   UNL     1      29.791 -22.687 -16.785  0.00  0.00    -0.343 N 
ATOM     28  C   UNL     1      33.367 -22.925 -17.482  0.00  0.00    +0.002 C 
ATOM     29  C   UNL     1      32.009 -22.749 -17.682  0.00  0.00    +0.031 C 
ATOM     30  C   UNL     1      33.866 -23.209 -16.224  0.00  0.00    +0.018 C 
ATOM     31  C   UNL     1      31.181 -22.868 -16.577  0.00  0.00    +0.125 C 
ATOM     32  C   UNL     1      32.955 -23.307 -15.184  0.00  0.00    +0.100 C 
ATOM     33  H   UNL     1      29.167 -22.763 -16.029  0.00  0.00    +0.144 HD
ATOM     34  H   UNL     1      29.451 -22.487 -17.688  0.00  0.00    +0.144 HD
ENDBRANCH  25  28
ENDBRANCH   1  25
TORSDOF 5
ENDMDL
MODEL 9
REMARK VINA RESULT:     -10.5      3.881      9.890
REMARK  Name = 11691242
REMARK  5 active torsions:
REMARK  status: ('A' for Active; 'I' for Inactive)
REMARK    1  A    between atoms: N_1  and  C_25
REMARK    2  A    between atoms: C_5  and  N_11
REMARK    3  A    between atoms: N_12  and  C_17
REMARK    4  A    between atoms: C_18  and  O_23
REMARK    5  A    between atoms: C_25  and  C_28
REMARK                            x       y       z     vdW  Elec       q    Type
REMARK                         _______ _______ _______ _____ _____    ______ ____
ROOT
ATOM      1  N   UNL     1      35.765 -19.472 -21.139  0.00  0.00    -0.282 N 
ATOM      2  C   UNL     1      34.566 -19.968 -20.678  0.00  0.00    +0.053 C 
ATOM      3  C   UNL     1      34.865 -20.989 -19.773  0.00  0.00    +0.028 C 
ATOM      4  C   UNL     1      36.808 -20.142 -20.559  0.00  0.00    +0.066 C 
ATOM      5  C   UNL     1      33.805 -21.674 -19.148  0.00  0.00    +0.053 C 
ATOM      6  C   UNL     1      36.284 -21.089 -19.710  0.00  0.00    +0.019 C 
ATOM      7  C   UNL     1      33.254 -19.595 -20.989  0.00  0.00    +0.015 C 
ATOM      8  C   UNL     1      32.486 -21.312 -19.449  0.00  0.00    +0.015 C 
ATOM      9  C   UNL     1      32.217 -20.288 -20.355  0.00  0.00    +0.003 C 
ENDROOT
BRANCH   5  11
ATOM     10  O   UNL     1      35.276 -21.639 -16.549  0.00  0.00    -0.252 OA
ATOM     11  N   UNL     1      34.047 -22.702 -18.237  0.00  0.00    -0.268 N 
ATOM     12  N   UNL     1      34.759 -23.915 -16.405  0.00  0.00    -0.266 N 
ATOM     13  C   UNL     1      34.752 -22.648 -17.010  0.00  0.00    +0.308 C 
ATOM     14  H   UNL     1      33.679 -23.583 -18.478  0.00  0.00    +0.156 HD
ATOM     15  H   UNL     1      34.295 -24.631 -16.896  0.00  0.00    +0.157 HD
BRANCH  12  17
ATOM     16 BR   UNL     1      39.046 -25.732 -13.956  0.00  0.00    -0.049 Br
ATOM     17  C   UNL     1      35.352 -24.290 -15.176  0.00  0.00    +0.086 C 
ATOM     18  C   UNL     1      34.622 -24.205 -14.000  0.00  0.00    +0.152 C 
ATOM     19  C   UNL     1      36.663 -24.738 -15.178  0.00  0.00    +0.024 C 
ATOM     20  C   UNL     1      35.220 -24.577 -12.797  0.00  0.00    +0.039 C 
ATOM     21  C   UNL     1      37.261 -25.111 -13.974  0.00  0.00    +0.036 C 
ATOM     22  C   UNL     1      36.539 -25.030 -12.783  0.00  0.00    +0.010 C 
BRANCH  18  23
ATOM     23  O   UNL     1      33.332 -23.765 -13.993  0.00  0.00    -0.470 OA
ATOM     24  C   UNL     1      32.315 -24.744 -13.785  0.00  0.00    +0.253 C 
ENDBRANCH  18  23
ENDBRANCH  12  17
ENDBRANCH   5  11
BRANCH   1  25
ATOM     25  C   UNL     1      35.917 -18.400 -22.100  0.00  0.00    +0.122 C 
BRANCH  25  28
ATOM     26  N   UNL     1      33.464 -19.034 -25.556  0.00  0.00    -0.230 NA
ATOM     27  N   UNL     1      32.543 -16.854 -25.285  0.00  0.00    -0.343 N 
ATOM     28  C   UNL     1      35.055 -18.623 -23.313  0.00  0.00    +0.002 C 
ATOM     29  C   UNL     1      34.194 -17.625 -23.734  0.00  0.00    +0.031 C 
ATOM     30  C   UNL     1      35.133 -19.823 -23.995  0.00  0.00    +0.018 C 
ATOM     31  C   UNL     1      33.423 -17.878 -24.856  0.00  0.00    +0.125 C 
ATOM     32  C   UNL     1      34.320 -19.979 -25.106  0.00  0.00    +0.100 C 
ATOM     33  H   UNL     1      31.978 -16.992 -26.078  0.00  0.00    +0.144 HD
ATOM     34  H   UNL     1      32.500 -16.004 -24.790  0.00  0.00    +0.144 HD
ENDBRANCH  25  28
ENDBRANCH   1  25
TORSDOF 5
ENDMDL
