MODEL 1
REMARK VINA RESULT:     -12.6      0.000      0.000
REMARK  Name = 9924495
REMARK  4 active torsions:
REMARK  status: ('A' for Active; 'I' for Inactive)
REMARK    1  A    between atoms: N_2  and  C_22
REMARK    2  A    between atoms: C_3  and  C_14
REMARK    3  A    between atoms: C_4  and  C_9
REMARK    4  A    between atoms: C_15  and  C_21
REMARK                            x       y       z     vdW  Elec       q    Type
REMARK                         _______ _______ _______ _____ _____    ______ ____
ROOT
ATOM      1  O   UNL     1      32.872 -24.542 -13.499  0.00  0.00    -0.269 OA
ATOM      2  N   UNL     1      32.326 -23.727 -15.642  0.00  0.00    -0.233 N 
ATOM      3  C   UNL     1      34.673 -23.819 -14.825  0.00  0.00    +0.055 C 
ATOM      4  C   UNL     1      34.112 -22.788 -16.961  0.00  0.00    +0.033 C 
ATOM      5  C   UNL     1      33.208 -24.085 -14.593  0.00  0.00    +0.257 C 
ATOM      6  C   UNL     1      35.059 -23.197 -15.949  0.00  0.00    +0.007 C 
ATOM      7  C   UNL     1      32.813 -23.077 -16.776  0.00  0.00    +0.074 C 
ENDROOT
BRANCH   4   9
ATOM      8  N   UNL     1      35.848 -21.951 -18.386  0.00  0.00    -0.244 NA
ATOM      9  C   UNL     1      34.518 -22.111 -18.208  0.00  0.00    +0.083 C 
ATOM     10  C   UNL     1      33.556 -21.682 -19.105  0.00  0.00    +0.019 C 
ATOM     11  C   UNL     1      33.987 -21.048 -20.266  0.00  0.00    +0.003 C 
ATOM     12  C   UNL     1      36.229 -21.330 -19.525  0.00  0.00    +0.099 C 
ATOM     13  C   UNL     1      35.347 -20.865 -20.487  0.00  0.00    +0.021 C 
ENDBRANCH   4   9
BRANCH   3  14
ATOM     14  C   UNL     1      35.685 -24.234 -13.837  0.00  0.00    +0.014 C 
ATOM     15  C   UNL     1      36.398 -25.425 -13.966  0.00  0.00    +0.069 C 
ATOM     16  C   UNL     1      35.921 -23.395 -12.747  0.00  0.00    +0.001 C 
ATOM     17  C   UNL     1      37.346 -25.779 -13.006  0.00  0.00    +0.010 C 
ATOM     18  C   UNL     1      36.869 -23.748 -11.787  0.00  0.00    +0.000 C 
ATOM     19  C   UNL     1      37.582 -24.940 -11.917  0.00  0.00    +0.001 C 
BRANCH  15  21
ATOM     20  N   UNL     1      36.011 -27.029 -15.964  0.00  0.00    -0.191 NA
ATOM     21  C   UNL     1      36.183 -26.312 -15.071  0.00  0.00    +0.100 C 
ENDBRANCH  15  21
ENDBRANCH   3  14
BRANCH   2  22
ATOM     22  C   UNL     1      30.909 -24.015 -15.516  0.00  0.00    +0.058 C 
ATOM     23  C   UNL     1      30.496 -25.152 -14.833  0.00  0.00    +0.015 C 
ATOM     24  C   UNL     1      29.980 -23.148 -16.080  0.00  0.00    +0.015 C 
ATOM     25  C   UNL     1      29.134 -25.427 -14.712  0.00  0.00    +0.001 C 
ATOM     26  C   UNL     1      28.618 -23.423 -15.959  0.00  0.00    +0.001 C 
ATOM     27  C   UNL     1      28.195 -24.563 -15.274  0.00  0.00    +0.000 C 
ENDBRANCH   2  22
TORSDOF 4
ENDMDL
MODEL 2
REMARK VINA RESULT:     -10.1      1.467      5.538
REMARK  Name = 9924495
REMARK  4 active torsions:
REMARK  status: ('A' for Active; 'I' for Inactive)
REMARK    1  A    between atoms: N_2  and  C_22
REMARK    2  A    between atoms: C_3  and  C_14
REMARK    3  A    between atoms: C_4  and  C_9
REMARK    4  A    between atoms: C_15  and  C_21
REMARK                            x       y       z     vdW  Elec       q    Type
REMARK                         _______ _______ _______ _____ _____    ______ ____
ROOT
ATOM      1  O   UNL     1      31.874 -22.594 -18.105  0.00  0.00    -0.269 OA
ATOM      2  N   UNL     1      32.017 -23.615 -15.986  0.00  0.00    -0.233 N 
ATOM      3  C   UNL     1      34.028 -22.770 -17.181  0.00  0.00    +0.055 C 
ATOM      4  C   UNL     1      34.219 -24.002 -15.086  0.00  0.00    +0.033 C 
ATOM      5  C   UNL     1      32.534 -22.963 -17.133  0.00  0.00    +0.257 C 
ATOM      6  C   UNL     1      34.789 -23.283 -16.202  0.00  0.00    +0.007 C 
ATOM      7  C   UNL     1      32.883 -24.123 -15.018  0.00  0.00    +0.074 C 
ENDROOT
BRANCH   4   9
ATOM      8  N   UNL     1      36.007 -25.430 -14.372  0.00  0.00    -0.244 NA
ATOM      9  C   UNL     1      35.040 -24.565 -13.996  0.00  0.00    +0.083 C 
ATOM     10  C   UNL     1      34.791 -24.199 -12.684  0.00  0.00    +0.019 C 
ATOM     11  C   UNL     1      35.589 -24.756 -11.691  0.00  0.00    +0.003 C 
ATOM     12  C   UNL     1      36.763 -25.952 -13.379  0.00  0.00    +0.099 C 
ATOM     13  C   UNL     1      36.596 -25.650 -12.037  0.00  0.00    +0.021 C 
ENDBRANCH   4   9
BRANCH   3  14
ATOM     14  C   UNL     1      34.662 -22.026 -18.284  0.00  0.00    +0.014 C 
ATOM     15  C   UNL     1      36.002 -21.645 -18.244  0.00  0.00    +0.069 C 
ATOM     16  C   UNL     1      33.878 -21.704 -19.393  0.00  0.00    +0.001 C 
ATOM     17  C   UNL     1      36.560 -20.940 -19.311  0.00  0.00    +0.010 C 
ATOM     18  C   UNL     1      34.435 -21.000 -20.460  0.00  0.00    +0.000 C 
ATOM     19  C   UNL     1      35.777 -20.619 -20.420  0.00  0.00    +0.001 C 
BRANCH  15  21
ATOM     20  N   UNL     1      37.514 -22.209 -16.217  0.00  0.00    -0.191 NA
ATOM     21  C   UNL     1      36.837 -21.957 -17.122  0.00  0.00    +0.100 C 
ENDBRANCH  15  21
ENDBRANCH   3  14
BRANCH   2  22
ATOM     22  C   UNL     1      30.582 -23.777 -15.840  0.00  0.00    +0.058 C 
ATOM     23  C   UNL     1      29.727 -22.784 -16.302  0.00  0.00    +0.015 C 
ATOM     24  C   UNL     1      30.078 -24.925 -15.241  0.00  0.00    +0.015 C 
ATOM     25  C   UNL     1      28.349 -22.940 -16.162  0.00  0.00    +0.001 C 
ATOM     26  C   UNL     1      28.699 -25.081 -15.101  0.00  0.00    +0.001 C 
ATOM     27  C   UNL     1      27.834 -24.089 -15.561  0.00  0.00    +0.000 C 
ENDBRANCH   2  22
TORSDOF 4
ENDMDL
MODEL 3
REMARK VINA RESULT:      -9.9      1.696      2.316
REMARK  Name = 9924495
REMARK  4 active torsions:
REMARK  status: ('A' for Active; 'I' for Inactive)
REMARK    1  A    between atoms: N_2  and  C_22
REMARK    2  A    between atoms: C_3  and  C_14
REMARK    3  A    between atoms: C_4  and  C_9
REMARK    4  A    between atoms: C_15  and  C_21
REMARK                            x       y       z     vdW  Elec       q    Type
REMARK                         _______ _______ _______ _____ _____    ______ ____
ROOT
ATOM      1  O   UNL     1      32.852 -24.568 -14.612  0.00  0.00    -0.269 OA
ATOM      2  N   UNL     1      31.912 -23.436 -16.452  0.00  0.00    -0.233 N 
ATOM      3  C   UNL     1      34.371 -23.690 -16.176  0.00  0.00    +0.055 C 
ATOM      4  C   UNL     1      33.427 -22.344 -17.976  0.00  0.00    +0.033 C 
ATOM      5  C   UNL     1      32.974 -23.961 -15.676  0.00  0.00    +0.257 C 
ATOM      6  C   UNL     1      34.543 -22.915 -17.258  0.00  0.00    +0.007 C 
ATOM      7  C   UNL     1      32.183 -22.634 -17.560  0.00  0.00    +0.074 C 
ENDROOT
BRANCH   4   9
ATOM      8  N   UNL     1      32.461 -21.000 -19.710  0.00  0.00    -0.244 NA
ATOM      9  C   UNL     1      33.597 -21.497 -19.173  0.00  0.00    +0.083 C 
ATOM     10  C   UNL     1      34.864 -21.260 -19.677  0.00  0.00    +0.019 C 
ATOM     11  C   UNL     1      34.974 -20.457 -20.807  0.00  0.00    +0.003 C 
ATOM     12  C   UNL     1      32.607 -20.224 -20.807  0.00  0.00    +0.099 C 
ATOM     13  C   UNL     1      33.829 -19.925 -21.389  0.00  0.00    +0.021 C 
ENDBRANCH   4   9
BRANCH   3  14
ATOM     14  C   UNL     1      35.545 -24.264 -15.495  0.00  0.00    +0.014 C 
ATOM     15  C   UNL     1      36.775 -23.610 -15.466  0.00  0.00    +0.069 C 
ATOM     16  C   UNL     1      35.398 -25.502 -14.867  0.00  0.00    +0.001 C 
ATOM     17  C   UNL     1      37.861 -24.191 -14.811  0.00  0.00    +0.010 C 
ATOM     18  C   UNL     1      36.483 -26.084 -14.211  0.00  0.00    +0.000 C 
ATOM     19  C   UNL     1      37.714 -25.428 -14.182  0.00  0.00    +0.001 C 
BRANCH  15  21
ATOM     20  N   UNL     1      37.117 -21.311 -16.612  0.00  0.00    -0.191 NA
ATOM     21  C   UNL     1      36.963 -22.338 -16.100  0.00  0.00    +0.100 C 
ENDBRANCH  15  21
ENDBRANCH   3  14
BRANCH   2  22
ATOM     22  C   UNL     1      30.540 -23.714 -16.069  0.00  0.00    +0.058 C 
ATOM     23  C   UNL     1      30.247 -24.864 -15.346  0.00  0.00    +0.015 C 
ATOM     24  C   UNL     1      29.533 -22.825 -16.427  0.00  0.00    +0.015 C 
ATOM     25  C   UNL     1      28.928 -25.129 -14.977  0.00  0.00    +0.001 C 
ATOM     26  C   UNL     1      28.215 -23.091 -16.059  0.00  0.00    +0.001 C 
ATOM     27  C   UNL     1      27.912 -24.243 -15.333  0.00  0.00    +0.000 C 
ENDBRANCH   2  22
TORSDOF 4
ENDMDL
MODEL 4
REMARK VINA RESULT:      -9.8      1.229      1.832
REMARK  Name = 9924495
REMARK  4 active torsions:
REMARK  status: ('A' for Active; 'I' for Inactive)
REMARK    1  A    between atoms: N_2  and  C_22
REMARK    2  A    between atoms: C_3  and  C_14
REMARK    3  A    between atoms: C_4  and  C_9
REMARK    4  A    between atoms: C_15  and  C_21
REMARK                            x       y       z     vdW  Elec       q    Type
REMARK                         _______ _______ _______ _____ _____    ______ ____
ROOT
ATOM      1  O   UNL     1      32.628 -25.058 -14.077  0.00  0.00    -0.269 OA
ATOM      2  N   UNL     1      32.129 -23.797 -16.004  0.00  0.00    -0.233 N 
ATOM      3  C   UNL     1      34.465 -24.377 -15.377  0.00  0.00    +0.055 C 
ATOM      4  C   UNL     1      33.983 -22.905 -17.259  0.00  0.00    +0.033 C 
ATOM      5  C   UNL     1      32.986 -24.464 -15.095  0.00  0.00    +0.257 C 
ATOM      6  C   UNL     1      34.896 -23.624 -16.400  0.00  0.00    +0.007 C 
ATOM      7  C   UNL     1      32.664 -23.030 -17.038  0.00  0.00    +0.074 C 
ENDROOT
BRANCH   4   9
ATOM      8  N   UNL     1      35.776 -21.931 -18.518  0.00  0.00    -0.244 NA
ATOM      9  C   UNL     1      34.438 -22.079 -18.394  0.00  0.00    +0.083 C 
ATOM     10  C   UNL     1      33.511 -21.510 -19.250  0.00  0.00    +0.019 C 
ATOM     11  C   UNL     1      33.987 -20.739 -20.305  0.00  0.00    +0.003 C 
ATOM     12  C   UNL     1      36.202 -21.175 -19.555  0.00  0.00    +0.099 C 
ATOM     13  C   UNL     1      35.356 -20.564 -20.467  0.00  0.00    +0.021 C 
ENDBRANCH   4   9
BRANCH   3  14
ATOM     14  C   UNL     1      35.439 -25.107 -14.547  0.00  0.00    +0.014 C 
ATOM     15  C   UNL     1      35.538 -24.902 -13.171  0.00  0.00    +0.069 C 
ATOM     16  C   UNL     1      36.278 -26.027 -15.177  0.00  0.00    +0.001 C 
ATOM     17  C   UNL     1      36.476 -25.615 -12.424  0.00  0.00    +0.010 C 
ATOM     18  C   UNL     1      37.216 -26.741 -14.430  0.00  0.00    +0.000 C 
ATOM     19  C   UNL     1      37.315 -26.535 -13.054  0.00  0.00    +0.001 C 
BRANCH  15  21
ATOM     20  N   UNL     1      34.011 -23.210 -11.939  0.00  0.00    -0.191 NA
ATOM     21  C   UNL     1      34.694 -23.966 -12.490  0.00  0.00    +0.100 C 
ENDBRANCH  15  21
ENDBRANCH   3  14
BRANCH   2  22
ATOM     22  C   UNL     1      30.691 -23.893 -15.834  0.00  0.00    +0.058 C 
ATOM     23  C   UNL     1      30.146 -24.998 -15.192  0.00  0.00    +0.015 C 
ATOM     24  C   UNL     1      29.873 -22.877 -16.314  0.00  0.00    +0.015 C 
ATOM     25  C   UNL     1      28.764 -25.090 -15.028  0.00  0.00    +0.001 C 
ATOM     26  C   UNL     1      28.491 -22.968 -16.150  0.00  0.00    +0.001 C 
ATOM     27  C   UNL     1      27.936 -24.074 -15.507  0.00  0.00    +0.000 C 
ENDBRANCH   2  22
TORSDOF 4
ENDMDL
