MODEL 1
REMARK VINA RESULT:     -13.1      0.000      0.000
REMARK  Name = 118513932
REMARK  2 active torsions:
REMARK  status: ('A' for Active; 'I' for Inactive)
REMARK    1  A    between atoms: C_4  and  N_24
REMARK    2  A    between atoms: C_10  and  C_15
REMARK                            x       y       z     vdW  Elec       q    Type
REMARK                         _______ _______ _______ _____ _____    ______ ____
ROOT
ATOM      1  O   UNL     1      31.912 -20.936 -20.686  0.00  0.00    -0.274 OA
ATOM      2  N   UNL     1      34.117 -20.148 -20.894  0.00  0.00    -0.209 N 
ATOM      3  N   UNL     1      35.745 -20.862 -19.300  0.00  0.00    -0.389 NA
ATOM      4  C   UNL     1      34.768 -18.650 -22.660  0.00  0.00    +0.063 C 
ATOM      5  C   UNL     1      33.841 -19.388 -22.026  0.00  0.00    +0.089 C 
ATOM      6  C   UNL     1      36.115 -18.654 -22.131  0.00  0.00    +0.020 C 
ATOM      7  C   UNL     1      36.444 -19.364 -21.046  0.00  0.00    +0.050 C 
ATOM      8  C   UNL     1      35.409 -20.178 -20.353  0.00  0.00    +0.193 C 
ATOM      9  C   UNL     1      33.079 -20.883 -20.305  0.00  0.00    +0.242 C 
ATOM     10  C   UNL     1      34.753 -21.589 -18.705  0.00  0.00    +0.139 C 
ATOM     11  C   UNL     1      33.480 -21.657 -19.107  0.00  0.00    +0.146 C 
ENDROOT
BRANCH  10  15
ATOM     12  N   UNL     1      36.514 -23.260 -16.035  0.00  0.00    -0.178 N 
ATOM     13  N   UNL     1      36.352 -22.513 -17.157  0.00  0.00    -0.173 NA
ATOM     14  N   UNL     1      36.042 -24.508 -14.250  0.00  0.00    -0.392 NA
ATOM     15  C   UNL     1      35.107 -22.369 -17.515  0.00  0.00    +0.124 C 
ATOM     16  C   UNL     1      33.940 -22.954 -16.789  0.00  0.00    +0.023 C 
ATOM     17  C   UNL     1      34.168 -23.686 -15.682  0.00  0.00    +0.025 C 
ATOM     18  C   UNL     1      35.525 -23.855 -15.273  0.00  0.00    +0.198 C 
ATOM     19  C   UNL     1      37.714 -23.563 -15.447  0.00  0.00    +0.173 C 
ATOM     20  C   UNL     1      37.398 -24.330 -14.353  0.00  0.00    +0.111 C 
ATOM     21  C   UNL     1      33.007 -24.286 -14.933  0.00  0.00    +0.035 C 
ATOM     22  C   UNL     1      38.308 -24.927 -13.364  0.00  0.00    +0.063 C 
ENDBRANCH  10  15
BRANCH   4  24
ATOM     23  N   UNL     1      33.307 -16.215 -25.755  0.00  0.00    +0.389 N 
ATOM     24  N   UNL     1      34.512 -17.900 -23.772  0.00  0.00    -0.311 N 
ATOM     25  C   UNL     1      32.992 -17.665 -25.669  0.00  0.00    -0.027 C 
ATOM     26  C   UNL     1      32.196 -18.285 -26.796  0.00  0.00    -0.020 C 
ATOM     27  C   UNL     1      31.549 -18.076 -25.460  0.00  0.00    -0.020 C 
ATOM     28  C   UNL     1      34.077 -18.508 -25.034  0.00  0.00    +0.071 C 
ATOM     29  C   UNL     1      33.655 -15.696 -24.431  0.00  0.00    -0.060 C 
ATOM     30  C   UNL     1      34.829 -16.470 -23.832  0.00  0.00    +0.067 C 
ATOM     31  H   UNL     1      32.494 -15.713 -26.111  0.00  0.00    -0.084 HD
ATOM     32  H   UNL     1      34.099 -16.083 -26.383  0.00  0.00    -0.084 HD
ENDBRANCH   4  24
TORSDOF 2
ENDMDL
MODEL 2
REMARK VINA RESULT:     -12.3      1.729     10.000
REMARK  Name = 118513932
REMARK  2 active torsions:
REMARK  status: ('A' for Active; 'I' for Inactive)
REMARK    1  A    between atoms: C_4  and  N_24
REMARK    2  A    between atoms: C_10  and  C_15
REMARK                            x       y       z     vdW  Elec       q    Type
REMARK                         _______ _______ _______ _____ _____    ______ ____
ROOT
ATOM      1  O   UNL     1      32.187 -22.772 -18.590  0.00  0.00    -0.274 OA
ATOM      2  N   UNL     1      34.403 -22.266 -17.994  0.00  0.00    -0.209 N 
ATOM      3  N   UNL     1      35.584 -20.618 -19.257  0.00  0.00    -0.389 NA
ATOM      4  C   UNL     1      35.504 -23.359 -16.155  0.00  0.00    +0.063 C 
ATOM      5  C   UNL     1      34.429 -23.173 -16.940  0.00  0.00    +0.089 C 
ATOM      6  C   UNL     1      36.688 -22.572 -16.431  0.00  0.00    +0.020 C 
ATOM      7  C   UNL     1      36.727 -21.684 -17.429  0.00  0.00    +0.050 C 
ATOM      8  C   UNL     1      35.530 -21.485 -18.291  0.00  0.00    +0.193 C 
ATOM      9  C   UNL     1      33.232 -22.146 -18.753  0.00  0.00    +0.242 C 
ATOM     10  C   UNL     1      34.455 -20.480 -20.014  0.00  0.00    +0.139 C 
ATOM     11  C   UNL     1      33.312 -21.152 -19.849  0.00  0.00    +0.146 C 
ENDROOT
BRANCH  10  15
ATOM     12  N   UNL     1      34.518 -17.459 -21.989  0.00  0.00    -0.178 N 
ATOM     13  N   UNL     1      34.479 -18.227 -20.869  0.00  0.00    -0.173 NA
ATOM     14  N   UNL     1      34.594 -16.872 -24.136  0.00  0.00    -0.392 NA
ATOM     15  C   UNL     1      34.491 -19.508 -21.111  0.00  0.00    +0.124 C 
ATOM     16  C   UNL     1      34.542 -20.115 -22.475  0.00  0.00    +0.023 C 
ATOM     17  C   UNL     1      34.579 -19.299 -23.545  0.00  0.00    +0.025 C 
ATOM     18  C   UNL     1      34.566 -17.893 -23.301  0.00  0.00    +0.198 C 
ATOM     19  C   UNL     1      34.516 -16.090 -22.014  0.00  0.00    +0.173 C 
ATOM     20  C   UNL     1      34.563 -15.753 -23.345  0.00  0.00    +0.111 C 
ATOM     21  C   UNL     1      34.630 -19.888 -24.931  0.00  0.00    +0.035 C 
ATOM     22  C   UNL     1      34.582 -14.411 -23.945  0.00  0.00    +0.063 C 
ENDBRANCH  10  15
BRANCH   4  24
ATOM     23  N   UNL     1      35.932 -25.509 -12.572  0.00  0.00    +0.389 N 
ATOM     24  N   UNL     1      35.544 -24.245 -15.118  0.00  0.00    -0.311 N 
ATOM     25  C   UNL     1      37.048 -25.350 -13.541  0.00  0.00    -0.027 C 
ATOM     26  C   UNL     1      38.344 -26.075 -13.255  0.00  0.00    -0.020 C 
ATOM     27  C   UNL     1      38.278 -24.585 -13.101  0.00  0.00    -0.020 C 
ATOM     28  C   UNL     1      36.614 -25.240 -14.988  0.00  0.00    +0.071 C 
ATOM     29  C   UNL     1      34.962 -24.424 -12.739  0.00  0.00    -0.060 C 
ATOM     30  C   UNL     1      34.432 -24.381 -14.172  0.00  0.00    +0.067 C 
ATOM     31  H   UNL     1      36.303 -25.486 -11.623  0.00  0.00    -0.084 HD
ATOM     32  H   UNL     1      35.467 -26.401 -12.743  0.00  0.00    -0.084 HD
ENDBRANCH   4  24
TORSDOF 2
ENDMDL
MODEL 3
REMARK VINA RESULT:     -12.0      1.550     10.029
REMARK  Name = 118513932
REMARK  2 active torsions:
REMARK  status: ('A' for Active; 'I' for Inactive)
REMARK    1  A    between atoms: C_4  and  N_24
REMARK    2  A    between atoms: C_10  and  C_15
REMARK                            x       y       z     vdW  Elec       q    Type
REMARK                         _______ _______ _______ _____ _____    ______ ____
ROOT
ATOM      1  O   UNL     1      32.066 -22.741 -18.520  0.00  0.00    -0.274 OA
ATOM      2  N   UNL     1      34.307 -22.266 -17.994  0.00  0.00    -0.209 N 
ATOM      3  N   UNL     1      35.475 -20.648 -19.306  0.00  0.00    -0.389 NA
ATOM      4  C   UNL     1      35.445 -23.362 -16.180  0.00  0.00    +0.063 C 
ATOM      5  C   UNL     1      34.349 -23.164 -16.934  0.00  0.00    +0.089 C 
ATOM      6  C   UNL     1      36.632 -22.597 -16.497  0.00  0.00    +0.020 C 
ATOM      7  C   UNL     1      36.656 -21.717 -17.504  0.00  0.00    +0.050 C 
ATOM      8  C   UNL     1      35.436 -21.507 -18.331  0.00  0.00    +0.193 C 
ATOM      9  C   UNL     1      33.116 -22.134 -18.719  0.00  0.00    +0.242 C 
ATOM     10  C   UNL     1      34.326 -20.498 -20.030  0.00  0.00    +0.139 C 
ATOM     11  C   UNL     1      33.178 -21.150 -19.826  0.00  0.00    +0.146 C 
ENDROOT
BRANCH  10  15
ATOM     12  N   UNL     1      34.201 -18.917 -23.273  0.00  0.00    -0.178 N 
ATOM     13  N   UNL     1      34.156 -19.926 -22.365  0.00  0.00    -0.173 NA
ATOM     14  N   UNL     1      34.399 -16.875 -24.141  0.00  0.00    -0.392 NA
ATOM     15  C   UNL     1      34.345 -19.535 -21.136  0.00  0.00    +0.124 C 
ATOM     16  C   UNL     1      34.592 -18.121 -20.722  0.00  0.00    +0.023 C 
ATOM     17  C   UNL     1      34.625 -17.166 -21.671  0.00  0.00    +0.025 C 
ATOM     18  C   UNL     1      34.421 -17.574 -23.023  0.00  0.00    +0.198 C 
ATOM     19  C   UNL     1      34.035 -19.055 -24.625  0.00  0.00    +0.173 C 
ATOM     20  C   UNL     1      34.161 -17.787 -25.137  0.00  0.00    +0.111 C 
ATOM     21  C   UNL     1      34.873 -15.733 -21.278  0.00  0.00    +0.035 C 
ATOM     22  C   UNL     1      34.069 -17.356 -26.540  0.00  0.00    +0.063 C 
ENDBRANCH  10  15
BRANCH   4  24
ATOM     23  N   UNL     1      35.919 -25.480 -12.584  0.00  0.00    +0.389 N 
ATOM     24  N   UNL     1      35.501 -24.240 -15.136  0.00  0.00    -0.311 N 
ATOM     25  C   UNL     1      37.028 -25.314 -13.559  0.00  0.00    -0.027 C 
ATOM     26  C   UNL     1      38.335 -26.020 -13.275  0.00  0.00    -0.020 C 
ATOM     27  C   UNL     1      38.250 -24.530 -13.132  0.00  0.00    -0.020 C 
ATOM     28  C   UNL     1      36.585 -25.219 -15.005  0.00  0.00    +0.071 C 
ATOM     29  C   UNL     1      34.934 -24.410 -12.753  0.00  0.00    -0.060 C 
ATOM     30  C   UNL     1      34.396 -24.384 -14.184  0.00  0.00    +0.067 C 
ATOM     31  H   UNL     1      36.295 -25.446 -11.637  0.00  0.00    -0.084 HD
ATOM     32  H   UNL     1      35.466 -26.379 -12.746  0.00  0.00    -0.084 HD
ENDBRANCH   4  24
TORSDOF 2
ENDMDL
MODEL 4
REMARK VINA RESULT:     -11.8      1.368      1.812
REMARK  Name = 118513932
REMARK  2 active torsions:
REMARK  status: ('A' for Active; 'I' for Inactive)
REMARK    1  A    between atoms: C_4  and  N_24
REMARK    2  A    between atoms: C_10  and  C_15
REMARK                            x       y       z     vdW  Elec       q    Type
REMARK                         _______ _______ _______ _____ _____    ______ ____
ROOT
ATOM      1  O   UNL     1      37.536 -19.826 -20.570  0.00  0.00    -0.274 OA
ATOM      2  N   UNL     1      35.210 -20.016 -20.851  0.00  0.00    -0.209 N 
ATOM      3  N   UNL     1      33.967 -21.319 -19.283  0.00  0.00    -0.389 NA
ATOM      4  C   UNL     1      34.059 -18.938 -22.668  0.00  0.00    +0.063 C 
ATOM      5  C   UNL     1      35.186 -19.222 -21.993  0.00  0.00    +0.089 C 
ATOM      6  C   UNL     1      32.816 -19.491 -22.174  0.00  0.00    +0.020 C 
ATOM      7  C   UNL     1      32.772 -20.261 -21.082  0.00  0.00    +0.050 C 
ATOM      8  C   UNL     1      34.026 -20.568 -20.342  0.00  0.00    +0.193 C 
ATOM      9  C   UNL     1      36.438 -20.253 -20.220  0.00  0.00    +0.242 C 
ATOM     10  C   UNL     1      35.150 -21.567 -18.646  0.00  0.00    +0.139 C 
ATOM     11  C   UNL     1      36.351 -21.110 -19.013  0.00  0.00    +0.146 C 
ENDROOT
BRANCH  10  15
ATOM     12  N   UNL     1      36.002 -23.538 -15.745  0.00  0.00    -0.178 N 
ATOM     13  N   UNL     1      36.207 -22.758 -16.837  0.00  0.00    -0.173 NA
ATOM     14  N   UNL     1      34.964 -24.722 -14.169  0.00  0.00    -0.392 NA
ATOM     15  C   UNL     1      35.109 -22.411 -17.448  0.00  0.00    +0.124 C 
ATOM     16  C   UNL     1      33.735 -22.814 -17.020  0.00  0.00    +0.023 C 
ATOM     17  C   UNL     1      33.599 -23.589 -15.928  0.00  0.00    +0.025 C 
ATOM     18  C   UNL     1      34.790 -23.980 -15.246  0.00  0.00    +0.198 C 
ATOM     19  C   UNL     1      36.982 -24.037 -14.929  0.00  0.00    +0.173 C 
ATOM     20  C   UNL     1      36.319 -24.761 -13.968  0.00  0.00    +0.111 C 
ATOM     21  C   UNL     1      32.224 -24.008 -15.478  0.00  0.00    +0.035 C 
ATOM     22  C   UNL     1      36.887 -25.511 -12.838  0.00  0.00    +0.063 C 
ENDBRANCH  10  15
BRANCH   4  24
ATOM     23  N   UNL     1      33.270 -16.308 -25.847  0.00  0.00    +0.389 N 
ATOM     24  N   UNL     1      34.020 -18.160 -23.789  0.00  0.00    -0.311 N 
ATOM     25  C   UNL     1      32.719 -17.687 -25.802  0.00  0.00    -0.027 C 
ATOM     26  C   UNL     1      31.928 -18.175 -26.996  0.00  0.00    -0.020 C 
ATOM     27  C   UNL     1      31.217 -17.858 -25.714  0.00  0.00    -0.020 C 
ATOM     28  C   UNL     1      33.598 -18.694 -25.088  0.00  0.00    +0.071 C 
ATOM     29  C   UNL     1      33.589 -15.848 -24.494  0.00  0.00    -0.060 C 
ATOM     30  C   UNL     1      34.569 -16.801 -23.809  0.00  0.00    +0.067 C 
ATOM     31  H   UNL     1      32.582 -15.682 -26.263  0.00  0.00    -0.084 HD
ATOM     32  H   UNL     1      34.123 -16.309 -26.408  0.00  0.00    -0.084 HD
ENDBRANCH   4  24
TORSDOF 2
ENDMDL
MODEL 5
REMARK VINA RESULT:     -11.5      6.859     11.012
REMARK  Name = 118513932
REMARK  2 active torsions:
REMARK  status: ('A' for Active; 'I' for Inactive)
REMARK    1  A    between atoms: C_4  and  N_24
REMARK    2  A    between atoms: C_10  and  C_15
REMARK                            x       y       z     vdW  Elec       q    Type
REMARK                         _______ _______ _______ _____ _____    ______ ____
ROOT
ATOM      1  O   UNL     1      33.912 -10.667 -26.293  0.00  0.00    -0.274 OA
ATOM      2  N   UNL     1      32.804 -10.568 -24.222  0.00  0.00    -0.209 N 
ATOM      3  N   UNL     1      32.755 -12.522 -22.852  0.00  0.00    -0.389 NA
ATOM      4  C   UNL     1      31.724  -8.559 -23.456  0.00  0.00    +0.063 C 
ATOM      5  C   UNL     1      32.433  -9.237 -24.377  0.00  0.00    +0.089 C 
ATOM      6  C   UNL     1      31.335  -9.260 -22.251  0.00  0.00    +0.020 C 
ATOM      7  C   UNL     1      31.661 -10.540 -22.043  0.00  0.00    +0.050 C 
ATOM      8  C   UNL     1      32.446 -11.279 -23.069  0.00  0.00    +0.193 C 
ATOM      9  C   UNL     1      33.542 -11.185 -25.241  0.00  0.00    +0.242 C 
ATOM     10  C   UNL     1      33.475 -13.150 -23.828  0.00  0.00    +0.139 C 
ATOM     11  C   UNL     1      33.886 -12.602 -24.976  0.00  0.00    +0.146 C 
ENDROOT
BRANCH  10  15
ATOM     12  N   UNL     1      34.555 -16.284 -22.401  0.00  0.00    -0.178 N 
ATOM     13  N   UNL     1      34.265 -14.958 -22.445  0.00  0.00    -0.173 NA
ATOM     14  N   UNL     1      34.812 -18.404 -23.033  0.00  0.00    -0.392 NA
ATOM     15  C   UNL     1      33.836 -14.554 -23.607  0.00  0.00    +0.124 C 
ATOM     16  C   UNL     1      33.666 -15.433 -24.804  0.00  0.00    +0.023 C 
ATOM     17  C   UNL     1      33.971 -16.739 -24.694  0.00  0.00    +0.025 C 
ATOM     18  C   UNL     1      34.443 -17.202 -23.429  0.00  0.00    +0.198 C 
ATOM     19  C   UNL     1      35.021 -16.960 -21.304  0.00  0.00    +0.173 C 
ATOM     20  C   UNL     1      35.171 -18.261 -21.718  0.00  0.00    +0.111 C 
ATOM     21  C   UNL     1      33.808 -17.645 -25.887  0.00  0.00    +0.035 C 
ATOM     22  C   UNL     1      35.643 -19.416 -20.941  0.00  0.00    +0.063 C 
ENDBRANCH  10  15
BRANCH   4  24
ATOM     23  N   UNL     1      31.106  -4.406 -23.345  0.00  0.00    +0.389 N 
ATOM     24  N   UNL     1      31.353  -7.253 -23.593  0.00  0.00    -0.311 N 
ATOM     25  C   UNL     1      30.462  -5.331 -22.376  0.00  0.00    -0.027 C 
ATOM     26  C   UNL     1      29.479  -4.748 -21.385  0.00  0.00    -0.020 C 
ATOM     27  C   UNL     1      30.826  -5.206 -20.912  0.00  0.00    -0.020 C 
ATOM     28  C   UNL     1      30.165  -6.711 -22.926  0.00  0.00    +0.071 C 
ATOM     29  C   UNL     1      32.320  -5.016 -23.893  0.00  0.00    -0.060 C 
ATOM     30  C   UNL     1      32.006  -6.358 -24.554  0.00  0.00    +0.067 C 
ATOM     31  H   UNL     1      31.350  -3.537 -22.871  0.00  0.00    -0.084 HD
ATOM     32  H   UNL     1      30.455  -4.216 -24.107  0.00  0.00    -0.084 HD
ENDBRANCH   4  24
TORSDOF 2
ENDMDL
MODEL 6
REMARK VINA RESULT:     -11.4      6.854     10.879
REMARK  Name = 118513932
REMARK  2 active torsions:
REMARK  status: ('A' for Active; 'I' for Inactive)
REMARK    1  A    between atoms: C_4  and  N_24
REMARK    2  A    between atoms: C_10  and  C_15
REMARK                            x       y       z     vdW  Elec       q    Type
REMARK                         _______ _______ _______ _____ _____    ______ ____
ROOT
ATOM      1  O   UNL     1      30.822 -11.154 -21.006  0.00  0.00    -0.274 OA
ATOM      2  N   UNL     1      32.126 -10.543 -22.863  0.00  0.00    -0.209 N 
ATOM      3  N   UNL     1      33.596 -12.165 -23.816  0.00  0.00    -0.389 NA
ATOM      4  C   UNL     1      32.018  -8.339 -23.819  0.00  0.00    +0.063 C 
ATOM      5  C   UNL     1      31.628  -9.246 -22.907  0.00  0.00    +0.089 C 
ATOM      6  C   UNL     1      33.006  -8.743 -24.797  0.00  0.00    +0.020 C 
ATOM      7  C   UNL     1      33.524  -9.975 -24.807  0.00  0.00    +0.050 C 
ATOM      8  C   UNL     1      33.084 -10.972 -23.793  0.00  0.00    +0.193 C 
ATOM      9  C   UNL     1      31.655 -11.413 -21.872  0.00  0.00    +0.242 C 
ATOM     10  C   UNL     1      33.154 -13.037 -22.861  0.00  0.00    +0.139 C 
ATOM     11  C   UNL     1      32.249 -12.770 -21.914  0.00  0.00    +0.146 C 
ENDROOT
BRANCH  10  15
ATOM     12  N   UNL     1      34.610 -16.205 -21.930  0.00  0.00    -0.178 N 
ATOM     13  N   UNL     1      34.114 -14.953 -21.759  0.00  0.00    -0.173 NA
ATOM     14  N   UNL     1      35.256 -18.097 -22.913  0.00  0.00    -0.392 NA
ATOM     15  C   UNL     1      33.718 -14.390 -22.866  0.00  0.00    +0.124 C 
ATOM     16  C   UNL     1      33.788 -15.027 -24.216  0.00  0.00    +0.023 C 
ATOM     17  C   UNL     1      34.291 -16.271 -24.318  0.00  0.00    +0.025 C 
ATOM     18  C   UNL     1      34.729 -16.905 -23.117  0.00  0.00    +0.198 C 
ATOM     19  C   UNL     1      35.090 -17.013 -20.934  0.00  0.00    +0.173 C 
ATOM     20  C   UNL     1      35.481 -18.170 -21.562  0.00  0.00    +0.111 C 
ATOM     21  C   UNL     1      34.372 -16.934 -25.669  0.00  0.00    +0.035 C 
ATOM     22  C   UNL     1      36.070 -19.378 -20.966  0.00  0.00    +0.063 C 
ENDBRANCH  10  15
BRANCH   4  24
ATOM     23  N   UNL     1      31.070  -4.261 -23.471  0.00  0.00    +0.389 N 
ATOM     24  N   UNL     1      31.538  -7.062 -23.876  0.00  0.00    -0.311 N 
ATOM     25  C   UNL     1      30.539  -5.283 -22.532  0.00  0.00    -0.027 C 
ATOM     26  C   UNL     1      29.550  -4.833 -21.480  0.00  0.00    -0.020 C 
ATOM     27  C   UNL     1      30.946  -5.201 -21.075  0.00  0.00    -0.020 C 
ATOM     28  C   UNL     1      30.335  -6.654 -23.143  0.00  0.00    +0.071 C 
ATOM     29  C   UNL     1      32.308  -4.741 -24.090  0.00  0.00    -0.060 C 
ATOM     30  C   UNL     1      32.080  -6.070 -24.809  0.00  0.00    +0.067 C 
ATOM     31  H   UNL     1      31.260  -3.400 -22.961  0.00  0.00    -0.084 HD
ATOM     32  H   UNL     1      30.378  -4.088 -24.200  0.00  0.00    -0.084 HD
ENDBRANCH   4  24
TORSDOF 2
ENDMDL
MODEL 7
REMARK VINA RESULT:     -11.4      6.937     13.276
REMARK  Name = 118513932
REMARK  2 active torsions:
REMARK  status: ('A' for Active; 'I' for Inactive)
REMARK    1  A    between atoms: C_4  and  N_24
REMARK    2  A    between atoms: C_10  and  C_15
REMARK                            x       y       z     vdW  Elec       q    Type
REMARK                         _______ _______ _______ _____ _____    ______ ____
ROOT
ATOM      1  O   UNL     1      32.668 -11.681 -27.497  0.00  0.00    -0.274 OA
ATOM      2  N   UNL     1      33.037 -12.535 -25.339  0.00  0.00    -0.209 N 
ATOM      3  N   UNL     1      33.060 -11.019 -23.494  0.00  0.00    -0.389 NA
ATOM      4  C   UNL     1      33.389 -14.881 -24.945  0.00  0.00    +0.063 C 
ATOM      5  C   UNL     1      33.156 -13.850 -25.775  0.00  0.00    +0.089 C 
ATOM      6  C   UNL     1      33.522 -14.598 -23.532  0.00  0.00    +0.020 C 
ATOM      7  C   UNL     1      33.418 -13.355 -23.050  0.00  0.00    +0.050 C 
ATOM      8  C   UNL     1      33.159 -12.220 -23.978  0.00  0.00    +0.193 C 
ATOM      9  C   UNL     1      32.794 -11.530 -26.284  0.00  0.00    +0.242 C 
ATOM     10  C   UNL     1      32.823 -10.018 -24.393  0.00  0.00    +0.139 C 
ATOM     11  C   UNL     1      32.684 -10.166 -25.714  0.00  0.00    +0.146 C 
ENDROOT
BRANCH  10  15
ATOM     12  N   UNL     1      32.478  -6.442 -24.043  0.00  0.00    -0.178 N 
ATOM     13  N   UNL     1      32.573  -7.638 -24.679  0.00  0.00    -0.173 NA
ATOM     14  N   UNL     1      32.394  -4.927 -22.412  0.00  0.00    -0.392 NA
ATOM     15  C   UNL     1      32.708  -8.652 -23.872  0.00  0.00    +0.124 C 
ATOM     16  C   UNL     1      32.760  -8.552 -22.382  0.00  0.00    +0.023 C 
ATOM     17  C   UNL     1      32.661  -7.336 -21.812  0.00  0.00    +0.025 C 
ATOM     18  C   UNL     1      32.512  -6.213 -22.679  0.00  0.00    +0.198 C 
ATOM     19  C   UNL     1      32.330  -5.226 -24.654  0.00  0.00    +0.173 C 
ATOM     20  C   UNL     1      32.281  -4.310 -23.632  0.00  0.00    +0.111 C 
ATOM     21  C   UNL     1      32.711  -7.210 -20.311  0.00  0.00    +0.035 C 
ATOM     22  C   UNL     1      32.129  -2.851 -23.721  0.00  0.00    +0.063 C 
ENDBRANCH  10  15
BRANCH   4  24
ATOM     23  N   UNL     1      33.232 -19.013 -25.683  0.00  0.00    +0.389 N 
ATOM     24  N   UNL     1      33.508 -16.177 -25.358  0.00  0.00    -0.311 N 
ATOM     25  C   UNL     1      34.067 -18.432 -24.601  0.00  0.00    -0.027 C 
ATOM     26  C   UNL     1      34.958 -19.366 -23.813  0.00  0.00    -0.020 C 
ATOM     27  C   UNL     1      33.735 -18.786 -23.167  0.00  0.00    -0.020 C 
ATOM     28  C   UNL     1      34.597 -17.042 -24.892  0.00  0.00    +0.071 C 
ATOM     29  C   UNL     1      32.135 -18.103 -26.018  0.00  0.00    -0.060 C 
ATOM     30  C   UNL     1      32.669 -16.730 -26.426  0.00  0.00    +0.067 C 
ATOM     31  H   UNL     1      32.847 -19.904 -25.371  0.00  0.00    -0.084 HD
ATOM     32  H   UNL     1      33.811 -19.155 -26.511  0.00  0.00    -0.084 HD
ENDBRANCH   4  24
TORSDOF 2
ENDMDL
MODEL 8
REMARK VINA RESULT:     -11.2      6.152     10.483
REMARK  Name = 118513932
REMARK  2 active torsions:
REMARK  status: ('A' for Active; 'I' for Inactive)
REMARK    1  A    between atoms: C_4  and  N_24
REMARK    2  A    between atoms: C_10  and  C_15
REMARK                            x       y       z     vdW  Elec       q    Type
REMARK                         _______ _______ _______ _____ _____    ______ ____
ROOT
ATOM      1  O   UNL     1      32.412 -12.573 -27.912  0.00  0.00    -0.274 OA
ATOM      2  N   UNL     1      32.934 -11.625 -25.825  0.00  0.00    -0.209 N 
ATOM      3  N   UNL     1      33.589 -13.070 -24.041  0.00  0.00    -0.389 NA
ATOM      4  C   UNL     1      32.825  -9.252 -25.446  0.00  0.00    +0.063 C 
ATOM      5  C   UNL     1      32.690 -10.323 -26.248  0.00  0.00    +0.089 C 
ATOM      6  C   UNL     1      33.244  -9.478 -24.079  0.00  0.00    +0.020 C 
ATOM      7  C   UNL     1      33.494 -10.706 -23.612  0.00  0.00    +0.050 C 
ATOM      8  C   UNL     1      33.342 -11.884 -24.510  0.00  0.00    +0.193 C 
ATOM      9  C   UNL     1      32.764 -12.674 -26.739  0.00  0.00    +0.242 C 
ATOM     10  C   UNL     1      33.432 -14.113 -24.910  0.00  0.00    +0.139 C 
ATOM     11  C   UNL     1      33.051 -14.019 -26.187  0.00  0.00    +0.146 C 
ENDROOT
BRANCH  10  15
ATOM     12  N   UNL     1      34.440 -16.945 -22.912  0.00  0.00    -0.178 N 
ATOM     13  N   UNL     1      34.255 -15.639 -23.237  0.00  0.00    -0.173 NA
ATOM     14  N   UNL     1      34.433 -19.168 -23.048  0.00  0.00    -0.392 NA
ATOM     15  C   UNL     1      33.704 -15.462 -24.404  0.00  0.00    +0.124 C 
ATOM     16  C   UNL     1      33.299 -16.563 -25.329  0.00  0.00    +0.023 C 
ATOM     17  C   UNL     1      33.509 -17.837 -24.949  0.00  0.00    +0.025 C 
ATOM     18  C   UNL     1      34.112 -18.052 -23.673  0.00  0.00    +0.198 C 
ATOM     19  C   UNL     1      34.996 -17.404 -21.748  0.00  0.00    +0.173 C 
ATOM     20  C   UNL     1      34.980 -18.773 -21.855  0.00  0.00    +0.111 C 
ATOM     21  C   UNL     1      33.109 -18.964 -25.865  0.00  0.00    +0.035 C 
ATOM     22  C   UNL     1      35.459 -19.769 -20.885  0.00  0.00    +0.063 C 
ENDBRANCH  10  15
BRANCH   4  24
ATOM     23  N   UNL     1      32.599  -5.115 -26.136  0.00  0.00    +0.389 N 
ATOM     24  N   UNL     1      32.590  -7.969 -25.847  0.00  0.00    -0.311 N 
ATOM     25  C   UNL     1      31.807  -5.787 -25.074  0.00  0.00    -0.027 C 
ATOM     26  C   UNL     1      30.820  -4.951 -24.289  0.00  0.00    -0.020 C 
ATOM     27  C   UNL     1      32.083  -5.421 -23.631  0.00  0.00    -0.020 C 
ATOM     28  C   UNL     1      31.417  -7.217 -25.389  0.00  0.00    +0.071 C 
ATOM     29  C   UNL     1      33.783  -5.913 -26.464  0.00  0.00    -0.060 C 
ATOM     30  C   UNL     1      33.387  -7.326 -26.895  0.00  0.00    +0.067 C 
ATOM     31  H   UNL     1      32.893  -4.196 -25.808  0.00  0.00    -0.084 HD
ATOM     32  H   UNL     1      32.021  -5.018 -26.971  0.00  0.00    -0.084 HD
ENDBRANCH   4  24
TORSDOF 2
ENDMDL
MODEL 9
REMARK VINA RESULT:     -11.0      7.715     12.310
REMARK  Name = 118513932
REMARK  2 active torsions:
REMARK  status: ('A' for Active; 'I' for Inactive)
REMARK    1  A    between atoms: C_4  and  N_24
REMARK    2  A    between atoms: C_10  and  C_15
REMARK                            x       y       z     vdW  Elec       q    Type
REMARK                         _______ _______ _______ _____ _____    ______ ____
ROOT
ATOM      1  O   UNL     1      34.006  -8.886 -25.711  0.00  0.00    -0.274 OA
ATOM      2  N   UNL     1      32.784  -9.291 -23.744  0.00  0.00    -0.209 N 
ATOM      3  N   UNL     1      32.501 -11.547 -23.013  0.00  0.00    -0.389 NA
ATOM      4  C   UNL     1      31.817  -7.502 -22.459  0.00  0.00    +0.063 C 
ATOM      5  C   UNL     1      32.526  -7.944 -23.512  0.00  0.00    +0.089 C 
ATOM      6  C   UNL     1      31.302  -8.484 -21.528  0.00  0.00    +0.020 C 
ATOM      7  C   UNL     1      31.515  -9.793 -21.696  0.00  0.00    +0.050 C 
ATOM      8  C   UNL     1      32.302 -10.271 -22.865  0.00  0.00    +0.193 C 
ATOM      9  C   UNL     1      33.533  -9.650 -24.872  0.00  0.00    +0.242 C 
ATOM     10  C   UNL     1      33.229 -11.926 -24.105  0.00  0.00    +0.139 C 
ATOM     11  C   UNL     1      33.750 -11.108 -25.025  0.00  0.00    +0.146 C 
ENDROOT
BRANCH  10  15
ATOM     12  N   UNL     1      34.202 -15.378 -23.698  0.00  0.00    -0.178 N 
ATOM     13  N   UNL     1      34.057 -14.068 -23.373  0.00  0.00    -0.173 NA
ATOM     14  N   UNL     1      34.100 -17.286 -24.844  0.00  0.00    -0.392 NA
ATOM     15  C   UNL     1      33.467 -13.360 -24.295  0.00  0.00    +0.124 C 
ATOM     16  C   UNL     1      32.980 -13.901 -25.600  0.00  0.00    +0.023 C 
ATOM     17  C   UNL     1      33.154 -15.210 -25.862  0.00  0.00    +0.025 C 
ATOM     18  C   UNL     1      33.799 -16.002 -24.865  0.00  0.00    +0.198 C 
ATOM     19  C   UNL     1      34.786 -16.333 -22.909  0.00  0.00    +0.173 C 
ATOM     20  C   UNL     1      34.711 -17.497 -23.635  0.00  0.00    +0.111 C 
ATOM     21  C   UNL     1      32.672 -15.779 -27.172  0.00  0.00    +0.035 C 
ATOM     22  C   UNL     1      35.188 -18.837 -23.262  0.00  0.00    +0.063 C 
ENDBRANCH  10  15
BRANCH   4  24
ATOM     23  N   UNL     1      30.359  -3.581 -22.076  0.00  0.00    +0.389 N 
ATOM     24  N   UNL     1      31.557  -6.184 -22.218  0.00  0.00    -0.311 N 
ATOM     25  C   UNL     1      31.043  -4.057 -23.306  0.00  0.00    -0.027 C 
ATOM     26  C   UNL     1      31.299  -3.054 -24.408  0.00  0.00    -0.020 C 
ATOM     27  C   UNL     1      30.250  -4.109 -24.595  0.00  0.00    -0.020 C 
ATOM     28  C   UNL     1      32.098  -5.119 -23.069  0.00  0.00    +0.071 C 
ATOM     29  C   UNL     1      29.794  -4.716 -21.342  0.00  0.00    -0.060 C 
ATOM     30  C   UNL     1      30.877  -5.738 -20.998  0.00  0.00    +0.067 C 
ATOM     31  H   UNL     1      29.610  -2.939 -22.332  0.00  0.00    -0.084 HD
ATOM     32  H   UNL     1      31.037  -3.105 -21.481  0.00  0.00    -0.084 HD
ENDBRANCH   4  24
TORSDOF 2
ENDMDL
