MODEL 1
REMARK VINA RESULT:     -12.9      0.000      0.000
REMARK  Name = 24752833
REMARK  4 active torsions:
REMARK  status: ('A' for Active; 'I' for Inactive)
REMARK    1  A    between atoms: C_1  and  N_8
REMARK    2  A    between atoms: C_2  and  N_23
REMARK    3  A    between atoms: C_9  and  C_14
REMARK    4  A    between atoms: C_24  and  C_28
REMARK                            x       y       z     vdW  Elec       q    Type
REMARK                         _______ _______ _______ _____ _____    ______ ____
ROOT
ATOM      1  C   UNL     1      31.167 -23.251 -15.360  0.00  0.00    +0.090 C 
ATOM      2  C   UNL     1      30.713 -23.335 -16.829  0.00  0.00    +0.090 C 
ATOM      3  C   UNL     1      30.259 -24.082 -14.447  0.00  0.00    +0.021 C 
ATOM      4  C   UNL     1      29.230 -22.984 -16.982  0.00  0.00    +0.021 C 
ATOM      5  C   UNL     1      28.788 -23.714 -14.612  0.00  0.00    +0.002 C 
ATOM      6  C   UNL     1      28.347 -23.827 -16.067  0.00  0.00    +0.002 C 
ENDROOT
BRANCH   1   8
ATOM      7  O   UNL     1      32.560 -23.730 -12.895  0.00  0.00    -0.267 OA
ATOM      8  N   UNL     1      32.539 -23.685 -15.213  0.00  0.00    -0.298 N 
ATOM      9  C   UNL     1      33.124 -23.890 -13.974  0.00  0.00    +0.282 C 
ATOM     10  H   UNL     1      33.077 -23.841 -16.024  0.00  0.00    +0.150 HD
BRANCH   9  14
ATOM     11  S   UNL     1      35.177 -25.202 -15.324  0.00  0.00    -0.074 S 
ATOM     12  N   UNL     1      38.930 -26.040 -14.020  0.00  0.00    +0.387 N 
ATOM     13  N   UNL     1      35.391 -24.033 -13.017  0.00  0.00    -0.399 NA
ATOM     14  C   UNL     1      34.549 -24.310 -13.992  0.00  0.00    +0.210 C 
ATOM     15  C   UNL     1      36.621 -24.560 -13.345  0.00  0.00    +0.093 C 
ATOM     16  C   UNL     1      36.687 -25.229 -14.548  0.00  0.00    +0.082 C 
ATOM     17  C   UNL     1      37.803 -24.447 -12.450  0.00  0.00    +0.032 C 
ATOM     18  C   UNL     1      37.928 -25.852 -15.097  0.00  0.00    -0.059 C 
ATOM     19  C   UNL     1      39.101 -24.813 -13.209  0.00  0.00    -0.070 C 
ATOM     20  C   UNL     1      40.209 -26.466 -14.587  0.00  0.00    -0.101 C 
ATOM     21  H   UNL     1      38.585 -26.770 -13.396  0.00  0.00    -0.080 HD
ENDBRANCH   9  14
ENDBRANCH   1   8
BRANCH   2  23
ATOM     22  O   UNL     1      33.161 -24.021 -18.163  0.00  0.00    -0.269 OA
ATOM     23  N   UNL     1      31.511 -22.470 -17.669  0.00  0.00    -0.300 N 
ATOM     24  C   UNL     1      32.683 -22.895 -18.272  0.00  0.00    +0.259 C 
ATOM     25  H   UNL     1      31.209 -21.545 -17.819  0.00  0.00    +0.150 HD
BRANCH  24  28
ATOM     26 CL   UNL     1      35.419 -17.284 -22.819  0.00  0.00    -0.082 Cl
ATOM     27  N   UNL     1      34.761 -21.746 -19.106  0.00  0.00    -0.309 N 
ATOM     28  C   UNL     1      33.399 -21.878 -19.084  0.00  0.00    +0.102 C 
ATOM     29  C   UNL     1      32.867 -20.925 -19.921  0.00  0.00    +0.020 C 
ATOM     30  C   UNL     1      35.125 -20.719 -19.948  0.00  0.00    +0.048 C 
ATOM     31  C   UNL     1      33.947 -20.183 -20.475  0.00  0.00    +0.016 C 
ATOM     32  C   UNL     1      36.392 -20.227 -20.278  0.00  0.00    +0.015 C 
ATOM     33  C   UNL     1      34.037 -19.104 -21.377  0.00  0.00    +0.013 C 
ATOM     34  C   UNL     1      35.299 -18.602 -21.718  0.00  0.00    +0.058 C 
ATOM     35  C   UNL     1      36.457 -19.156 -21.175  0.00  0.00    +0.013 C 
ATOM     36  H   UNL     1      35.390 -22.305 -18.595  0.00  0.00    +0.152 HD
ENDBRANCH  24  28
ENDBRANCH   2  23
TORSDOF 4
ENDMDL
MODEL 2
REMARK VINA RESULT:     -12.5      2.790      7.484
REMARK  Name = 24752833
REMARK  4 active torsions:
REMARK  status: ('A' for Active; 'I' for Inactive)
REMARK    1  A    between atoms: C_1  and  N_8
REMARK    2  A    between atoms: C_2  and  N_23
REMARK    3  A    between atoms: C_9  and  C_14
REMARK    4  A    between atoms: C_24  and  C_28
REMARK                            x       y       z     vdW  Elec       q    Type
REMARK                         _______ _______ _______ _____ _____    ______ ____
ROOT
ATOM      1  C   UNL     1      30.583 -23.304 -16.880  0.00  0.00    +0.090 C 
ATOM      2  C   UNL     1      30.982 -23.142 -15.402  0.00  0.00    +0.090 C 
ATOM      3  C   UNL     1      29.099 -22.989 -17.095  0.00  0.00    +0.021 C 
ATOM      4  C   UNL     1      30.061 -23.944 -14.478  0.00  0.00    +0.021 C 
ATOM      5  C   UNL     1      28.200 -23.801 -16.169  0.00  0.00    +0.002 C 
ATOM      6  C   UNL     1      28.590 -23.610 -14.708  0.00  0.00    +0.002 C 
ENDROOT
BRANCH   1   8
ATOM      7  O   UNL     1      33.126 -23.972 -18.035  0.00  0.00    -0.267 OA
ATOM      8  N   UNL     1      31.392 -22.462 -17.734  0.00  0.00    -0.298 N 
ATOM      9  C   UNL     1      32.612 -22.877 -18.245  0.00  0.00    +0.282 C 
ATOM     10  H   UNL     1      31.064 -21.561 -17.961  0.00  0.00    +0.150 HD
BRANCH   9  14
ATOM     11  S   UNL     1      32.456 -20.780 -20.073  0.00  0.00    -0.074 S 
ATOM     12  N   UNL     1      35.472 -18.951 -22.085  0.00  0.00    +0.387 N 
ATOM     13  N   UNL     1      34.647 -21.797 -19.123  0.00  0.00    -0.399 NA
ATOM     14  C   UNL     1      33.333 -21.886 -19.085  0.00  0.00    +0.210 C 
ATOM     15  C   UNL     1      34.988 -20.784 -19.991  0.00  0.00    +0.093 C 
ATOM     16  C   UNL     1      33.936 -20.133 -20.598  0.00  0.00    +0.082 C 
ATOM     17  C   UNL     1      36.400 -20.426 -20.286  0.00  0.00    +0.032 C 
ATOM     18  C   UNL     1      34.089 -18.995 -21.552  0.00  0.00    -0.059 C 
ATOM     19  C   UNL     1      36.480 -19.059 -21.005  0.00  0.00    -0.070 C 
ATOM     20  C   UNL     1      35.677 -17.730 -22.863  0.00  0.00    -0.101 C 
ATOM     21  H   UNL     1      35.597 -19.758 -22.697  0.00  0.00    -0.080 HD
ENDBRANCH   9  14
ENDBRANCH   1   8
BRANCH   2  23
ATOM     22  O   UNL     1      32.280 -23.539 -12.873  0.00  0.00    -0.269 OA
ATOM     23  N   UNL     1      32.356 -23.538 -15.189  0.00  0.00    -0.300 N 
ATOM     24  C   UNL     1      32.894 -23.704 -13.924  0.00  0.00    +0.259 C 
ATOM     25  H   UNL     1      32.931 -23.696 -15.973  0.00  0.00    +0.150 HD
BRANCH  24  28
ATOM     26 CL   UNL     1      40.165 -26.216 -14.612  0.00  0.00    -0.082 Cl
ATOM     27  N   UNL     1      35.179 -23.719 -12.868  0.00  0.00    -0.309 N 
ATOM     28  C   UNL     1      34.328 -24.088 -13.875  0.00  0.00    +0.102 C 
ATOM     29  C   UNL     1      35.040 -24.844 -14.777  0.00  0.00    +0.020 C 
ATOM     30  C   UNL     1      36.438 -24.224 -13.102  0.00  0.00    +0.048 C 
ATOM     31  C   UNL     1      36.378 -24.939 -14.302  0.00  0.00    +0.016 C 
ATOM     32  C   UNL     1      37.614 -24.104 -12.353  0.00  0.00    +0.015 C 
ATOM     33  C   UNL     1      37.547 -25.565 -14.777  0.00  0.00    +0.013 C 
ATOM     34  C   UNL     1      38.730 -25.454 -14.038  0.00  0.00    +0.058 C 
ATOM     35  C   UNL     1      38.761 -24.734 -12.845  0.00  0.00    +0.013 C 
ATOM     36  H   UNL     1      34.928 -23.172 -12.090  0.00  0.00    +0.152 HD
ENDBRANCH  24  28
ENDBRANCH   2  23
TORSDOF 4
ENDMDL
MODEL 3
REMARK VINA RESULT:     -10.5      3.044      8.159
REMARK  Name = 24752833
REMARK  4 active torsions:
REMARK  status: ('A' for Active; 'I' for Inactive)
REMARK    1  A    between atoms: C_1  and  N_8
REMARK    2  A    between atoms: C_2  and  N_23
REMARK    3  A    between atoms: C_9  and  C_14
REMARK    4  A    between atoms: C_24  and  C_28
REMARK                            x       y       z     vdW  Elec       q    Type
REMARK                         _______ _______ _______ _____ _____    ______ ____
ROOT
ATOM      1  C   UNL     1      37.146 -23.895 -15.252  0.00  0.00    +0.090 C 
ATOM      2  C   UNL     1      36.368 -25.223 -15.250  0.00  0.00    +0.090 C 
ATOM      3  C   UNL     1      38.648 -24.128 -15.059  0.00  0.00    +0.021 C 
ATOM      4  C   UNL     1      36.687 -26.061 -14.007  0.00  0.00    +0.021 C 
ATOM      5  C   UNL     1      38.943 -24.959 -13.815  0.00  0.00    +0.002 C 
ATOM      6  C   UNL     1      38.186 -26.283 -13.838  0.00  0.00    +0.002 C 
ENDROOT
BRANCH   1   8
ATOM      7  O   UNL     1      35.035 -22.015 -15.757  0.00  0.00    -0.267 OA
ATOM      8  N   UNL     1      36.918 -23.160 -16.477  0.00  0.00    -0.298 N 
ATOM      9  C   UNL     1      35.865 -22.270 -16.624  0.00  0.00    +0.282 C 
ATOM     10  H   UNL     1      37.533 -23.296 -17.234  0.00  0.00    +0.150 HD
BRANCH   9  14
ATOM     11  S   UNL     1      34.364 -21.871 -18.937  0.00  0.00    -0.074 S 
ATOM     12  N   UNL     1      35.424 -19.915 -22.333  0.00  0.00    +0.387 N 
ATOM     13  N   UNL     1      36.683 -20.818 -18.440  0.00  0.00    -0.399 NA
ATOM     14  C   UNL     1      35.753 -21.613 -17.952  0.00  0.00    +0.210 C 
ATOM     15  C   UNL     1      36.270 -20.379 -19.678  0.00  0.00    +0.093 C 
ATOM     16  C   UNL     1      35.050 -20.851 -20.108  0.00  0.00    +0.082 C 
ATOM     17  C   UNL     1      37.097 -19.475 -20.522  0.00  0.00    +0.032 C 
ATOM     18  C   UNL     1      34.413 -20.479 -21.406  0.00  0.00    -0.059 C 
ATOM     19  C   UNL     1      36.255 -18.881 -21.676  0.00  0.00    -0.070 C 
ATOM     20  C   UNL     1      34.772 -19.374 -23.525  0.00  0.00    -0.101 C 
ATOM     21  H   UNL     1      36.049 -20.672 -22.613  0.00  0.00    -0.080 HD
ENDBRANCH   9  14
ENDBRANCH   1   8
BRANCH   2  23
ATOM     22  O   UNL     1      34.679 -24.175 -13.178  0.00  0.00    -0.269 OA
ATOM     23  N   UNL     1      34.943 -24.990 -15.331  0.00  0.00    -0.300 N 
ATOM     24  C   UNL     1      34.212 -24.479 -14.273  0.00  0.00    +0.259 C 
ATOM     25  H   UNL     1      34.476 -25.202 -16.172  0.00  0.00    +0.150 HD
BRANCH  24  28
ATOM     26 CL   UNL     1      26.863 -22.639 -15.775  0.00  0.00    -0.082 Cl
ATOM     27  N   UNL     1      31.844 -25.331 -14.334  0.00  0.00    -0.309 N 
ATOM     28  C   UNL     1      32.753 -24.323 -14.508  0.00  0.00    +0.102 C 
ATOM     29  C   UNL     1      32.071 -23.203 -14.924  0.00  0.00    +0.020 C 
ATOM     30  C   UNL     1      30.576 -24.883 -14.631  0.00  0.00    +0.048 C 
ATOM     31  C   UNL     1      30.692 -23.542 -15.007  0.00  0.00    +0.016 C 
ATOM     32  C   UNL     1      29.349 -25.554 -14.598  0.00  0.00    +0.015 C 
ATOM     33  C   UNL     1      29.527 -22.835 -15.366  0.00  0.00    +0.013 C 
ATOM     34  C   UNL     1      28.292 -23.494 -15.336  0.00  0.00    +0.058 C 
ATOM     35  C   UNL     1      28.207 -24.833 -14.958  0.00  0.00    +0.013 C 
ATOM     36  H   UNL     1      32.063 -26.243 -14.039  0.00  0.00    +0.152 HD
ENDBRANCH  24  28
ENDBRANCH   2  23
TORSDOF 4
ENDMDL
