MODEL 1
REMARK VINA RESULT:     -12.3      0.000      0.000
REMARK  Name = 4369498
REMARK  8 active torsions:
REMARK  status: ('A' for Active; 'I' for Inactive)
REMARK    1  A    between atoms: N_2  and  C_11
REMARK    2  A    between atoms: C_5  and  C_25
REMARK    3  A    between atoms: C_8  and  S_14
REMARK    4  A    between atoms: C_13  and  O_23
REMARK    5  A    between atoms: S_14  and  N_17
REMARK    6  A    between atoms: N_17  and  C_19
REMARK    7  A    between atoms: C_19  and  C_20
REMARK    8  A    between atoms: C_26  and  C_32
REMARK                            x       y       z     vdW  Elec       q    Type
REMARK                         _______ _______ _______ _____ _____    ______ ____
ROOT
ATOM      1  O   UNL     1      33.865 -20.481 -20.931  0.00  0.00    -0.424 OA
ATOM      2  N   UNL     1      33.539 -21.747 -19.042  0.00  0.00    -0.265 N 
ATOM      3  N   UNL     1      35.629 -20.657 -19.527  0.00  0.00    -0.193 NA
ATOM      4  C   UNL     1      34.380 -20.983 -19.775  0.00  0.00    +0.293 C 
ATOM      5  C   UNL     1      34.899 -19.768 -21.458  0.00  0.00    +0.168 C 
ATOM      6  C   UNL     1      35.967 -19.878 -20.603  0.00  0.00    +0.141 C 
ATOM      7  H   UNL     1      32.639 -21.858 -19.426  0.00  0.00    +0.157 HD
ENDROOT
BRANCH   2  11
ATOM      8  C   UNL     1      35.259 -23.158 -16.070  0.00  0.00    +0.123 C 
ATOM      9  C   UNL     1      35.039 -22.502 -17.281  0.00  0.00    +0.038 C 
ATOM     10  C   UNL     1      34.189 -23.728 -15.381  0.00  0.00    +0.023 C 
ATOM     11  C   UNL     1      33.749 -22.417 -17.803  0.00  0.00    +0.087 C 
ATOM     12  C   UNL     1      32.898 -23.643 -15.904  0.00  0.00    +0.040 C 
ATOM     13  C   UNL     1      32.678 -22.987 -17.115  0.00  0.00    +0.152 C 
BRANCH   8  14
ATOM     14  S   UNL     1      36.875 -23.269 -15.416  0.00  0.00    +0.060 S 
ATOM     15  O   UNL     1      37.795 -22.596 -16.324  0.00  0.00    -0.153 OA
ATOM     16  O   UNL     1      36.819 -22.855 -14.021  0.00  0.00    -0.153 OA
BRANCH  14  17
ATOM     17  N   UNL     1      37.181 -24.950 -15.474  0.00  0.00    -0.179 NA
ATOM     18  H   UNL     1      37.909 -25.093 -16.174  0.00  0.00    +0.149 HD
BRANCH  17  19
ATOM     19  C   UNL     1      37.614 -25.656 -14.259  0.00  0.00    +0.091 C 
BRANCH  19  20
ATOM     20  C   UNL     1      39.066 -25.425 -14.003  0.00  0.00    +0.017 C 
ATOM     21  C   UNL     1      40.066 -26.439 -14.478  0.00  0.00    +0.001 C 
ATOM     22  C   UNL     1      39.973 -25.103 -15.155  0.00  0.00    +0.001 C 
ENDBRANCH  19  20
ENDBRANCH  17  19
ENDBRANCH  14  17
ENDBRANCH   8  14
BRANCH  13  23
ATOM     23  O   UNL     1      31.410 -22.916 -17.609  0.00  0.00    -0.470 OA
ATOM     24  C   UNL     1      30.348 -22.848 -16.659  0.00  0.00    +0.253 C 
ENDBRANCH  13  23
ENDBRANCH   2  11
BRANCH   5  25
ATOM     25  C   UNL     1      34.646 -19.106 -22.714  0.00  0.00    +0.036 C 
ATOM     26  C   UNL     1      34.177 -17.091 -23.962  0.00  0.00    +0.002 C 
ATOM     27  C   UNL     1      34.420 -17.730 -22.747  0.00  0.00    +0.003 C 
ATOM     28  C   UNL     1      34.630 -19.843 -23.899  0.00  0.00    +0.003 C 
ATOM     29  C   UNL     1      34.159 -17.829 -25.146  0.00  0.00    +0.000 C 
ATOM     30  C   UNL     1      34.386 -19.205 -25.115  0.00  0.00    +0.000 C 
BRANCH  26  32
ATOM     31  N   UNL     1      33.122 -13.734 -25.199  0.00  0.00    -0.242 NA
ATOM     32  C   UNL     1      33.941 -15.665 -23.995  0.00  0.00    +0.019 C 
ATOM     33  C   UNL     1      34.281 -14.856 -22.917  0.00  0.00    +0.003 C 
ATOM     34  C   UNL     1      33.369 -15.060 -25.104  0.00  0.00    +0.099 C 
ATOM     35  C   UNL     1      34.043 -13.488 -22.978  0.00  0.00    +0.021 C 
ATOM     36  C   UNL     1      33.466 -12.981 -24.132  0.00  0.00    +0.099 C 
ENDBRANCH  26  32
ENDBRANCH   5  25
TORSDOF 8
ENDMDL
MODEL 2
REMARK VINA RESULT:     -12.1      2.308      5.549
REMARK  Name = 4369498
REMARK  8 active torsions:
REMARK  status: ('A' for Active; 'I' for Inactive)
REMARK    1  A    between atoms: N_2  and  C_11
REMARK    2  A    between atoms: C_5  and  C_25
REMARK    3  A    between atoms: C_8  and  S_14
REMARK    4  A    between atoms: C_13  and  O_23
REMARK    5  A    between atoms: S_14  and  N_17
REMARK    6  A    between atoms: N_17  and  C_19
REMARK    7  A    between atoms: C_19  and  C_20
REMARK    8  A    between atoms: C_26  and  C_32
REMARK                            x       y       z     vdW  Elec       q    Type
REMARK                         _______ _______ _______ _____ _____    ______ ____
ROOT
ATOM      1  O   UNL     1      35.678 -21.149 -18.802  0.00  0.00    -0.424 OA
ATOM      2  N   UNL     1      35.594 -22.352 -16.846  0.00  0.00    -0.265 N 
ATOM      3  N   UNL     1      33.775 -22.312 -18.421  0.00  0.00    -0.193 NA
ATOM      4  C   UNL     1      34.971 -21.981 -17.987  0.00  0.00    +0.293 C 
ATOM      5  C   UNL     1      34.835 -20.940 -19.852  0.00  0.00    +0.168 C 
ATOM      6  C   UNL     1      33.683 -21.647 -19.616  0.00  0.00    +0.141 C 
ATOM      7  H   UNL     1      36.497 -21.979 -16.727  0.00  0.00    +0.157 HD
ENDROOT
BRANCH   2  11
ATOM      8  C   UNL     1      33.350 -24.040 -14.417  0.00  0.00    +0.123 C 
ATOM      9  C   UNL     1      33.797 -23.219 -15.453  0.00  0.00    +0.038 C 
ATOM     10  C   UNL     1      34.256 -24.838 -13.719  0.00  0.00    +0.023 C 
ATOM     11  C   UNL     1      35.150 -23.197 -15.789  0.00  0.00    +0.087 C 
ATOM     12  C   UNL     1      35.610 -24.815 -14.055  0.00  0.00    +0.040 C 
ATOM     13  C   UNL     1      36.057 -23.995 -15.091  0.00  0.00    +0.152 C 
BRANCH   8  14
ATOM     14  S   UNL     1      31.656 -24.067 -13.993  0.00  0.00    +0.060 S 
ATOM     15  O   UNL     1      31.170 -25.438 -14.087  0.00  0.00    -0.153 OA
ATOM     16  O   UNL     1      31.500 -23.339 -12.741  0.00  0.00    -0.153 OA
BRANCH  14  17
ATOM     17  N   UNL     1      30.947 -23.149 -15.248  0.00  0.00    -0.179 NA
ATOM     18  H   UNL     1      31.701 -22.884 -15.882  0.00  0.00    +0.149 HD
BRANCH  17  19
ATOM     19  C   UNL     1      29.885 -23.739 -16.076  0.00  0.00    +0.091 C 
BRANCH  19  20
ATOM     20  C   UNL     1      28.886 -22.703 -16.472  0.00  0.00    +0.017 C 
ATOM     21  C   UNL     1      27.655 -23.121 -17.223  0.00  0.00    +0.001 C 
ATOM     22  C   UNL     1      27.548 -22.679 -15.794  0.00  0.00    +0.001 C 
ENDBRANCH  19  20
ENDBRANCH  17  19
ENDBRANCH  14  17
ENDBRANCH   8  14
BRANCH  13  23
ATOM     23  O   UNL     1      37.383 -23.986 -15.403  0.00  0.00    -0.470 OA
ATOM     24  C   UNL     1      38.219 -24.905 -14.703  0.00  0.00    +0.253 C 
ENDBRANCH  13  23
ENDBRANCH   2  11
BRANCH   5  25
ATOM     25  C   UNL     1      35.321 -20.077 -20.900  0.00  0.00    +0.036 C 
ATOM     26  C   UNL     1      34.934 -18.828 -22.932  0.00  0.00    +0.002 C 
ATOM     27  C   UNL     1      34.463 -19.663 -21.919  0.00  0.00    +0.003 C 
ATOM     28  C   UNL     1      36.651 -19.654 -20.895  0.00  0.00    +0.003 C 
ATOM     29  C   UNL     1      36.264 -18.407 -22.926  0.00  0.00    +0.000 C 
ATOM     30  C   UNL     1      37.122 -18.820 -21.908  0.00  0.00    +0.000 C 
BRANCH  26  32
ATOM     31  N   UNL     1      32.882 -16.598 -25.107  0.00  0.00    -0.242 NA
ATOM     32  C   UNL     1      34.044 -18.400 -23.989  0.00  0.00    +0.019 C 
ATOM     33  C   UNL     1      33.500 -19.315 -24.884  0.00  0.00    +0.003 C 
ATOM     34  C   UNL     1      33.706 -17.064 -24.142  0.00  0.00    +0.099 C 
ATOM     35  C   UNL     1      32.648 -18.873 -25.889  0.00  0.00    +0.021 C 
ATOM     36  C   UNL     1      32.373 -17.516 -25.957  0.00  0.00    +0.099 C 
ENDBRANCH  26  32
ENDBRANCH   5  25
TORSDOF 8
ENDMDL
MODEL 3
REMARK VINA RESULT:     -12.1      2.885      4.965
REMARK  Name = 4369498
REMARK  8 active torsions:
REMARK  status: ('A' for Active; 'I' for Inactive)
REMARK    1  A    between atoms: N_2  and  C_11
REMARK    2  A    between atoms: C_5  and  C_25
REMARK    3  A    between atoms: C_8  and  S_14
REMARK    4  A    between atoms: C_13  and  O_23
REMARK    5  A    between atoms: S_14  and  N_17
REMARK    6  A    between atoms: N_17  and  C_19
REMARK    7  A    between atoms: C_19  and  C_20
REMARK    8  A    between atoms: C_26  and  C_32
REMARK                            x       y       z     vdW  Elec       q    Type
REMARK                         _______ _______ _______ _____ _____    ______ ____
ROOT
ATOM      1  O   UNL     1      33.351 -17.771 -23.649  0.00  0.00    -0.424 OA
ATOM      2  N   UNL     1      34.049 -18.815 -21.725  0.00  0.00    -0.265 N 
ATOM      3  N   UNL     1      34.483 -19.711 -23.916  0.00  0.00    -0.193 NA
ATOM      4  C   UNL     1      33.996 -18.824 -23.077  0.00  0.00    +0.293 C 
ATOM      5  C   UNL     1      33.444 -18.028 -24.984  0.00  0.00    +0.168 C 
ATOM      6  C   UNL     1      34.131 -19.205 -25.141  0.00  0.00    +0.141 C 
ATOM      7  H   UNL     1      33.613 -18.042 -21.299  0.00  0.00    +0.157 HD
ENDROOT
BRANCH   2  11
ATOM      8  C   UNL     1      34.403 -21.657 -19.364  0.00  0.00    +0.123 C 
ATOM      9  C   UNL     1      33.841 -20.741 -20.254  0.00  0.00    +0.038 C 
ATOM     10  C   UNL     1      35.758 -21.577 -19.042  0.00  0.00    +0.023 C 
ATOM     11  C   UNL     1      34.636 -19.745 -20.821  0.00  0.00    +0.087 C 
ATOM     12  C   UNL     1      36.552 -20.580 -19.610  0.00  0.00    +0.040 C 
ATOM     13  C   UNL     1      35.991 -19.665 -20.500  0.00  0.00    +0.152 C 
BRANCH   8  14
ATOM     14  S   UNL     1      33.409 -22.903 -18.649  0.00  0.00    +0.060 S 
ATOM     15  O   UNL     1      32.097 -22.343 -18.351  0.00  0.00    -0.153 OA
ATOM     16  O   UNL     1      33.505 -24.086 -19.494  0.00  0.00    -0.153 OA
BRANCH  14  17
ATOM     17  N   UNL     1      34.216 -23.219 -17.176  0.00  0.00    -0.179 NA
ATOM     18  H   UNL     1      34.786 -22.398 -16.970  0.00  0.00    +0.149 HD
BRANCH  17  19
ATOM     19  C   UNL     1      33.438 -23.510 -15.963  0.00  0.00    +0.091 C 
BRANCH  19  20
ATOM     20  C   UNL     1      34.308 -23.459 -14.752  0.00  0.00    +0.017 C 
ATOM     21  C   UNL     1      33.887 -24.199 -13.515  0.00  0.00    +0.001 C 
ATOM     22  C   UNL     1      35.048 -24.693 -14.327  0.00  0.00    +0.001 C 
ENDBRANCH  19  20
ENDBRANCH  17  19
ENDBRANCH  14  17
ENDBRANCH   8  14
BRANCH  13  23
ATOM     23  O   UNL     1      36.783 -18.698 -21.043  0.00  0.00    -0.470 OA
ATOM     24  C   UNL     1      37.552 -19.059 -22.188  0.00  0.00    +0.253 C 
ENDBRANCH  13  23
ENDBRANCH   2  11
BRANCH   5  25
ATOM     25  C   UNL     1      32.835 -17.062 -25.866  0.00  0.00    +0.036 C 
ATOM     26  C   UNL     1      32.664 -14.799 -26.694  0.00  0.00    +0.002 C 
ATOM     27  C   UNL     1      33.252 -15.732 -25.841  0.00  0.00    +0.003 C 
ATOM     28  C   UNL     1      31.829 -17.460 -26.747  0.00  0.00    +0.003 C 
ATOM     29  C   UNL     1      31.657 -15.198 -27.574  0.00  0.00    +0.000 C 
ATOM     30  C   UNL     1      31.240 -16.528 -27.601  0.00  0.00    +0.000 C 
BRANCH  26  32
ATOM     31  N   UNL     1      33.136 -11.290 -25.520  0.00  0.00    -0.242 NA
ATOM     32  C   UNL     1      33.096 -13.419 -26.666  0.00  0.00    +0.019 C 
ATOM     33  C   UNL     1      33.856 -12.884 -27.700  0.00  0.00    +0.003 C 
ATOM     34  C   UNL     1      32.765 -12.587 -25.608  0.00  0.00    +0.099 C 
ATOM     35  C   UNL     1      34.256 -11.554 -27.645  0.00  0.00    +0.021 C 
ATOM     36  C   UNL     1      33.873 -10.806 -26.543  0.00  0.00    +0.099 C 
ENDBRANCH  26  32
ENDBRANCH   5  25
TORSDOF 8
ENDMDL
MODEL 4
REMARK VINA RESULT:     -11.8      4.361      8.686
REMARK  Name = 4369498
REMARK  8 active torsions:
REMARK  status: ('A' for Active; 'I' for Inactive)
REMARK    1  A    between atoms: N_2  and  C_11
REMARK    2  A    between atoms: C_5  and  C_25
REMARK    3  A    between atoms: C_8  and  S_14
REMARK    4  A    between atoms: C_13  and  O_23
REMARK    5  A    between atoms: S_14  and  N_17
REMARK    6  A    between atoms: N_17  and  C_19
REMARK    7  A    between atoms: C_19  and  C_20
REMARK    8  A    between atoms: C_26  and  C_32
REMARK                            x       y       z     vdW  Elec       q    Type
REMARK                         _______ _______ _______ _____ _____    ______ ____
ROOT
ATOM      1  O   UNL     1      33.362 -13.070 -24.742  0.00  0.00    -0.424 OA
ATOM      2  N   UNL     1      33.873 -15.308 -24.836  0.00  0.00    -0.265 N 
ATOM      3  N   UNL     1      33.310 -14.194 -22.779  0.00  0.00    -0.193 NA
ATOM      4  C   UNL     1      33.520 -14.247 -24.075  0.00  0.00    +0.293 C 
ATOM      5  C   UNL     1      33.016 -12.192 -23.759  0.00  0.00    +0.168 C 
ATOM      6  C   UNL     1      32.986 -12.878 -22.571  0.00  0.00    +0.141 C 
ATOM      7  H   UNL     1      33.976 -15.114 -25.795  0.00  0.00    +0.157 HD
ENDROOT
BRANCH   2  11
ATOM      8  C   UNL     1      34.957 -18.263 -22.866  0.00  0.00    +0.123 C 
ATOM      9  C   UNL     1      34.709 -16.940 -23.237  0.00  0.00    +0.038 C 
ATOM     10  C   UNL     1      34.614 -19.305 -23.728  0.00  0.00    +0.023 C 
ATOM     11  C   UNL     1      34.118 -16.662 -24.469  0.00  0.00    +0.087 C 
ATOM     12  C   UNL     1      34.023 -19.025 -24.960  0.00  0.00    +0.040 C 
ATOM     13  C   UNL     1      33.775 -17.704 -25.331  0.00  0.00    +0.152 C 
BRANCH   8  14
ATOM     14  S   UNL     1      35.700 -18.613 -21.325  0.00  0.00    +0.060 S 
ATOM     15  O   UNL     1      37.106 -18.932 -21.544  0.00  0.00    -0.153 OA
ATOM     16  O   UNL     1      35.346 -17.540 -20.407  0.00  0.00    -0.153 OA
BRANCH  14  17
ATOM     17  N   UNL     1      34.886 -20.036 -20.840  0.00  0.00    -0.179 NA
ATOM     18  H   UNL     1      34.735 -20.591 -21.681  0.00  0.00    +0.149 HD
BRANCH  17  19
ATOM     19  C   UNL     1      35.502 -20.928 -19.847  0.00  0.00    +0.091 C 
BRANCH  19  20
ATOM     20  C   UNL     1      34.631 -22.112 -19.587  0.00  0.00    +0.017 C 
ATOM     21  C   UNL     1      34.168 -22.389 -18.186  0.00  0.00    +0.001 C 
ATOM     22  C   UNL     1      33.193 -21.897 -19.215  0.00  0.00    +0.001 C 
ENDBRANCH  19  20
ENDBRANCH  17  19
ENDBRANCH  14  17
ENDBRANCH   8  14
BRANCH  13  23
ATOM     23  O   UNL     1      33.198 -17.452 -26.540  0.00  0.00    -0.470 OA
ATOM     24  C   UNL     1      31.785 -17.620 -26.630  0.00  0.00    +0.253 C 
ENDBRANCH  13  23
ENDBRANCH   2  11
BRANCH   5  25
ATOM     25  C   UNL     1      32.778 -10.831 -24.172  0.00  0.00    +0.036 C 
ATOM     26  C   UNL     1      32.182  -8.552 -23.631  0.00  0.00    +0.002 C 
ATOM     27  C   UNL     1      32.411  -9.868 -23.231  0.00  0.00    +0.003 C 
ATOM     28  C   UNL     1      32.916 -10.475 -25.514  0.00  0.00    +0.003 C 
ATOM     29  C   UNL     1      32.320  -8.198 -24.973  0.00  0.00    +0.000 C 
ATOM     30  C   UNL     1      32.688  -9.159 -25.915  0.00  0.00    +0.000 C 
BRANCH  26  32
ATOM     31  N   UNL     1      30.241  -5.848 -21.948  0.00  0.00    -0.242 NA
ATOM     32  C   UNL     1      31.800  -7.555 -22.655  0.00  0.00    +0.019 C 
ATOM     33  C   UNL     1      32.571  -7.329 -21.520  0.00  0.00    +0.003 C 
ATOM     34  C   UNL     1      30.653  -6.794 -22.821  0.00  0.00    +0.099 C 
ATOM     35  C   UNL     1      32.179  -6.364 -20.601  0.00  0.00    +0.021 C 
ATOM     36  C   UNL     1      31.016  -5.657 -20.859  0.00  0.00    +0.099 C 
ENDBRANCH  26  32
ENDBRANCH   5  25
TORSDOF 8
ENDMDL
MODEL 5
REMARK VINA RESULT:     -11.6      3.099     11.513
REMARK  Name = 4369498
REMARK  8 active torsions:
REMARK  status: ('A' for Active; 'I' for Inactive)
REMARK    1  A    between atoms: N_2  and  C_11
REMARK    2  A    between atoms: C_5  and  C_25
REMARK    3  A    between atoms: C_8  and  S_14
REMARK    4  A    between atoms: C_13  and  O_23
REMARK    5  A    between atoms: S_14  and  N_17
REMARK    6  A    between atoms: N_17  and  C_19
REMARK    7  A    between atoms: C_19  and  C_20
REMARK    8  A    between atoms: C_26  and  C_32
REMARK                            x       y       z     vdW  Elec       q    Type
REMARK                         _______ _______ _______ _____ _____    ______ ____
ROOT
ATOM      1  O   UNL     1      33.926 -20.938 -19.258  0.00  0.00    -0.424 OA
ATOM      2  N   UNL     1      33.707 -19.412 -20.962  0.00  0.00    -0.265 N 
ATOM      3  N   UNL     1      35.823 -20.386 -20.359  0.00  0.00    -0.193 NA
ATOM      4  C   UNL     1      34.526 -20.212 -20.242  0.00  0.00    +0.293 C 
ATOM      5  C   UNL     1      34.956 -21.638 -18.705  0.00  0.00    +0.168 C 
ATOM      6  C   UNL     1      36.104 -21.299 -19.376  0.00  0.00    +0.141 C 
ATOM      7  H   UNL     1      32.759 -19.442 -20.695  0.00  0.00    +0.157 HD
ENDROOT
BRANCH   2  11
ATOM      8  C   UNL     1      33.841 -18.010 -24.397  0.00  0.00    +0.123 C 
ATOM      9  C   UNL     1      33.560 -18.861 -23.327  0.00  0.00    +0.038 C 
ATOM     10  C   UNL     1      34.557 -16.833 -24.182  0.00  0.00    +0.023 C 
ATOM     11  C   UNL     1      33.997 -18.534 -22.044  0.00  0.00    +0.087 C 
ATOM     12  C   UNL     1      34.995 -16.506 -22.898  0.00  0.00    +0.040 C 
ATOM     13  C   UNL     1      34.714 -17.356 -21.829  0.00  0.00    +0.152 C 
BRANCH   8  14
ATOM     14  S   UNL     1      33.297 -18.419 -26.005  0.00  0.00    +0.060 S 
ATOM     15  O   UNL     1      34.200 -19.416 -26.566  0.00  0.00    -0.153 OA
ATOM     16  O   UNL     1      31.871 -18.709 -25.932  0.00  0.00    -0.153 OA
BRANCH  14  17
ATOM     17  N   UNL     1      33.511 -16.950 -26.851  0.00  0.00    -0.179 NA
ATOM     18  H   UNL     1      33.866 -17.191 -27.777  0.00  0.00    +0.149 HD
BRANCH  17  19
ATOM     19  C   UNL     1      32.367 -16.050 -27.057  0.00  0.00    +0.091 C 
BRANCH  19  20
ATOM     20  C   UNL     1      32.830 -14.682 -27.430  0.00  0.00    +0.017 C 
ATOM     21  C   UNL     1      31.825 -13.572 -27.543  0.00  0.00    +0.001 C 
ATOM     22  C   UNL     1      32.797 -13.590 -26.400  0.00  0.00    +0.001 C 
ENDBRANCH  19  20
ENDBRANCH  17  19
ENDBRANCH  14  17
ENDBRANCH   8  14
BRANCH  13  23
ATOM     23  O   UNL     1      35.151 -17.020 -20.583  0.00  0.00    -0.470 OA
ATOM     24  C   UNL     1      34.713 -15.768 -20.059  0.00  0.00    +0.253 C 
ENDBRANCH  13  23
ENDBRANCH   2  11
BRANCH   5  25
ATOM     25  C   UNL     1      34.620 -22.515 -17.611  0.00  0.00    +0.036 C 
ATOM     26  C   UNL     1      35.270 -23.734 -15.629  0.00  0.00    +0.002 C 
ATOM     27  C   UNL     1      35.596 -22.887 -16.687  0.00  0.00    +0.003 C 
ATOM     28  C   UNL     1      33.315 -22.992 -17.475  0.00  0.00    +0.003 C 
ATOM     29  C   UNL     1      33.966 -24.211 -15.495  0.00  0.00    +0.000 C 
ATOM     30  C   UNL     1      32.988 -23.839 -16.417  0.00  0.00    +0.000 C 
BRANCH  26  32
ATOM     31  N   UNL     1      37.642 -23.543 -12.757  0.00  0.00    -0.242 NA
ATOM     32  C   UNL     1      36.284 -24.120 -14.672  0.00  0.00    +0.019 C 
ATOM     33  C   UNL     1      36.870 -25.380 -14.716  0.00  0.00    +0.003 C 
ATOM     34  C   UNL     1      36.701 -23.246 -13.681  0.00  0.00    +0.099 C 
ATOM     35  C   UNL     1      37.842 -25.722 -13.783  0.00  0.00    +0.021 C 
ATOM     36  C   UNL     1      38.189 -24.776 -12.832  0.00  0.00    +0.099 C 
ENDBRANCH  26  32
ENDBRANCH   5  25
TORSDOF 8
ENDMDL
MODEL 6
REMARK VINA RESULT:     -11.4      3.667     11.137
REMARK  Name = 4369498
REMARK  8 active torsions:
REMARK  status: ('A' for Active; 'I' for Inactive)
REMARK    1  A    between atoms: N_2  and  C_11
REMARK    2  A    between atoms: C_5  and  C_25
REMARK    3  A    between atoms: C_8  and  S_14
REMARK    4  A    between atoms: C_13  and  O_23
REMARK    5  A    between atoms: S_14  and  N_17
REMARK    6  A    between atoms: N_17  and  C_19
REMARK    7  A    between atoms: C_19  and  C_20
REMARK    8  A    between atoms: C_26  and  C_32
REMARK                            x       y       z     vdW  Elec       q    Type
REMARK                         _______ _______ _______ _____ _____    ______ ____
ROOT
ATOM      1  O   UNL     1      33.474 -20.951 -19.206  0.00  0.00    -0.424 OA
ATOM      2  N   UNL     1      33.480 -19.413 -20.913  0.00  0.00    -0.265 N 
ATOM      3  N   UNL     1      35.387 -20.787 -20.401  0.00  0.00    -0.193 NA
ATOM      4  C   UNL     1      34.158 -20.359 -20.224  0.00  0.00    +0.293 C 
ATOM      5  C   UNL     1      34.371 -21.840 -18.695  0.00  0.00    +0.168 C 
ATOM      6  C   UNL     1      35.529 -21.737 -19.423  0.00  0.00    +0.141 C 
ATOM      7  H   UNL     1      32.559 -19.254 -20.602  0.00  0.00    +0.157 HD
ENDROOT
BRANCH   2  11
ATOM      8  C   UNL     1      33.837 -18.158 -24.389  0.00  0.00    +0.123 C 
ATOM      9  C   UNL     1      33.444 -18.935 -23.298  0.00  0.00    +0.038 C 
ATOM     10  C   UNL     1      34.671 -17.057 -24.196  0.00  0.00    +0.023 C 
ATOM     11  C   UNL     1      33.886 -18.610 -22.016  0.00  0.00    +0.087 C 
ATOM     12  C   UNL     1      35.113 -16.732 -22.913  0.00  0.00    +0.040 C 
ATOM     13  C   UNL     1      34.720 -17.509 -21.823  0.00  0.00    +0.152 C 
BRANCH   8  14
ATOM     14  S   UNL     1      33.287 -18.566 -25.995  0.00  0.00    +0.060 S 
ATOM     15  O   UNL     1      34.207 -19.537 -26.573  0.00  0.00    -0.153 OA
ATOM     16  O   UNL     1      31.869 -18.888 -25.911  0.00  0.00    -0.153 OA
BRANCH  14  17
ATOM     17  N   UNL     1      33.461 -17.085 -26.831  0.00  0.00    -0.179 NA
ATOM     18  H   UNL     1      33.779 -17.312 -27.772  0.00  0.00    +0.149 HD
BRANCH  17  19
ATOM     19  C   UNL     1      32.305 -16.188 -26.978  0.00  0.00    +0.091 C 
BRANCH  19  20
ATOM     20  C   UNL     1      32.734 -14.849 -27.476  0.00  0.00    +0.017 C 
ATOM     21  C   UNL     1      31.736 -13.728 -27.521  0.00  0.00    +0.001 C 
ATOM     22  C   UNL     1      32.844 -13.707 -26.509  0.00  0.00    +0.001 C 
ENDBRANCH  19  20
ENDBRANCH  17  19
ENDBRANCH  14  17
ENDBRANCH   8  14
BRANCH  13  23
ATOM     23  O   UNL     1      35.163 -17.175 -20.578  0.00  0.00    -0.470 OA
ATOM     24  C   UNL     1      34.752 -15.911 -20.061  0.00  0.00    +0.253 C 
ENDBRANCH  13  23
ENDBRANCH   2  11
BRANCH   5  25
ATOM     25  C   UNL     1      33.921 -22.633 -17.577  0.00  0.00    +0.036 C 
ATOM     26  C   UNL     1      32.122 -23.575 -16.268  0.00  0.00    +0.002 C 
ATOM     27  C   UNL     1      32.556 -22.808 -17.348  0.00  0.00    +0.003 C 
ATOM     28  C   UNL     1      34.852 -23.227 -16.724  0.00  0.00    +0.003 C 
ATOM     29  C   UNL     1      33.053 -24.167 -15.415  0.00  0.00    +0.000 C 
ATOM     30  C   UNL     1      34.418 -23.994 -15.643  0.00  0.00    +0.000 C 
BRANCH  26  32
ATOM     31  N   UNL     1      28.439 -22.992 -16.383  0.00  0.00    -0.242 NA
ATOM     32  C   UNL     1      30.706 -23.755 -16.030  0.00  0.00    +0.019 C 
ATOM     33  C   UNL     1      30.237 -24.811 -15.257  0.00  0.00    +0.003 C 
ATOM     34  C   UNL     1      29.774 -22.880 -16.566  0.00  0.00    +0.099 C 
ATOM     35  C   UNL     1      28.871 -24.958 -15.046  0.00  0.00    +0.021 C 
ATOM     36  C   UNL     1      28.022 -24.029 -15.626  0.00  0.00    +0.099 C 
ENDBRANCH  26  32
ENDBRANCH   5  25
TORSDOF 8
ENDMDL
MODEL 7
REMARK VINA RESULT:     -11.4      5.167      9.976
REMARK  Name = 4369498
REMARK  8 active torsions:
REMARK  status: ('A' for Active; 'I' for Inactive)
REMARK    1  A    between atoms: N_2  and  C_11
REMARK    2  A    between atoms: C_5  and  C_25
REMARK    3  A    between atoms: C_8  and  S_14
REMARK    4  A    between atoms: C_13  and  O_23
REMARK    5  A    between atoms: S_14  and  N_17
REMARK    6  A    between atoms: N_17  and  C_19
REMARK    7  A    between atoms: C_19  and  C_20
REMARK    8  A    between atoms: C_26  and  C_32
REMARK                            x       y       z     vdW  Elec       q    Type
REMARK                         _______ _______ _______ _____ _____    ______ ____
ROOT
ATOM      1  O   UNL     1      33.136 -12.180 -25.137  0.00  0.00    -0.424 OA
ATOM      2  N   UNL     1      33.095 -14.364 -25.849  0.00  0.00    -0.265 N 
ATOM      3  N   UNL     1      32.830 -13.750 -23.538  0.00  0.00    -0.193 NA
ATOM      4  C   UNL     1      33.013 -13.497 -24.814  0.00  0.00    +0.293 C 
ATOM      5  C   UNL     1      33.018 -11.546 -23.937  0.00  0.00    +0.168 C 
ATOM      6  C   UNL     1      32.833 -12.502 -22.970  0.00  0.00    +0.141 C 
ATOM      7  H   UNL     1      33.235 -13.946 -26.729  0.00  0.00    +0.157 HD
ENDROOT
BRANCH   2  11
ATOM      8  C   UNL     1      33.655 -17.919 -24.933  0.00  0.00    +0.123 C 
ATOM      9  C   UNL     1      33.726 -16.525 -24.925  0.00  0.00    +0.038 C 
ATOM     10  C   UNL     1      32.869 -18.571 -25.883  0.00  0.00    +0.023 C 
ATOM     11  C   UNL     1      33.011 -15.785 -25.867  0.00  0.00    +0.087 C 
ATOM     12  C   UNL     1      32.154 -17.831 -26.825  0.00  0.00    +0.040 C 
ATOM     13  C   UNL     1      32.224 -16.438 -26.816  0.00  0.00    +0.152 C 
BRANCH   8  14
ATOM     14  S   UNL     1      34.553 -18.846 -23.757  0.00  0.00    +0.060 S 
ATOM     15  O   UNL     1      34.849 -20.157 -24.321  0.00  0.00    -0.153 OA
ATOM     16  O   UNL     1      35.646 -18.013 -23.275  0.00  0.00    -0.153 OA
BRANCH  14  17
ATOM     17  N   UNL     1      33.416 -19.038 -22.495  0.00  0.00    -0.179 NA
ATOM     18  H   UNL     1      32.799 -19.802 -22.767  0.00  0.00    +0.149 HD
BRANCH  17  19
ATOM     19  C   UNL     1      33.881 -19.332 -21.131  0.00  0.00    +0.091 C 
BRANCH  19  20
ATOM     20  C   UNL     1      33.586 -20.748 -20.766  0.00  0.00    +0.017 C 
ATOM     21  C   UNL     1      34.245 -21.346 -19.557  0.00  0.00    +0.001 C 
ATOM     22  C   UNL     1      32.778 -21.035 -19.534  0.00  0.00    +0.001 C 
ENDBRANCH  19  20
ENDBRANCH  17  19
ENDBRANCH  14  17
ENDBRANCH   8  14
BRANCH  13  23
ATOM     23  O   UNL     1      31.519 -15.733 -27.746  0.00  0.00    -0.470 OA
ATOM     24  C   UNL     1      30.097 -15.780 -27.651  0.00  0.00    +0.253 C 
ENDBRANCH  13  23
ENDBRANCH   2  11
BRANCH   5  25
ATOM     25  C   UNL     1      33.110 -10.107 -23.962  0.00  0.00    +0.036 C 
ATOM     26  C   UNL     1      32.856  -7.973 -22.857  0.00  0.00    +0.002 C 
ATOM     27  C   UNL     1      32.766  -9.364 -22.832  0.00  0.00    +0.003 C 
ATOM     28  C   UNL     1      33.547  -9.456 -25.117  0.00  0.00    +0.003 C 
ATOM     29  C   UNL     1      33.291  -7.323 -24.012  0.00  0.00    +0.000 C 
ATOM     30  C   UNL     1      33.637  -8.065 -25.142  0.00  0.00    +0.000 C 
BRANCH  26  32
ATOM     31  N   UNL     1      32.805  -6.766 -19.328  0.00  0.00    -0.242 NA
ATOM     32  C   UNL     1      32.497  -7.203 -21.686  0.00  0.00    +0.019 C 
ATOM     33  C   UNL     1      31.542  -6.195 -21.755  0.00  0.00    +0.003 C 
ATOM     34  C   UNL     1      33.094  -7.447 -20.459  0.00  0.00    +0.099 C 
ATOM     35  C   UNL     1      31.218  -5.473 -20.612  0.00  0.00    +0.021 C 
ATOM     36  C   UNL     1      31.873  -5.795 -19.434  0.00  0.00    +0.099 C 
ENDBRANCH  26  32
ENDBRANCH   5  25
TORSDOF 8
ENDMDL
MODEL 8
REMARK VINA RESULT:     -11.3      3.456      5.659
REMARK  Name = 4369498
REMARK  8 active torsions:
REMARK  status: ('A' for Active; 'I' for Inactive)
REMARK    1  A    between atoms: N_2  and  C_11
REMARK    2  A    between atoms: C_5  and  C_25
REMARK    3  A    between atoms: C_8  and  S_14
REMARK    4  A    between atoms: C_13  and  O_23
REMARK    5  A    between atoms: S_14  and  N_17
REMARK    6  A    between atoms: N_17  and  C_19
REMARK    7  A    between atoms: C_19  and  C_20
REMARK    8  A    between atoms: C_26  and  C_32
REMARK                            x       y       z     vdW  Elec       q    Type
REMARK                         _______ _______ _______ _____ _____    ______ ____
ROOT
ATOM      1  O   UNL     1      34.232 -16.775 -22.968  0.00  0.00    -0.424 OA
ATOM      2  N   UNL     1      34.730 -18.760 -21.924  0.00  0.00    -0.265 N 
ATOM      3  N   UNL     1      34.898 -16.634 -20.812  0.00  0.00    -0.193 NA
ATOM      4  C   UNL     1      34.642 -17.413 -21.838  0.00  0.00    +0.293 C 
ATOM      5  C   UNL     1      34.233 -15.461 -22.610  0.00  0.00    +0.168 C 
ATOM      6  C   UNL     1      34.638 -15.380 -21.302  0.00  0.00    +0.141 C 
ATOM      7  H   UNL     1      34.485 -19.136 -22.801  0.00  0.00    +0.157 HD
ENDROOT
BRANCH   2  11
ATOM      8  C   UNL     1      34.528 -21.525 -19.454  0.00  0.00    +0.123 C 
ATOM      9  C   UNL     1      34.160 -20.580 -20.414  0.00  0.00    +0.038 C 
ATOM     10  C   UNL     1      35.855 -21.610 -19.033  0.00  0.00    +0.023 C 
ATOM     11  C   UNL     1      35.119 -19.721 -20.949  0.00  0.00    +0.087 C 
ATOM     12  C   UNL     1      36.814 -20.750 -19.569  0.00  0.00    +0.040 C 
ATOM     13  C   UNL     1      36.446 -19.806 -20.527  0.00  0.00    +0.152 C 
BRANCH   8  14
ATOM     14  S   UNL     1      33.327 -22.599 -18.780  0.00  0.00    +0.060 S 
ATOM     15  O   UNL     1      32.059 -21.887 -18.689  0.00  0.00    -0.153 OA
ATOM     16  O   UNL     1      33.390 -23.854 -19.517  0.00  0.00    -0.153 OA
BRANCH  14  17
ATOM     17  N   UNL     1      33.919 -22.866 -17.199  0.00  0.00    -0.179 NA
ATOM     18  H   UNL     1      33.890 -21.968 -16.717  0.00  0.00    +0.149 HD
BRANCH  17  19
ATOM     19  C   UNL     1      33.252 -23.840 -16.323  0.00  0.00    +0.091 C 
BRANCH  19  20
ATOM     20  C   UNL     1      32.502 -23.146 -15.235  0.00  0.00    +0.017 C 
ATOM     21  C   UNL     1      31.001 -23.162 -15.255  0.00  0.00    +0.001 C 
ATOM     22  C   UNL     1      31.746 -23.964 -14.229  0.00  0.00    +0.001 C 
ENDBRANCH  19  20
ENDBRANCH  17  19
ENDBRANCH  14  17
ENDBRANCH   8  14
BRANCH  13  23
ATOM     23  O   UNL     1      37.398 -18.975 -21.037  0.00  0.00    -0.470 OA
ATOM     24  C   UNL     1      37.596 -19.007 -22.449  0.00  0.00    +0.253 C 
ENDBRANCH  13  23
ENDBRANCH   2  11
BRANCH   5  25
ATOM     25  C   UNL     1      33.833 -14.520 -23.628  0.00  0.00    +0.036 C 
ATOM     26  C   UNL     1      33.568 -12.240 -24.383  0.00  0.00    +0.002 C 
ATOM     27  C   UNL     1      33.954 -13.149 -23.399  0.00  0.00    +0.003 C 
ATOM     28  C   UNL     1      33.327 -14.980 -24.844  0.00  0.00    +0.003 C 
ATOM     29  C   UNL     1      33.061 -12.702 -25.598  0.00  0.00    +0.000 C 
ATOM     30  C   UNL     1      32.941 -14.072 -25.828  0.00  0.00    +0.000 C 
BRANCH  26  32
ATOM     31  N   UNL     1      32.718  -8.774 -23.297  0.00  0.00    -0.242 NA
ATOM     32  C   UNL     1      33.692 -10.819 -24.144  0.00  0.00    +0.019 C 
ATOM     33  C   UNL     1      34.843 -10.128 -24.505  0.00  0.00    +0.003 C 
ATOM     34  C   UNL     1      32.667 -10.101 -23.548  0.00  0.00    +0.099 C 
ATOM     35  C   UNL     1      34.933  -8.762 -24.263  0.00  0.00    +0.021 C 
ATOM     36  C   UNL     1      33.852  -8.137 -23.662  0.00  0.00    +0.099 C 
ENDBRANCH  26  32
ENDBRANCH   5  25
TORSDOF 8
ENDMDL
MODEL 9
REMARK VINA RESULT:     -11.3      7.016     13.730
REMARK  Name = 4369498
REMARK  8 active torsions:
REMARK  status: ('A' for Active; 'I' for Inactive)
REMARK    1  A    between atoms: N_2  and  C_11
REMARK    2  A    between atoms: C_5  and  C_25
REMARK    3  A    between atoms: C_8  and  S_14
REMARK    4  A    between atoms: C_13  and  O_23
REMARK    5  A    between atoms: S_14  and  N_17
REMARK    6  A    between atoms: N_17  and  C_19
REMARK    7  A    between atoms: C_19  and  C_20
REMARK    8  A    between atoms: C_26  and  C_32
REMARK                            x       y       z     vdW  Elec       q    Type
REMARK                         _______ _______ _______ _____ _____    ______ ____
ROOT
ATOM      1  O   UNL     1      33.247 -13.691 -24.359  0.00  0.00    -0.424 OA
ATOM      2  N   UNL     1      33.272 -11.450 -23.850  0.00  0.00    -0.265 N 
ATOM      3  N   UNL     1      33.093 -12.264 -26.107  0.00  0.00    -0.193 NA
ATOM      4  C   UNL     1      33.201 -12.405 -24.805  0.00  0.00    +0.293 C 
ATOM      5  C   UNL     1      33.159 -14.428 -25.501  0.00  0.00    +0.168 C 
ATOM      6  C   UNL     1      33.067 -13.559 -26.559  0.00  0.00    +0.141 C 
ATOM      7  H   UNL     1      33.349 -11.790 -22.929  0.00  0.00    +0.157 HD
ENDROOT
BRANCH   2  11
ATOM      8  C   UNL     1      32.009  -7.960 -23.952  0.00  0.00    +0.123 C 
ATOM      9  C   UNL     1      32.042  -9.351 -23.839  0.00  0.00    +0.038 C 
ATOM     10  C   UNL     1      33.186  -7.252 -24.190  0.00  0.00    +0.023 C 
ATOM     11  C   UNL     1      33.253 -10.031 -23.965  0.00  0.00    +0.087 C 
ATOM     12  C   UNL     1      34.397  -7.933 -24.316  0.00  0.00    +0.040 C 
ATOM     13  C   UNL     1      34.430  -9.323 -24.203  0.00  0.00    +0.152 C 
BRANCH   8  14
ATOM     14  S   UNL     1      30.493  -7.107 -23.798  0.00  0.00    +0.060 S 
ATOM     15  O   UNL     1      30.017  -6.752 -25.129  0.00  0.00    -0.153 OA
ATOM     16  O   UNL     1      29.633  -7.885 -22.917  0.00  0.00    -0.153 OA
BRANCH  14  17
ATOM     17  N   UNL     1      30.957  -5.678 -22.983  0.00  0.00    -0.179 NA
ATOM     18  H   UNL     1      30.389  -4.922 -23.367  0.00  0.00    +0.149 HD
BRANCH  17  19
ATOM     19  C   UNL     1      30.837  -5.598 -21.520  0.00  0.00    +0.091 C 
BRANCH  19  20
ATOM     20  C   UNL     1      32.170  -5.763 -20.871  0.00  0.00    +0.017 C 
ATOM     21  C   UNL     1      32.249  -5.878 -19.376  0.00  0.00    +0.001 C 
ATOM     22  C   UNL     1      32.519  -7.077 -20.236  0.00  0.00    +0.001 C 
ENDBRANCH  19  20
ENDBRANCH  17  19
ENDBRANCH  14  17
ENDBRANCH   8  14
BRANCH  13  23
ATOM     23  O   UNL     1      35.623  -9.970 -24.331  0.00  0.00    -0.470 OA
ATOM     24  C   UNL     1      36.127 -10.143 -25.654  0.00  0.00    +0.253 C 
ENDBRANCH  13  23
ENDBRANCH   2  11
BRANCH   5  25
ATOM     25  C   UNL     1      33.183 -15.861 -25.342  0.00  0.00    +0.036 C 
ATOM     26  C   UNL     1      33.849 -17.818 -24.090  0.00  0.00    +0.002 C 
ATOM     27  C   UNL     1      33.826 -16.432 -24.244  0.00  0.00    +0.003 C 
ATOM     28  C   UNL     1      32.562 -16.678 -26.287  0.00  0.00    +0.003 C 
ATOM     29  C   UNL     1      33.228 -18.634 -25.036  0.00  0.00    +0.000 C 
ATOM     30  C   UNL     1      32.584 -18.064 -26.134  0.00  0.00    +0.000 C 
BRANCH  26  32
ATOM     31  N   UNL     1      36.532 -18.653 -21.636  0.00  0.00    -0.242 NA
ATOM     32  C   UNL     1      34.517 -18.409 -22.952  0.00  0.00    +0.019 C 
ATOM     33  C   UNL     1      33.845 -19.271 -22.093  0.00  0.00    +0.003 C 
ATOM     34  C   UNL     1      35.849 -18.134 -22.681  0.00  0.00    +0.099 C 
ATOM     35  C   UNL     1      34.514 -19.824 -21.007  0.00  0.00    +0.021 C 
ATOM     36  C   UNL     1      35.845 -19.486 -20.825  0.00  0.00    +0.099 C 
ENDBRANCH  26  32
ENDBRANCH   5  25
TORSDOF 8
ENDMDL
