MODEL 1
REMARK VINA RESULT:     -12.9      0.000      0.000
REMARK  Name = 25191001
REMARK  7 active torsions:
REMARK  status: ('A' for Active; 'I' for Inactive)
REMARK    1  A    between atoms: C_1  and  N_9
REMARK    2  A    between atoms: C_2  and  O_24
REMARK    3  A    between atoms: N_8  and  C_14
REMARK    4  A    between atoms: C_15  and  C_23
REMARK    5  A    between atoms: O_24  and  C_26
REMARK    6  A    between atoms: C_28  and  C_33
REMARK    7  A    between atoms: N_32  and  C_35
REMARK                            x       y       z     vdW  Elec       q    Type
REMARK                         _______ _______ _______ _____ _____    ______ ____
ROOT
ATOM      1  C   UNL     1      35.963 -20.004 -20.258  0.00  0.00    +0.052 C 
ATOM      2  C   UNL     1      35.046 -19.127 -22.744  0.00  0.00    +0.145 C 
ATOM      3  C   UNL     1      36.841 -19.383 -21.147  0.00  0.00    +0.018 C 
ATOM      4  C   UNL     1      34.626 -20.187 -20.613  0.00  0.00    +0.018 C 
ATOM      5  C   UNL     1      36.383 -18.944 -22.389  0.00  0.00    +0.039 C 
ATOM      6  C   UNL     1      34.167 -19.749 -21.856  0.00  0.00    +0.039 C 
ENDROOT
BRANCH   1   9
ATOM      7  O   UNL     1      35.166 -22.388 -18.645  0.00  0.00    -0.252 OA
ATOM      8  N   UNL     1      36.735 -21.668 -17.061  0.00  0.00    -0.268 N 
ATOM      9  N   UNL     1      36.428 -20.451 -18.999  0.00  0.00    -0.268 N 
ATOM     10  C   UNL     1      36.019 -21.584 -18.279  0.00  0.00    +0.308 C 
ATOM     11  H   UNL     1      37.390 -20.950 -16.900  0.00  0.00    +0.156 HD
ATOM     12  H   UNL     1      37.124 -19.898 -18.576  0.00  0.00    +0.156 HD
BRANCH   8  14
ATOM     13 CL   UNL     1      36.287 -25.744 -12.804  0.00  0.00    -0.082 Cl
ATOM     14  C   UNL     1      36.638 -22.633 -16.058  0.00  0.00    +0.052 C 
ATOM     15  C   UNL     1      37.628 -24.425 -14.776  0.00  0.00    +0.083 C 
ATOM     16  C   UNL     1      37.726 -23.461 -15.779  0.00  0.00    +0.019 C 
ATOM     17  C   UNL     1      35.453 -22.770 -15.335  0.00  0.00    +0.016 C 
ATOM     18  C   UNL     1      36.444 -24.563 -14.052  0.00  0.00    +0.062 C 
ATOM     19  C   UNL     1      35.355 -23.735 -14.332  0.00  0.00    +0.013 C 
BRANCH  15  23
ATOM     20  F   UNL     1      39.307 -25.166 -13.240  0.00  0.00    -0.166 F 
ATOM     21  F   UNL     1      38.563 -26.624 -14.662  0.00  0.00    -0.166 F 
ATOM     22  F   UNL     1      39.862 -25.016 -15.337  0.00  0.00    -0.166 F 
ATOM     23  C   UNL     1      38.816 -25.292 -14.507  0.00  0.00    +0.419 C 
ENDBRANCH  15  23
ENDBRANCH   8  14
ENDBRANCH   1   9
BRANCH   2  24
ATOM     24  O   UNL     1      34.599 -18.702 -23.957  0.00  0.00    -0.453 OA
BRANCH  24  26
ATOM     25  N   UNL     1      33.708 -14.640 -24.379  0.00  0.00    -0.239 NA
ATOM     26  C   UNL     1      34.305 -17.356 -24.098  0.00  0.00    +0.149 C 
ATOM     27  C   UNL     1      33.751 -16.882 -25.282  0.00  0.00    +0.061 C 
ATOM     28  C   UNL     1      33.474 -15.528 -25.372  0.00  0.00    +0.137 C 
ATOM     29  C   UNL     1      34.560 -16.474 -23.054  0.00  0.00    +0.058 C 
ATOM     30  C   UNL     1      34.247 -15.137 -23.243  0.00  0.00    +0.102 C 
BRANCH  28  33
ATOM     31  O   UNL     1      32.967 -15.602 -27.660  0.00  0.00    -0.269 OA
ATOM     32  N   UNL     1      32.244 -13.742 -26.478  0.00  0.00    -0.313 N 
ATOM     33  C   UNL     1      32.895 -14.977 -26.586  0.00  0.00    +0.263 C 
ATOM     34  H   UNL     1      32.225 -13.302 -25.598  0.00  0.00    +0.149 HD
ATOM     35  C   UNL     1      31.600 -13.078 -27.587  0.00  0.00    +0.128 C 
ENDBRANCH  28  33
ENDBRANCH  24  26
ENDBRANCH   2  24
TORSDOF 6
ENDMDL
MODEL 2
REMARK VINA RESULT:     -12.7      1.398      1.831
REMARK  Name = 25191001
REMARK  7 active torsions:
REMARK  status: ('A' for Active; 'I' for Inactive)
REMARK    1  A    between atoms: C_1  and  N_9
REMARK    2  A    between atoms: C_2  and  O_24
REMARK    3  A    between atoms: N_8  and  C_14
REMARK    4  A    between atoms: C_15  and  C_23
REMARK    5  A    between atoms: O_24  and  C_26
REMARK    6  A    between atoms: C_28  and  C_33
REMARK    7  A    between atoms: N_32  and  C_35
REMARK                            x       y       z     vdW  Elec       q    Type
REMARK                         _______ _______ _______ _____ _____    ______ ____
ROOT
ATOM      1  C   UNL     1      35.347 -20.673 -19.852  0.00  0.00    +0.052 C 
ATOM      2  C   UNL     1      35.471 -18.683 -21.804  0.00  0.00    +0.145 C 
ATOM      3  C   UNL     1      36.585 -20.192 -20.281  0.00  0.00    +0.018 C 
ATOM      4  C   UNL     1      34.172 -20.159 -20.400  0.00  0.00    +0.018 C 
ATOM      5  C   UNL     1      36.647 -19.197 -21.256  0.00  0.00    +0.039 C 
ATOM      6  C   UNL     1      34.233 -19.164 -21.376  0.00  0.00    +0.039 C 
ENDROOT
BRANCH   1   9
ATOM      7  O   UNL     1      36.778 -20.904 -17.240  0.00  0.00    -0.252 OA
ATOM      8  N   UNL     1      35.632 -22.926 -16.948  0.00  0.00    -0.268 N 
ATOM      9  N   UNL     1      35.285 -21.683 -18.863  0.00  0.00    -0.268 N 
ATOM     10  C   UNL     1      35.982 -21.745 -17.646  0.00  0.00    +0.308 C 
ATOM     11  H   UNL     1      34.978 -23.510 -17.397  0.00  0.00    +0.156 HD
ATOM     12  H   UNL     1      34.678 -22.434 -19.052  0.00  0.00    +0.156 HD
BRANCH   8  14
ATOM     13 CL   UNL     1      37.541 -24.802 -11.679  0.00  0.00    -0.082 Cl
ATOM     14  C   UNL     1      36.090 -23.373 -15.708  0.00  0.00    +0.052 C 
ATOM     15  C   UNL     1      37.758 -24.508 -14.379  0.00  0.00    +0.083 C 
ATOM     16  C   UNL     1      37.300 -24.062 -15.619  0.00  0.00    +0.019 C 
ATOM     17  C   UNL     1      35.339 -23.130 -14.559  0.00  0.00    +0.016 C 
ATOM     18  C   UNL     1      37.007 -24.266 -13.229  0.00  0.00    +0.062 C 
ATOM     19  C   UNL     1      35.796 -23.577 -13.319  0.00  0.00    +0.013 C 
BRANCH  15  23
ATOM     20  F   UNL     1      39.690 -25.321 -15.532  0.00  0.00    -0.166 F 
ATOM     21  F   UNL     1      39.969 -24.675 -13.481  0.00  0.00    -0.166 F 
ATOM     22  F   UNL     1      38.914 -26.529 -13.900  0.00  0.00    -0.166 F 
ATOM     23  C   UNL     1      39.059 -25.242 -14.325  0.00  0.00    +0.419 C 
ENDBRANCH  15  23
ENDBRANCH   8  14
ENDBRANCH   1   9
BRANCH   2  24
ATOM     24  O   UNL     1      35.531 -17.714 -22.758  0.00  0.00    -0.453 OA
BRANCH  24  26
ATOM     25  N   UNL     1      33.355 -18.316 -26.276  0.00  0.00    -0.239 NA
ATOM     26  C   UNL     1      34.809 -17.913 -23.923  0.00  0.00    +0.149 C 
ATOM     27  C   UNL     1      34.324 -16.824 -24.639  0.00  0.00    +0.061 C 
ATOM     28  C   UNL     1      33.609 -17.076 -25.799  0.00  0.00    +0.137 C 
ATOM     29  C   UNL     1      34.569 -19.203 -24.383  0.00  0.00    +0.058 C 
ATOM     30  C   UNL     1      33.843 -19.350 -25.554  0.00  0.00    +0.102 C 
BRANCH  28  33
ATOM     31  O   UNL     1      32.711 -16.161 -27.762  0.00  0.00    -0.269 OA
ATOM     32  N   UNL     1      32.982 -14.730 -25.957  0.00  0.00    -0.313 N 
ATOM     33  C   UNL     1      33.079 -15.977 -26.587  0.00  0.00    +0.263 C 
ATOM     34  H   UNL     1      33.291 -14.654 -25.026  0.00  0.00    +0.149 HD
ATOM     35  C   UNL     1      32.454 -13.549 -26.599  0.00  0.00    +0.128 C 
ENDBRANCH  28  33
ENDBRANCH  24  26
ENDBRANCH   2  24
TORSDOF 6
ENDMDL
MODEL 3
REMARK VINA RESULT:     -12.5      6.197     12.241
REMARK  Name = 25191001
REMARK  7 active torsions:
REMARK  status: ('A' for Active; 'I' for Inactive)
REMARK    1  A    between atoms: C_1  and  N_9
REMARK    2  A    between atoms: C_2  and  O_24
REMARK    3  A    between atoms: N_8  and  C_14
REMARK    4  A    between atoms: C_15  and  C_23
REMARK    5  A    between atoms: O_24  and  C_26
REMARK    6  A    between atoms: C_28  and  C_33
REMARK    7  A    between atoms: N_32  and  C_35
REMARK                            x       y       z     vdW  Elec       q    Type
REMARK                         _______ _______ _______ _____ _____    ______ ____
ROOT
ATOM      1  C   UNL     1      34.623 -21.730 -19.063  0.00  0.00    +0.052 C 
ATOM      2  C   UNL     1      33.888 -23.240 -16.835  0.00  0.00    +0.145 C 
ATOM      3  C   UNL     1      35.498 -21.853 -17.984  0.00  0.00    +0.018 C 
ATOM      4  C   UNL     1      33.380 -22.363 -19.028  0.00  0.00    +0.018 C 
ATOM      5  C   UNL     1      35.131 -22.608 -16.870  0.00  0.00    +0.039 C 
ATOM      6  C   UNL     1      33.012 -23.118 -17.914  0.00  0.00    +0.039 C 
ENDROOT
BRANCH   1   9
ATOM      7  O   UNL     1      33.076 -19.688 -20.599  0.00  0.00    -0.252 OA
ATOM      8  N   UNL     1      34.974 -19.473 -21.956  0.00  0.00    -0.268 N 
ATOM      9  N   UNL     1      34.995 -20.963 -20.192  0.00  0.00    -0.268 N 
ATOM     10  C   UNL     1      34.227 -20.011 -20.881  0.00  0.00    +0.308 C 
ATOM     11  H   UNL     1      35.887 -19.827 -22.062  0.00  0.00    +0.156 HD
ATOM     12  H   UNL     1      35.904 -21.116 -20.537  0.00  0.00    +0.156 HD
BRANCH   8  14
ATOM     13 CL   UNL     1      33.371 -15.347 -25.873  0.00  0.00    -0.082 Cl
ATOM     14  C   UNL     1      34.590 -18.505 -22.885  0.00  0.00    +0.052 C 
ATOM     15  C   UNL     1      33.293 -17.858 -24.818  0.00  0.00    +0.083 C 
ATOM     16  C   UNL     1      33.676 -18.826 -23.889  0.00  0.00    +0.019 C 
ATOM     17  C   UNL     1      35.120 -17.217 -22.810  0.00  0.00    +0.016 C 
ATOM     18  C   UNL     1      33.822 -16.570 -24.743  0.00  0.00    +0.062 C 
ATOM     19  C   UNL     1      34.737 -16.250 -23.738  0.00  0.00    +0.013 C 
BRANCH  15  23
ATOM     20  F   UNL     1      31.951 -19.557 -25.837  0.00  0.00    -0.166 F 
ATOM     21  F   UNL     1      31.138 -17.547 -25.810  0.00  0.00    -0.166 F 
ATOM     22  F   UNL     1      32.793 -18.030 -27.136  0.00  0.00    -0.166 F 
ATOM     23  C   UNL     1      32.311 -18.242 -25.878  0.00  0.00    +0.419 C 
ENDBRANCH  15  23
ENDBRANCH   8  14
ENDBRANCH   1   9
BRANCH   2  24
ATOM     24  O   UNL     1      33.528 -23.976 -15.747  0.00  0.00    -0.453 OA
BRANCH  24  26
ATOM     25  N   UNL     1      36.484 -24.832 -12.918  0.00  0.00    -0.239 NA
ATOM     26  C   UNL     1      34.507 -24.261 -14.811  0.00  0.00    +0.149 C 
ATOM     27  C   UNL     1      35.614 -25.023 -15.166  0.00  0.00    +0.061 C 
ATOM     28  C   UNL     1      36.566 -25.278 -14.192  0.00  0.00    +0.137 C 
ATOM     29  C   UNL     1      34.387 -23.783 -13.510  0.00  0.00    +0.058 C 
ATOM     30  C   UNL     1      35.393 -24.094 -12.609  0.00  0.00    +0.102 C 
BRANCH  28  33
ATOM     31  O   UNL     1      37.627 -27.236 -14.926  0.00  0.00    -0.269 OA
ATOM     32  N   UNL     1      38.989 -25.453 -14.341  0.00  0.00    -0.313 N 
ATOM     33  C   UNL     1      37.743 -26.069 -14.507  0.00  0.00    +0.263 C 
ATOM     34  H   UNL     1      39.008 -24.527 -14.006  0.00  0.00    +0.149 HD
ATOM     35  C   UNL     1      40.247 -26.099 -14.635  0.00  0.00    +0.128 C 
ENDBRANCH  28  33
ENDBRANCH  24  26
ENDBRANCH   2  24
TORSDOF 6
ENDMDL
MODEL 4
REMARK VINA RESULT:     -12.5      1.773      2.217
REMARK  Name = 25191001
REMARK  7 active torsions:
REMARK  status: ('A' for Active; 'I' for Inactive)
REMARK    1  A    between atoms: C_1  and  N_9
REMARK    2  A    between atoms: C_2  and  O_24
REMARK    3  A    between atoms: N_8  and  C_14
REMARK    4  A    between atoms: C_15  and  C_23
REMARK    5  A    between atoms: O_24  and  C_26
REMARK    6  A    between atoms: C_28  and  C_33
REMARK    7  A    between atoms: N_32  and  C_35
REMARK                            x       y       z     vdW  Elec       q    Type
REMARK                         _______ _______ _______ _____ _____    ______ ____
ROOT
ATOM      1  C   UNL     1      34.978 -20.924 -19.674  0.00  0.00    +0.052 C 
ATOM      2  C   UNL     1      35.107 -19.019 -21.709  0.00  0.00    +0.145 C 
ATOM      3  C   UNL     1      33.806 -20.465 -20.276  0.00  0.00    +0.018 C 
ATOM      4  C   UNL     1      36.215 -20.430 -20.090  0.00  0.00    +0.018 C 
ATOM      5  C   UNL     1      33.870 -19.513 -21.293  0.00  0.00    +0.039 C 
ATOM      6  C   UNL     1      36.280 -19.477 -21.107  0.00  0.00    +0.039 C 
ENDROOT
BRANCH   1   9
ATOM      7  O   UNL     1      36.616 -21.204 -17.192  0.00  0.00    -0.252 OA
ATOM      8  N   UNL     1      35.317 -23.093 -16.713  0.00  0.00    -0.268 N 
ATOM      9  N   UNL     1      34.913 -21.889 -18.641  0.00  0.00    -0.268 N 
ATOM     10  C   UNL     1      35.710 -21.976 -17.489  0.00  0.00    +0.308 C 
ATOM     11  H   UNL     1      34.572 -23.625 -17.076  0.00  0.00    +0.156 HD
ATOM     12  H   UNL     1      34.223 -22.583 -18.743  0.00  0.00    +0.156 HD
BRANCH   8  14
ATOM     13 CL   UNL     1      37.516 -24.970 -11.558  0.00  0.00    -0.082 Cl
ATOM     14  C   UNL     1      35.844 -23.540 -15.500  0.00  0.00    +0.052 C 
ATOM     15  C   UNL     1      37.627 -24.590 -14.254  0.00  0.00    +0.083 C 
ATOM     16  C   UNL     1      37.101 -24.144 -15.466  0.00  0.00    +0.019 C 
ATOM     17  C   UNL     1      35.113 -23.381 -14.323  0.00  0.00    +0.016 C 
ATOM     18  C   UNL     1      36.897 -24.431 -13.075  0.00  0.00    +0.062 C 
ATOM     19  C   UNL     1      35.640 -23.827 -13.110  0.00  0.00    +0.013 C 
BRANCH  15  23
ATOM     20  F   UNL     1      39.610 -25.158 -15.466  0.00  0.00    -0.166 F 
ATOM     21  F   UNL     1      39.846 -24.678 -13.364  0.00  0.00    -0.166 F 
ATOM     22  F   UNL     1      38.925 -26.559 -13.951  0.00  0.00    -0.166 F 
ATOM     23  C   UNL     1      38.977 -25.232 -14.259  0.00  0.00    +0.419 C 
ENDBRANCH  15  23
ENDBRANCH   8  14
ENDBRANCH   1   9
BRANCH   2  24
ATOM     24  O   UNL     1      35.170 -18.088 -22.700  0.00  0.00    -0.453 OA
BRANCH  24  26
ATOM     25  N   UNL     1      34.106 -14.161 -21.743  0.00  0.00    -0.239 NA
ATOM     26  C   UNL     1      34.819 -16.787 -22.384  0.00  0.00    +0.149 C 
ATOM     27  C   UNL     1      34.472 -15.892 -23.390  0.00  0.00    +0.061 C 
ATOM     28  C   UNL     1      34.127 -14.602 -23.021  0.00  0.00    +0.137 C 
ATOM     29  C   UNL     1      34.808 -16.371 -21.057  0.00  0.00    +0.058 C 
ATOM     30  C   UNL     1      34.449 -15.059 -20.791  0.00  0.00    +0.102 C 
BRANCH  28  33
ATOM     31  O   UNL     1      33.077 -13.963 -25.018  0.00  0.00    -0.269 OA
ATOM     32  N   UNL     1      34.175 -12.305 -23.823  0.00  0.00    -0.313 N 
ATOM     33  C   UNL     1      33.756 -13.625 -24.030  0.00  0.00    +0.263 C 
ATOM     34  H   UNL     1      34.710 -12.108 -23.021  0.00  0.00    +0.149 HD
ATOM     35  C   UNL     1      33.866 -11.218 -24.723  0.00  0.00    +0.128 C 
ENDBRANCH  28  33
ENDBRANCH  24  26
ENDBRANCH   2  24
TORSDOF 6
ENDMDL
MODEL 5
REMARK VINA RESULT:     -12.5      7.114     11.951
REMARK  Name = 25191001
REMARK  7 active torsions:
REMARK  status: ('A' for Active; 'I' for Inactive)
REMARK    1  A    between atoms: C_1  and  N_9
REMARK    2  A    between atoms: C_2  and  O_24
REMARK    3  A    between atoms: N_8  and  C_14
REMARK    4  A    between atoms: C_15  and  C_23
REMARK    5  A    between atoms: O_24  and  C_26
REMARK    6  A    between atoms: C_28  and  C_33
REMARK    7  A    between atoms: N_32  and  C_35
REMARK                            x       y       z     vdW  Elec       q    Type
REMARK                         _______ _______ _______ _____ _____    ______ ____
ROOT
ATOM      1  C   UNL     1      34.455 -19.990 -20.612  0.00  0.00    +0.052 C 
ATOM      2  C   UNL     1      34.030 -22.327 -19.148  0.00  0.00    +0.145 C 
ATOM      3  C   UNL     1      33.156 -20.393 -20.302  0.00  0.00    +0.018 C 
ATOM      4  C   UNL     1      35.542 -20.756 -20.189  0.00  0.00    +0.018 C 
ATOM      5  C   UNL     1      32.943 -21.561 -19.571  0.00  0.00    +0.039 C 
ATOM      6  C   UNL     1      35.330 -21.925 -19.457  0.00  0.00    +0.039 C 
ENDROOT
BRANCH   1   9
ATOM      7  O   UNL     1      33.144 -19.021 -23.114  0.00  0.00    -0.252 OA
ATOM      8  N   UNL     1      34.537 -17.145 -22.954  0.00  0.00    -0.268 N 
ATOM      9  N   UNL     1      34.670 -18.805 -21.355  0.00  0.00    -0.268 N 
ATOM     10  C   UNL     1      34.024 -18.395 -22.532  0.00  0.00    +0.308 C 
ATOM     11  H   UNL     1      35.243 -16.759 -22.386  0.00  0.00    +0.156 HD
ATOM     12  H   UNL     1      35.357 -18.195 -21.004  0.00  0.00    +0.156 HD
BRANCH   8  14
ATOM     13 CL   UNL     1      33.009 -13.961 -27.694  0.00  0.00    -0.082 Cl
ATOM     14  C   UNL     1      34.174 -16.386 -24.068  0.00  0.00    +0.052 C 
ATOM     15  C   UNL     1      33.432 -14.294 -25.022  0.00  0.00    +0.083 C 
ATOM     16  C   UNL     1      33.794 -15.053 -23.909  0.00  0.00    +0.019 C 
ATOM     17  C   UNL     1      34.192 -16.960 -25.338  0.00  0.00    +0.016 C 
ATOM     18  C   UNL     1      33.450 -14.868 -26.294  0.00  0.00    +0.062 C 
ATOM     19  C   UNL     1      33.830 -16.202 -26.452  0.00  0.00    +0.013 C 
BRANCH  15  23
ATOM     20  F   UNL     1      34.065 -11.989 -24.938  0.00  0.00    -0.166 F 
ATOM     21  F   UNL     1      32.081 -12.436 -25.689  0.00  0.00    -0.166 F 
ATOM     22  F   UNL     1      32.512 -12.653 -23.569  0.00  0.00    -0.166 F 
ATOM     23  C   UNL     1      33.031 -12.870 -24.811  0.00  0.00    +0.419 C 
ENDBRANCH  15  23
ENDBRANCH   8  14
ENDBRANCH   1   9
BRANCH   2  24
ATOM     24  O   UNL     1      33.823 -23.469 -18.436  0.00  0.00    -0.453 OA
BRANCH  24  26
ATOM     25  N   UNL     1      31.843 -23.143 -14.769  0.00  0.00    -0.239 NA
ATOM     26  C   UNL     1      33.166 -23.360 -17.222  0.00  0.00    +0.149 C 
ATOM     27  C   UNL     1      31.790 -23.167 -17.186  0.00  0.00    +0.061 C 
ATOM     28  C   UNL     1      31.180 -23.066 -15.946  0.00  0.00    +0.137 C 
ATOM     29  C   UNL     1      33.882 -23.445 -16.033  0.00  0.00    +0.058 C 
ATOM     30  C   UNL     1      33.180 -23.330 -14.844  0.00  0.00    +0.102 C 
BRANCH  28  33
ATOM     31  O   UNL     1      29.221 -22.568 -14.759  0.00  0.00    -0.269 OA
ATOM     32  N   UNL     1      29.002 -22.995 -17.028  0.00  0.00    -0.313 N 
ATOM     33  C   UNL     1      29.745 -22.865 -15.849  0.00  0.00    +0.263 C 
ATOM     34  H   UNL     1      29.480 -23.232 -17.855  0.00  0.00    +0.149 HD
ATOM     35  C   UNL     1      27.572 -22.802 -17.097  0.00  0.00    +0.128 C 
ENDBRANCH  28  33
ENDBRANCH  24  26
ENDBRANCH   2  24
TORSDOF 6
ENDMDL
MODEL 6
REMARK VINA RESULT:     -12.4      6.733     12.401
REMARK  Name = 25191001
REMARK  7 active torsions:
REMARK  status: ('A' for Active; 'I' for Inactive)
REMARK    1  A    between atoms: C_1  and  N_9
REMARK    2  A    between atoms: C_2  and  O_24
REMARK    3  A    between atoms: N_8  and  C_14
REMARK    4  A    between atoms: C_15  and  C_23
REMARK    5  A    between atoms: O_24  and  C_26
REMARK    6  A    between atoms: C_28  and  C_33
REMARK    7  A    between atoms: N_32  and  C_35
REMARK                            x       y       z     vdW  Elec       q    Type
REMARK                         _______ _______ _______ _____ _____    ______ ____
ROOT
ATOM      1  C   UNL     1      34.366 -20.123 -20.497  0.00  0.00    +0.052 C 
ATOM      2  C   UNL     1      33.893 -22.466 -19.057  0.00  0.00    +0.145 C 
ATOM      3  C   UNL     1      33.058 -20.554 -20.276  0.00  0.00    +0.018 C 
ATOM      4  C   UNL     1      35.438 -20.864 -19.999  0.00  0.00    +0.018 C 
ATOM      5  C   UNL     1      32.821 -21.725 -19.555  0.00  0.00    +0.039 C 
ATOM      6  C   UNL     1      35.202 -22.036 -19.278  0.00  0.00    +0.039 C 
ENDROOT
BRANCH   1   9
ATOM      7  O   UNL     1      33.128 -19.140 -23.031  0.00  0.00    -0.252 OA
ATOM      8  N   UNL     1      34.522 -17.268 -22.824  0.00  0.00    -0.268 N 
ATOM      9  N   UNL     1      34.606 -18.937 -21.229  0.00  0.00    -0.268 N 
ATOM     10  C   UNL     1      33.993 -18.519 -22.421  0.00  0.00    +0.308 C 
ATOM     11  H   UNL     1      35.213 -16.887 -22.235  0.00  0.00    +0.156 HD
ATOM     12  H   UNL     1      35.285 -18.330 -20.857  0.00  0.00    +0.156 HD
BRANCH   8  14
ATOM     13 CL   UNL     1      33.137 -14.058 -27.590  0.00  0.00    -0.082 Cl
ATOM     14  C   UNL     1      34.193 -16.503 -23.944  0.00  0.00    +0.052 C 
ATOM     15  C   UNL     1      33.466 -14.411 -24.908  0.00  0.00    +0.083 C 
ATOM     16  C   UNL     1      33.795 -15.175 -23.788  0.00  0.00    +0.019 C 
ATOM     17  C   UNL     1      34.262 -17.067 -25.217  0.00  0.00    +0.016 C 
ATOM     18  C   UNL     1      33.535 -14.973 -26.182  0.00  0.00    +0.062 C 
ATOM     19  C   UNL     1      33.933 -16.303 -26.337  0.00  0.00    +0.013 C 
BRANCH  15  23
ATOM     20  F   UNL     1      32.291 -12.492 -25.720  0.00  0.00    -0.166 F 
ATOM     21  F   UNL     1      32.295 -12.807 -23.575  0.00  0.00    -0.166 F 
ATOM     22  F   UNL     1      34.107 -12.145 -24.577  0.00  0.00    -0.166 F 
ATOM     23  C   UNL     1      33.046 -12.992 -24.699  0.00  0.00    +0.419 C 
ENDBRANCH  15  23
ENDBRANCH   8  14
ENDBRANCH   1   9
BRANCH   2  24
ATOM     24  O   UNL     1      33.663 -23.610 -18.356  0.00  0.00    -0.453 OA
BRANCH  24  26
ATOM     25  N   UNL     1      32.096 -23.238 -14.499  0.00  0.00    -0.239 NA
ATOM     26  C   UNL     1      33.145 -23.488 -17.078  0.00  0.00    +0.149 C 
ATOM     27  C   UNL     1      33.960 -23.691 -15.970  0.00  0.00    +0.061 C 
ATOM     28  C   UNL     1      33.393 -23.556 -14.713  0.00  0.00    +0.137 C 
ATOM     29  C   UNL     1      31.806 -23.159 -16.898  0.00  0.00    +0.058 C 
ATOM     30  C   UNL     1      31.334 -23.048 -15.599  0.00  0.00    +0.102 C 
BRANCH  28  33
ATOM     31  O   UNL     1      33.737 -24.381 -12.546  0.00  0.00    -0.269 OA
ATOM     32  N   UNL     1      35.500 -23.243 -13.536  0.00  0.00    -0.313 N 
ATOM     33  C   UNL     1      34.197 -23.757 -13.521  0.00  0.00    +0.263 C 
ATOM     34  H   UNL     1      35.799 -22.760 -14.339  0.00  0.00    +0.149 HD
ATOM     35  C   UNL     1      36.427 -23.383 -12.437  0.00  0.00    +0.128 C 
ENDBRANCH  28  33
ENDBRANCH  24  26
ENDBRANCH   2  24
TORSDOF 6
ENDMDL
MODEL 7
REMARK VINA RESULT:     -12.4      6.713     11.381
REMARK  Name = 25191001
REMARK  7 active torsions:
REMARK  status: ('A' for Active; 'I' for Inactive)
REMARK    1  A    between atoms: C_1  and  N_9
REMARK    2  A    between atoms: C_2  and  O_24
REMARK    3  A    between atoms: N_8  and  C_14
REMARK    4  A    between atoms: C_15  and  C_23
REMARK    5  A    between atoms: O_24  and  C_26
REMARK    6  A    between atoms: C_28  and  C_33
REMARK    7  A    between atoms: N_32  and  C_35
REMARK                            x       y       z     vdW  Elec       q    Type
REMARK                         _______ _______ _______ _____ _____    ______ ____
ROOT
ATOM      1  C   UNL     1      34.884 -21.377 -19.502  0.00  0.00    +0.052 C 
ATOM      2  C   UNL     1      34.314 -23.045 -17.340  0.00  0.00    +0.145 C 
ATOM      3  C   UNL     1      35.829 -21.557 -18.492  0.00  0.00    +0.018 C 
ATOM      4  C   UNL     1      33.654 -22.031 -19.431  0.00  0.00    +0.018 C 
ATOM      5  C   UNL     1      35.544 -22.391 -17.411  0.00  0.00    +0.039 C 
ATOM      6  C   UNL     1      33.369 -22.866 -18.349  0.00  0.00    +0.039 C 
ENDROOT
BRANCH   1   9
ATOM      7  O   UNL     1      33.089 -19.572 -21.066  0.00  0.00    -0.252 OA
ATOM      8  N   UNL     1      34.981 -19.015 -22.331  0.00  0.00    -0.268 N 
ATOM      9  N   UNL     1      35.172 -20.529 -20.598  0.00  0.00    -0.268 N 
ATOM     10  C   UNL     1      34.287 -19.697 -21.302  0.00  0.00    +0.308 C 
ATOM     11  H   UNL     1      35.942 -19.214 -22.403  0.00  0.00    +0.156 HD
ATOM     12  H   UNL     1      36.107 -20.523 -20.904  0.00  0.00    +0.156 HD
BRANCH   8  14
ATOM     13 CL   UNL     1      32.892 -15.102 -26.238  0.00  0.00    -0.082 Cl
ATOM     14  C   UNL     1      34.483 -18.098 -23.258  0.00  0.00    +0.052 C 
ATOM     15  C   UNL     1      33.050 -17.589 -25.135  0.00  0.00    +0.083 C 
ATOM     16  C   UNL     1      33.548 -18.506 -24.209  0.00  0.00    +0.019 C 
ATOM     17  C   UNL     1      34.920 -16.774 -23.232  0.00  0.00    +0.016 C 
ATOM     18  C   UNL     1      33.486 -16.264 -25.109  0.00  0.00    +0.062 C 
ATOM     19  C   UNL     1      34.422 -15.857 -24.157  0.00  0.00    +0.013 C 
BRANCH  15  23
ATOM     20  F   UNL     1      32.358 -17.720 -27.422  0.00  0.00    -0.166 F 
ATOM     21  F   UNL     1      31.902 -19.422 -26.157  0.00  0.00    -0.166 F 
ATOM     22  F   UNL     1      30.803 -17.563 -25.910  0.00  0.00    -0.166 F 
ATOM     23  C   UNL     1      32.049 -18.066 -26.138  0.00  0.00    +0.419 C 
ENDBRANCH  15  23
ENDBRANCH   8  14
ENDBRANCH   1   9
BRANCH   2  24
ATOM     24  O   UNL     1      34.035 -23.858 -16.284  0.00  0.00    -0.453 OA
BRANCH  24  26
ATOM     25  N   UNL     1      30.510 -23.142 -14.155  0.00  0.00    -0.239 NA
ATOM     26  C   UNL     1      32.867 -23.619 -15.579  0.00  0.00    +0.149 C 
ATOM     27  C   UNL     1      31.696 -23.301 -16.256  0.00  0.00    +0.061 C 
ATOM     28  C   UNL     1      30.554 -23.073 -15.505  0.00  0.00    +0.137 C 
ATOM     29  C   UNL     1      32.862 -23.700 -14.191  0.00  0.00    +0.058 C 
ATOM     30  C   UNL     1      31.668 -23.454 -13.531  0.00  0.00    +0.102 C 
BRANCH  28  33
ATOM     31  O   UNL     1      29.271 -22.491 -17.379  0.00  0.00    -0.269 OA
ATOM     32  N   UNL     1      28.149 -22.728 -15.364  0.00  0.00    -0.313 N 
ATOM     33  C   UNL     1      29.301 -22.736 -16.159  0.00  0.00    +0.263 C 
ATOM     34  H   UNL     1      28.244 -22.931 -14.405  0.00  0.00    +0.149 HD
ATOM     35  C   UNL     1      26.828 -22.436 -15.871  0.00  0.00    +0.128 C 
ENDBRANCH  28  33
ENDBRANCH  24  26
ENDBRANCH   2  24
TORSDOF 6
ENDMDL
MODEL 8
REMARK VINA RESULT:     -12.3      6.002     12.148
REMARK  Name = 25191001
REMARK  7 active torsions:
REMARK  status: ('A' for Active; 'I' for Inactive)
REMARK    1  A    between atoms: C_1  and  N_9
REMARK    2  A    between atoms: C_2  and  O_24
REMARK    3  A    between atoms: N_8  and  C_14
REMARK    4  A    between atoms: C_15  and  C_23
REMARK    5  A    between atoms: O_24  and  C_26
REMARK    6  A    between atoms: C_28  and  C_33
REMARK    7  A    between atoms: N_32  and  C_35
REMARK                            x       y       z     vdW  Elec       q    Type
REMARK                         _______ _______ _______ _____ _____    ______ ____
ROOT
ATOM      1  C   UNL     1      34.635 -21.816 -18.773  0.00  0.00    +0.052 C 
ATOM      2  C   UNL     1      33.797 -23.322 -16.578  0.00  0.00    +0.145 C 
ATOM      3  C   UNL     1      35.481 -21.981 -17.676  0.00  0.00    +0.018 C 
ATOM      4  C   UNL     1      33.370 -22.403 -18.772  0.00  0.00    +0.018 C 
ATOM      5  C   UNL     1      35.062 -22.734 -16.579  0.00  0.00    +0.039 C 
ATOM      6  C   UNL     1      32.950 -23.157 -17.675  0.00  0.00    +0.039 C 
ENDROOT
BRANCH   1   9
ATOM      7  O   UNL     1      33.111 -19.907 -20.492  0.00  0.00    -0.252 OA
ATOM      8  N   UNL     1      35.106 -19.602 -21.682  0.00  0.00    -0.268 N 
ATOM      9  N   UNL     1      35.059 -21.051 -19.884  0.00  0.00    -0.268 N 
ATOM     10  C   UNL     1      34.300 -20.163 -20.663  0.00  0.00    +0.308 C 
ATOM     11  H   UNL     1      36.044 -19.901 -21.698  0.00  0.00    +0.156 HD
ATOM     12  H   UNL     1      36.003 -21.153 -20.144  0.00  0.00    +0.156 HD
BRANCH   8  14
ATOM     13 CL   UNL     1      33.593 -15.724 -25.878  0.00  0.00    -0.082 Cl
ATOM     14  C   UNL     1      34.749 -18.679 -22.667  0.00  0.00    +0.052 C 
ATOM     15  C   UNL     1      34.291 -16.403 -23.333  0.00  0.00    +0.083 C 
ATOM     16  C   UNL     1      34.648 -17.325 -22.349  0.00  0.00    +0.019 C 
ATOM     17  C   UNL     1      34.494 -19.112 -23.967  0.00  0.00    +0.016 C 
ATOM     18  C   UNL     1      34.036 -16.835 -24.635  0.00  0.00    +0.062 C 
ATOM     19  C   UNL     1      34.137 -18.191 -24.952  0.00  0.00    +0.013 C 
BRANCH  15  23
ATOM     20  F   UNL     1      34.589 -14.707 -21.672  0.00  0.00    -0.166 F 
ATOM     21  F   UNL     1      34.958 -14.141 -23.733  0.00  0.00    -0.166 F 
ATOM     22  F   UNL     1      32.922 -14.481 -23.049  0.00  0.00    -0.166 F 
ATOM     23  C   UNL     1      34.194 -14.961 -22.953  0.00  0.00    +0.419 C 
ENDBRANCH  15  23
ENDBRANCH   8  14
ENDBRANCH   1   9
BRANCH   2  24
ATOM     24  O   UNL     1      33.386 -24.055 -15.507  0.00  0.00    -0.453 OA
BRANCH  24  26
ATOM     25  N   UNL     1      36.275 -25.180 -12.703  0.00  0.00    -0.239 NA
ATOM     26  C   UNL     1      34.343 -24.429 -14.579  0.00  0.00    +0.149 C 
ATOM     27  C   UNL     1      35.492 -25.096 -14.989  0.00  0.00    +0.061 C 
ATOM     28  C   UNL     1      36.419 -25.447 -14.022  0.00  0.00    +0.137 C 
ATOM     29  C   UNL     1      34.159 -24.137 -13.232  0.00  0.00    +0.058 C 
ATOM     30  C   UNL     1      35.145 -24.531 -12.342  0.00  0.00    +0.102 C 
BRANCH  28  33
ATOM     31  O   UNL     1      37.592 -27.316 -14.813  0.00  0.00    -0.269 OA
ATOM     32  N   UNL     1      38.839 -25.435 -14.278  0.00  0.00    -0.313 N 
ATOM     33  C   UNL     1      37.638 -26.145 -14.393  0.00  0.00    +0.263 C 
ATOM     34  H   UNL     1      38.803 -24.512 -13.938  0.00  0.00    +0.149 HD
ATOM     35  C   UNL     1      40.129 -25.983 -14.630  0.00  0.00    +0.128 C 
ENDBRANCH  28  33
ENDBRANCH  24  26
ENDBRANCH   2  24
TORSDOF 6
ENDMDL
MODEL 9
REMARK VINA RESULT:     -11.9      4.138      4.684
REMARK  Name = 25191001
REMARK  7 active torsions:
REMARK  status: ('A' for Active; 'I' for Inactive)
REMARK    1  A    between atoms: C_1  and  N_9
REMARK    2  A    between atoms: C_2  and  O_24
REMARK    3  A    between atoms: N_8  and  C_14
REMARK    4  A    between atoms: C_15  and  C_23
REMARK    5  A    between atoms: O_24  and  C_26
REMARK    6  A    between atoms: C_28  and  C_33
REMARK    7  A    between atoms: N_32  and  C_35
REMARK                            x       y       z     vdW  Elec       q    Type
REMARK                         _______ _______ _______ _____ _____    ______ ____
ROOT
ATOM      1  C   UNL     1      34.722 -20.367 -20.590  0.00  0.00    +0.052 C 
ATOM      2  C   UNL     1      34.911 -18.585 -22.729  0.00  0.00    +0.145 C 
ATOM      3  C   UNL     1      35.947 -19.775 -20.900  0.00  0.00    +0.018 C 
ATOM      4  C   UNL     1      33.592 -20.068 -21.351  0.00  0.00    +0.018 C 
ATOM      5  C   UNL     1      36.042 -18.885 -21.969  0.00  0.00    +0.039 C 
ATOM      6  C   UNL     1      33.685 -19.176 -22.420  0.00  0.00    +0.039 C 
ENDROOT
BRANCH   1   9
ATOM      7  O   UNL     1      32.364 -21.142 -18.929  0.00  0.00    -0.252 OA
ATOM      8  N   UNL     1      33.826 -22.551 -17.759  0.00  0.00    -0.268 N 
ATOM      9  N   UNL     1      34.627 -21.272 -19.507  0.00  0.00    -0.268 N 
ATOM     10  C   UNL     1      33.489 -21.602 -18.755  0.00  0.00    +0.308 C 
ATOM     11  H   UNL     1      34.770 -22.830 -17.737  0.00  0.00    +0.156 HD
ATOM     12  H   UNL     1      35.462 -21.724 -19.249  0.00  0.00    +0.156 HD
BRANCH   8  14
ATOM     13 CL   UNL     1      30.351 -25.072 -13.697  0.00  0.00    -0.082 Cl
ATOM     14  C   UNL     1      32.998 -23.143 -16.804  0.00  0.00    +0.052 C 
ATOM     15  C   UNL     1      30.785 -23.639 -15.974  0.00  0.00    +0.083 C 
ATOM     16  C   UNL     1      31.612 -23.047 -16.928  0.00  0.00    +0.019 C 
ATOM     17  C   UNL     1      33.557 -23.830 -15.727  0.00  0.00    +0.016 C 
ATOM     18  C   UNL     1      31.343 -24.327 -14.896  0.00  0.00    +0.062 C 
ATOM     19  C   UNL     1      32.730 -24.422 -14.773  0.00  0.00    +0.013 C 
BRANCH  15  23
ATOM     20  F   UNL     1      28.940 -22.774 -17.229  0.00  0.00    -0.166 F 
ATOM     21  F   UNL     1      28.672 -24.714 -16.297  0.00  0.00    -0.166 F 
ATOM     22  F   UNL     1      28.707 -22.918 -15.072  0.00  0.00    -0.166 F 
ATOM     23  C   UNL     1      29.304 -23.514 -16.142  0.00  0.00    +0.419 C 
ENDBRANCH  15  23
ENDBRANCH   8  14
ENDBRANCH   1   9
BRANCH   2  24
ATOM     24  O   UNL     1      35.003 -17.718 -23.774  0.00  0.00    -0.453 OA
BRANCH  24  26
ATOM     25  N   UNL     1      33.634 -13.813 -23.179  0.00  0.00    -0.239 NA
ATOM     26  C   UNL     1      34.550 -16.424 -23.578  0.00  0.00    +0.149 C 
ATOM     27  C   UNL     1      33.948 -15.729 -24.620  0.00  0.00    +0.061 C 
ATOM     28  C   UNL     1      33.510 -14.438 -24.372  0.00  0.00    +0.137 C 
ATOM     29  C   UNL     1      34.695 -15.816 -22.336  0.00  0.00    +0.058 C 
ATOM     30  C   UNL     1      34.225 -14.520 -22.189  0.00  0.00    +0.102 C 
BRANCH  28  33
ATOM     31  O   UNL     1      32.894 -12.420 -25.394  0.00  0.00    -0.269 OA
ATOM     32  N   UNL     1      32.270 -14.379 -26.465  0.00  0.00    -0.313 N 
ATOM     33  C   UNL     1      32.874 -13.664 -25.424  0.00  0.00    +0.263 C 
ATOM     34  H   UNL     1      32.290 -15.363 -26.426  0.00  0.00    +0.149 HD
ATOM     35  C   UNL     1      31.618 -13.754 -27.593  0.00  0.00    +0.128 C 
ENDBRANCH  28  33
ENDBRANCH  24  26
ENDBRANCH   2  24
TORSDOF 6
ENDMDL
