MODEL 1
REMARK VINA RESULT:     -12.5      0.000      0.000
REMARK  Name = 9810927
REMARK  6 active torsions:
REMARK  status: ('A' for Active; 'I' for Inactive)
REMARK    1  A    between atoms: N_1  and  C_13
REMARK    2  A    between atoms: C_11  and  O_24
REMARK    3  A    between atoms: C_12  and  O_26
REMARK    4  A    between atoms: C_14  and  C_18
REMARK    5  A    between atoms: C_19  and  C_20
REMARK    6  A    between atoms: N_28  and  C_32
REMARK                            x       y       z     vdW  Elec       q    Type
REMARK                         _______ _______ _______ _____ _____    ______ ____
ROOT
ATOM      1  N   UNL     1      35.856 -23.325 -16.088  0.00  0.00    -0.247 N 
ATOM      2  N   UNL     1      36.900 -21.683 -17.179  0.00  0.00    -0.242 NA
ATOM      3  N   UNL     1      33.880 -23.557 -17.481  0.00  0.00    -0.228 NA
ATOM      4  N   UNL     1      33.917 -21.982 -19.346  0.00  0.00    -0.228 NA
ATOM      5  C   UNL     1      35.056 -23.005 -17.149  0.00  0.00    +0.152 C 
ATOM      6  C   UNL     1      36.951 -22.502 -16.149  0.00  0.00    +0.223 C 
ATOM      7  C   UNL     1      35.722 -21.986 -17.812  0.00  0.00    +0.140 C 
ATOM      8  C   UNL     1      35.109 -21.472 -18.951  0.00  0.00    +0.150 C 
ATOM      9  C   UNL     1      33.384 -22.978 -18.597  0.00  0.00    +0.253 C 
ATOM     10  N   UNL     1      35.714 -20.437 -19.686  0.00  0.00    -0.295 N 
ATOM     11  H   UNL     1      36.576 -20.141 -19.315  0.00  0.00    +0.154 HD
ENDROOT
BRANCH  10  14
ATOM     12 CL   UNL     1      34.097 -17.509 -24.571  0.00  0.00    -0.082 Cl
ATOM     13  F   UNL     1      37.578 -19.083 -21.247  0.00  0.00    -0.203 F 
ATOM     14  C   UNL     1      35.331 -19.739 -20.851  0.00  0.00    +0.077 C 
ATOM     15  C   UNL     1      36.288 -19.070 -21.612  0.00  0.00    +0.154 C 
ATOM     16  C   UNL     1      33.991 -19.719 -21.239  0.00  0.00    +0.018 C 
ATOM     17  C   UNL     1      35.907 -18.380 -22.763  0.00  0.00    +0.042 C 
ATOM     18  C   UNL     1      33.610 -19.028 -22.389  0.00  0.00    +0.013 C 
ATOM     19  C   UNL     1      34.567 -18.360 -23.152  0.00  0.00    +0.060 C 
ENDBRANCH  10  14
BRANCH   1  23
ATOM     20  O   UNL     1      34.188 -24.620 -14.993  0.00  0.00    -0.326 OA
ATOM     21  C   UNL     1      36.062 -23.954 -13.673  0.00  0.00    +0.187 C 
ATOM     22  C   UNL     1      34.774 -23.476 -13.028  0.00  0.00    +0.178 C 
ATOM     23  C   UNL     1      35.601 -24.349 -15.071  0.00  0.00    +0.225 C 
ATOM     24  C   UNL     1      33.741 -24.417 -13.632  0.00  0.00    +0.223 C 
BRANCH  24  28
ATOM     25  O   UNL     1      31.705 -23.974 -14.908  0.00  0.00    -0.421 OA
ATOM     26  N   UNL     1      31.548 -23.474 -12.733  0.00  0.00    -0.109 NA
ATOM     27  N   UNL     1      30.336 -23.176 -13.328  0.00  0.00    -0.112 NA
ATOM     28  C   UNL     1      32.307 -23.934 -13.693  0.00  0.00    +0.255 A 
ATOM     29  C   UNL     1      30.474 -23.483 -14.597  0.00  0.00    +0.225 A 
BRANCH  29  30
ATOM     30  C   UNL     1      29.506 -23.375 -15.696  0.00  0.00    +0.070 C 
ATOM     31  C   UNL     1      28.869 -24.762 -16.077  0.00  0.00    +0.009 C 
ATOM     32  C   UNL     1      30.148 -22.801 -17.012  0.00  0.00    +0.009 C 
ATOM     33  C   UNL     1      28.263 -22.439 -15.432  0.00  0.00    +0.009 C 
ENDBRANCH  29  30
ENDBRANCH  24  28
BRANCH  21  34
ATOM     34  O   UNL     1      36.542 -25.130 -13.022  0.00  0.00    -0.378 OA
ATOM     35  H   UNL     1      35.853 -25.478 -12.434  0.00  0.00    +0.211 HD
ENDBRANCH  21  34
BRANCH  22  36
ATOM     36  O   UNL     1      34.811 -23.561 -11.618  0.00  0.00    -0.379 OA
ATOM     37  H   UNL     1      34.046 -24.071 -11.305  0.00  0.00    +0.211 HD
ENDBRANCH  22  36
ENDBRANCH   1  23
TORSDOF 6
ENDMDL
MODEL 2
REMARK VINA RESULT:     -11.2      5.819     10.290
REMARK  Name = 9810927
REMARK  6 active torsions:
REMARK  status: ('A' for Active; 'I' for Inactive)
REMARK    1  A    between atoms: N_1  and  C_13
REMARK    2  A    between atoms: C_11  and  O_24
REMARK    3  A    between atoms: C_12  and  O_26
REMARK    4  A    between atoms: C_14  and  C_18
REMARK    5  A    between atoms: C_19  and  C_20
REMARK    6  A    between atoms: N_28  and  C_32
REMARK                            x       y       z     vdW  Elec       q    Type
REMARK                         _______ _______ _______ _____ _____    ______ ____
ROOT
ATOM      1  N   UNL     1      33.980 -20.013 -21.576  0.00  0.00    -0.247 N 
ATOM      2  N   UNL     1      32.045 -20.396 -20.534  0.00  0.00    -0.242 NA
ATOM      3  N   UNL     1      35.483 -21.254 -20.126  0.00  0.00    -0.228 NA
ATOM      4  N   UNL     1      34.275 -22.306 -18.285  0.00  0.00    -0.228 NA
ATOM      5  C   UNL     1      34.278 -20.798 -20.497  0.00  0.00    +0.152 C 
ATOM      6  C   UNL     1      32.627 -19.798 -21.554  0.00  0.00    +0.223 C 
ATOM      7  C   UNL     1      33.065 -21.024 -19.866  0.00  0.00    +0.140 C 
ATOM      8  C   UNL     1      33.090 -21.811 -18.719  0.00  0.00    +0.150 C 
ATOM      9  C   UNL     1      35.382 -22.001 -19.005  0.00  0.00    +0.253 C 
ATOM     10  N   UNL     1      31.906 -22.093 -18.015  0.00  0.00    -0.295 N 
ATOM     11  H   UNL     1      31.103 -21.687 -18.416  0.00  0.00    +0.154 HD
ENDROOT
BRANCH  10  14
ATOM     12 CL   UNL     1      30.794 -25.239 -13.125  0.00  0.00    -0.082 Cl
ATOM     13  F   UNL     1      29.305 -22.491 -17.109  0.00  0.00    -0.203 F 
ATOM     14  C   UNL     1      31.639 -22.843 -16.850  0.00  0.00    +0.077 C 
ATOM     15  C   UNL     1      30.325 -23.024 -16.421  0.00  0.00    +0.154 C 
ATOM     16  C   UNL     1      32.692 -23.401 -16.127  0.00  0.00    +0.018 C 
ATOM     17  C   UNL     1      30.063 -23.765 -15.269  0.00  0.00    +0.042 C 
ATOM     18  C   UNL     1      32.432 -24.142 -14.975  0.00  0.00    +0.013 C 
ATOM     19  C   UNL     1      31.117 -24.325 -14.546  0.00  0.00    +0.060 C 
ENDBRANCH  10  14
BRANCH   1  23
ATOM     20  O   UNL     1      35.253 -18.124 -22.263  0.00  0.00    -0.326 OA
ATOM     21  C   UNL     1      34.381 -19.514 -23.997  0.00  0.00    +0.187 C 
ATOM     22  C   UNL     1      33.911 -18.084 -24.190  0.00  0.00    +0.178 C 
ATOM     23  C   UNL     1      34.921 -19.492 -22.571  0.00  0.00    +0.225 C 
ATOM     24  C   UNL     1      34.952 -17.293 -23.408  0.00  0.00    +0.223 C 
BRANCH  24  28
ATOM     25  O   UNL     1      34.032 -15.063 -23.794  0.00  0.00    -0.421 OA
ATOM     26  N   UNL     1      34.622 -15.454 -21.673  0.00  0.00    -0.109 NA
ATOM     27  N   UNL     1      34.124 -14.166 -21.747  0.00  0.00    -0.112 NA
ATOM     28  C   UNL     1      34.547 -15.930 -22.887  0.00  0.00    +0.255 A 
ATOM     29  C   UNL     1      33.792 -13.982 -23.003  0.00  0.00    +0.225 A 
BRANCH  29  30
ATOM     30  C   UNL     1      33.210 -12.801 -23.653  0.00  0.00    +0.070 C 
ATOM     31  C   UNL     1      32.016 -12.187 -22.833  0.00  0.00    +0.009 C 
ATOM     32  C   UNL     1      32.649 -13.116 -25.089  0.00  0.00    +0.009 C 
ATOM     33  C   UNL     1      34.189 -11.584 -23.879  0.00  0.00    +0.009 C 
ENDBRANCH  29  30
ENDBRANCH  24  28
BRANCH  21  34
ATOM     34  O   UNL     1      35.469 -19.806 -24.872  0.00  0.00    -0.378 OA
ATOM     35  H   UNL     1      36.264 -19.994 -24.348  0.00  0.00    +0.211 HD
ENDBRANCH  21  34
BRANCH  22  36
ATOM     36  O   UNL     1      33.869 -17.707 -25.551  0.00  0.00    -0.379 OA
ATOM     37  H   UNL     1      34.695 -17.254 -25.787  0.00  0.00    +0.211 HD
ENDBRANCH  22  36
ENDBRANCH   1  23
TORSDOF 6
ENDMDL
MODEL 3
REMARK VINA RESULT:     -11.2      7.779     12.136
REMARK  Name = 9810927
REMARK  6 active torsions:
REMARK  status: ('A' for Active; 'I' for Inactive)
REMARK    1  A    between atoms: N_1  and  C_13
REMARK    2  A    between atoms: C_11  and  O_24
REMARK    3  A    between atoms: C_12  and  O_26
REMARK    4  A    between atoms: C_14  and  C_18
REMARK    5  A    between atoms: C_19  and  C_20
REMARK    6  A    between atoms: N_28  and  C_32
REMARK                            x       y       z     vdW  Elec       q    Type
REMARK                         _______ _______ _______ _____ _____    ______ ____
ROOT
ATOM      1  N   UNL     1      34.123 -16.331 -25.205  0.00  0.00    -0.247 N 
ATOM      2  N   UNL     1      33.750 -18.499 -24.835  0.00  0.00    -0.242 NA
ATOM      3  N   UNL     1      34.770 -15.636 -22.969  0.00  0.00    -0.228 NA
ATOM      4  N   UNL     1      34.728 -17.511 -21.408  0.00  0.00    -0.228 NA
ATOM      5  C   UNL     1      34.376 -16.540 -23.878  0.00  0.00    +0.152 C 
ATOM      6  C   UNL     1      33.749 -17.538 -25.736  0.00  0.00    +0.223 C 
ATOM      7  C   UNL     1      34.140 -17.890 -23.671  0.00  0.00    +0.140 C 
ATOM      8  C   UNL     1      34.330 -18.370 -22.378  0.00  0.00    +0.150 C 
ATOM      9  C   UNL     1      34.920 -16.216 -21.759  0.00  0.00    +0.253 C 
ATOM     10  N   UNL     1      34.114 -19.726 -22.077  0.00  0.00    -0.295 N 
ATOM     11  H   UNL     1      33.830 -20.262 -22.853  0.00  0.00    +0.154 HD
ENDROOT
BRANCH  10  14
ATOM     12 CL   UNL     1      34.590 -22.856 -17.075  0.00  0.00    -0.082 Cl
ATOM     13  F   UNL     1      31.862 -20.568 -20.675  0.00  0.00    -0.203 F 
ATOM     14  C   UNL     1      34.225 -20.472 -20.885  0.00  0.00    +0.077 C 
ATOM     15  C   UNL     1      33.078 -20.879 -20.205  0.00  0.00    +0.154 C 
ATOM     16  C   UNL     1      35.486 -20.801 -20.387  0.00  0.00    +0.018 C 
ATOM     17  C   UNL     1      33.191 -21.617 -19.027  0.00  0.00    +0.042 C 
ATOM     18  C   UNL     1      35.599 -21.537 -19.208  0.00  0.00    +0.013 C 
ATOM     19  C   UNL     1      34.452 -21.946 -18.528  0.00  0.00    +0.060 C 
ENDBRANCH  10  14
BRANCH   1  23
ATOM     20  O   UNL     1      34.228 -13.963 -24.999  0.00  0.00    -0.326 OA
ATOM     21  C   UNL     1      33.082 -14.821 -26.910  0.00  0.00    +0.187 C 
ATOM     22  C   UNL     1      32.166 -13.905 -26.120  0.00  0.00    +0.178 C 
ATOM     23  C   UNL     1      34.226 -15.063 -25.932  0.00  0.00    +0.225 C 
ATOM     24  C   UNL     1      33.156 -13.053 -25.337  0.00  0.00    +0.223 C 
BRANCH  24  28
ATOM     25  O   UNL     1      32.659 -11.069 -24.001  0.00  0.00    -0.421 OA
ATOM     26  N   UNL     1      32.254 -13.003 -22.952  0.00  0.00    -0.109 NA
ATOM     27  N   UNL     1      31.933 -11.972 -22.087  0.00  0.00    -0.112 NA
ATOM     28  C   UNL     1      32.671 -12.425 -24.048  0.00  0.00    +0.255 A 
ATOM     29  C   UNL     1      32.186 -10.864 -22.741  0.00  0.00    +0.225 A 
BRANCH  29  30
ATOM     30  C   UNL     1      32.027  -9.468 -22.313  0.00  0.00    +0.070 C 
ATOM     31  C   UNL     1      33.210  -8.550 -22.796  0.00  0.00    +0.009 C 
ATOM     32  C   UNL     1      31.958  -9.320 -20.749  0.00  0.00    +0.009 C 
ATOM     33  C   UNL     1      30.731  -8.730 -22.829  0.00  0.00    +0.009 C 
ENDBRANCH  29  30
ENDBRANCH  24  28
BRANCH  21  34
ATOM     34  O   UNL     1      33.614 -14.140 -28.046  0.00  0.00    -0.378 OA
ATOM     35  H   UNL     1      34.409 -13.648 -27.784  0.00  0.00    +0.211 HD
ENDBRANCH  21  34
BRANCH  22  36
ATOM     36  O   UNL     1      31.334 -13.122 -26.953  0.00  0.00    -0.379 OA
ATOM     37  H   UNL     1      31.203 -12.248 -26.550  0.00  0.00    +0.211 HD
ENDBRANCH  22  36
ENDBRANCH   1  23
TORSDOF 6
ENDMDL
MODEL 4
REMARK VINA RESULT:     -10.9     11.921     16.046
REMARK  Name = 9810927
REMARK  6 active torsions:
REMARK  status: ('A' for Active; 'I' for Inactive)
REMARK    1  A    between atoms: N_1  and  C_13
REMARK    2  A    between atoms: C_11  and  O_24
REMARK    3  A    between atoms: C_12  and  O_26
REMARK    4  A    between atoms: C_14  and  C_18
REMARK    5  A    between atoms: C_19  and  C_20
REMARK    6  A    between atoms: N_28  and  C_32
REMARK                            x       y       z     vdW  Elec       q    Type
REMARK                         _______ _______ _______ _____ _____    ______ ____
ROOT
ATOM      1  N   UNL     1      31.621  -9.213 -22.550  0.00  0.00    -0.247 N 
ATOM      2  N   UNL     1      32.808 -10.349 -24.060  0.00  0.00    -0.242 NA
ATOM      3  N   UNL     1      31.176 -10.990 -20.953  0.00  0.00    -0.228 NA
ATOM      4  N   UNL     1      32.170 -13.100 -21.672  0.00  0.00    -0.228 NA
ATOM      5  C   UNL     1      31.700 -10.497 -22.085  0.00  0.00    +0.152 C 
ATOM      6  C   UNL     1      32.301  -9.176 -23.739  0.00  0.00    +0.223 C 
ATOM      7  C   UNL     1      32.440 -11.183 -23.035  0.00  0.00    +0.140 C 
ATOM      8  C   UNL     1      32.671 -12.534 -22.797  0.00  0.00    +0.150 C 
ATOM      9  C   UNL     1      31.464 -12.304 -20.832  0.00  0.00    +0.253 C 
ATOM     10  N   UNL     1      33.413 -13.308 -23.707  0.00  0.00    -0.295 N 
ATOM     11  H   UNL     1      33.731 -12.800 -24.488  0.00  0.00    +0.154 HD
ENDROOT
BRANCH  10  14
ATOM     12 CL   UNL     1      35.011 -19.007 -23.765  0.00  0.00    -0.082 Cl
ATOM     13  F   UNL     1      32.759 -14.974 -25.838  0.00  0.00    -0.203 F 
ATOM     14  C   UNL     1      33.793 -14.666 -23.723  0.00  0.00    +0.077 C 
ATOM     15  C   UNL     1      33.450 -15.476 -24.805  0.00  0.00    +0.154 C 
ATOM     16  C   UNL     1      34.511 -15.198 -22.653  0.00  0.00    +0.018 C 
ATOM     17  C   UNL     1      33.827 -16.818 -24.819  0.00  0.00    +0.042 C 
ATOM     18  C   UNL     1      34.888 -16.541 -22.665  0.00  0.00    +0.013 C 
ATOM     19  C   UNL     1      34.547 -17.351 -23.748  0.00  0.00    +0.060 C 
ENDBRANCH  10  14
BRANCH   1  23
ATOM     20  O   UNL     1      30.253  -7.299 -22.902  0.00  0.00    -0.326 OA
ATOM     21  C   UNL     1      31.879  -7.146 -21.161  0.00  0.00    +0.187 C 
ATOM     22  C   UNL     1      32.077  -6.021 -22.159  0.00  0.00    +0.178 C 
ATOM     23  C   UNL     1      30.940  -8.086 -21.909  0.00  0.00    +0.225 C 
ATOM     24  C   UNL     1      30.708  -5.928 -22.819  0.00  0.00    +0.223 C 
BRANCH  24  28
ATOM     25  O   UNL     1      31.127  -6.116 -25.219  0.00  0.00    -0.421 OA
ATOM     26  N   UNL     1      30.184  -4.183 -24.603  0.00  0.00    -0.109 NA
ATOM     27  N   UNL     1      30.364  -4.153 -25.974  0.00  0.00    -0.112 NA
ATOM     28  C   UNL     1      30.643  -5.343 -24.214  0.00  0.00    +0.255 A 
ATOM     29  C   UNL     1      30.917  -5.301 -26.288  0.00  0.00    +0.225 A 
BRANCH  29  30
ATOM     30  C   UNL     1      31.326  -5.813 -27.603  0.00  0.00    +0.070 C 
ATOM     31  C   UNL     1      30.899  -7.310 -27.826  0.00  0.00    +0.009 C 
ATOM     32  C   UNL     1      32.884  -5.757 -27.816  0.00  0.00    +0.009 C 
ATOM     33  C   UNL     1      30.737  -5.053 -28.854  0.00  0.00    +0.009 C 
ENDBRANCH  29  30
ENDBRANCH  24  28
BRANCH  21  34
ATOM     34  O   UNL     1      31.194  -6.674 -20.002  0.00  0.00    -0.378 OA
ATOM     35  H   UNL     1      31.542  -7.124 -19.215  0.00  0.00    +0.211 HD
ENDBRANCH  21  34
BRANCH  22  36
ATOM     36  O   UNL     1      32.451  -4.807 -21.539  0.00  0.00    -0.379 OA
ATOM     37  H   UNL     1      32.290  -4.069 -22.149  0.00  0.00    +0.211 HD
ENDBRANCH  22  36
ENDBRANCH   1  23
TORSDOF 6
ENDMDL
MODEL 5
REMARK VINA RESULT:     -10.8      2.437      3.329
REMARK  Name = 9810927
REMARK  6 active torsions:
REMARK  status: ('A' for Active; 'I' for Inactive)
REMARK    1  A    between atoms: N_1  and  C_13
REMARK    2  A    between atoms: C_11  and  O_24
REMARK    3  A    between atoms: C_12  and  O_26
REMARK    4  A    between atoms: C_14  and  C_18
REMARK    5  A    between atoms: C_19  and  C_20
REMARK    6  A    between atoms: N_28  and  C_32
REMARK                            x       y       z     vdW  Elec       q    Type
REMARK                         _______ _______ _______ _____ _____    ______ ____
ROOT
ATOM      1  N   UNL     1      35.549 -21.679 -18.867  0.00  0.00    -0.247 N 
ATOM      2  N   UNL     1      36.594 -19.950 -19.814  0.00  0.00    -0.242 NA
ATOM      3  N   UNL     1      33.334 -21.401 -19.828  0.00  0.00    -0.228 NA
ATOM      4  N   UNL     1      33.248 -19.467 -21.315  0.00  0.00    -0.228 NA
ATOM      5  C   UNL     1      34.619 -21.055 -19.652  0.00  0.00    +0.152 C 
ATOM      6  C   UNL     1      36.718 -20.977 -18.998  0.00  0.00    +0.223 C 
ATOM      7  C   UNL     1      35.287 -19.988 -20.230  0.00  0.00    +0.140 C 
ATOM      8  C   UNL     1      34.553 -19.178 -21.090  0.00  0.00    +0.150 C 
ATOM      9  C   UNL     1      32.728 -20.545 -20.679  0.00  0.00    +0.253 C 
ATOM     10  N   UNL     1      35.150 -18.073 -21.721  0.00  0.00    -0.295 N 
ATOM     11  H   UNL     1      36.101 -17.953 -21.491  0.00  0.00    +0.154 HD
ENDROOT
BRANCH  10  14
ATOM     12 CL   UNL     1      33.092 -14.003 -25.497  0.00  0.00    -0.082 Cl
ATOM     13  F   UNL     1      34.884 -15.405 -20.973  0.00  0.00    -0.203 F 
ATOM     14  C   UNL     1      34.660 -17.101 -22.620  0.00  0.00    +0.077 C 
ATOM     15  C   UNL     1      34.538 -15.773 -22.215  0.00  0.00    +0.154 C 
ATOM     16  C   UNL     1      34.297 -17.473 -23.913  0.00  0.00    +0.018 C 
ATOM     17  C   UNL     1      34.054 -14.814 -23.104  0.00  0.00    +0.042 C 
ATOM     18  C   UNL     1      33.811 -16.515 -24.803  0.00  0.00    +0.013 C 
ATOM     19  C   UNL     1      33.691 -15.186 -24.400  0.00  0.00    +0.060 C 
ENDBRANCH  10  14
BRANCH   1  23
ATOM     20  O   UNL     1      33.971 -23.299 -18.128  0.00  0.00    -0.326 OA
ATOM     21  C   UNL     1      35.653 -22.652 -16.562  0.00  0.00    +0.187 C 
ATOM     22  C   UNL     1      34.275 -22.420 -15.972  0.00  0.00    +0.178 C 
ATOM     23  C   UNL     1      35.345 -22.870 -18.039  0.00  0.00    +0.225 C 
ATOM     24  C   UNL     1      33.406 -23.359 -16.797  0.00  0.00    +0.223 C 
BRANCH  24  28
ATOM     25  O   UNL     1      31.081 -23.796 -16.190  0.00  0.00    -0.421 OA
ATOM     26  N   UNL     1      31.348 -22.097 -17.620  0.00  0.00    -0.109 NA
ATOM     27  N   UNL     1      29.996 -22.233 -17.366  0.00  0.00    -0.112 NA
ATOM     28  C   UNL     1      31.934 -23.028 -16.913  0.00  0.00    +0.255 A 
ATOM     29  C   UNL     1      29.887 -23.236 -16.527  0.00  0.00    +0.225 A 
BRANCH  29  30
ATOM     30  C   UNL     1      28.685 -23.818 -15.916  0.00  0.00    +0.070 C 
ATOM     31  C   UNL     1      27.671 -22.724 -15.418  0.00  0.00    +0.009 C 
ATOM     32  C   UNL     1      29.017 -24.720 -14.671  0.00  0.00    +0.009 C 
ATOM     33  C   UNL     1      27.820 -24.751 -16.850  0.00  0.00    +0.009 C 
ENDBRANCH  29  30
ENDBRANCH  24  28
BRANCH  21  34
ATOM     34  O   UNL     1      36.221 -23.857 -16.051  0.00  0.00    -0.378 OA
ATOM     35  H   UNL     1      36.093 -23.892 -15.090  0.00  0.00    +0.211 HD
ENDBRANCH  21  34
BRANCH  22  36
ATOM     36  O   UNL     1      34.220 -22.720 -14.592  0.00  0.00    -0.379 OA
ATOM     37  H   UNL     1      34.680 -22.027 -14.091  0.00  0.00    +0.211 HD
ENDBRANCH  22  36
ENDBRANCH   1  23
TORSDOF 6
ENDMDL
MODEL 6
REMARK VINA RESULT:     -10.7      8.300     13.153
REMARK  Name = 9810927
REMARK  6 active torsions:
REMARK  status: ('A' for Active; 'I' for Inactive)
REMARK    1  A    between atoms: N_1  and  C_13
REMARK    2  A    between atoms: C_11  and  O_24
REMARK    3  A    between atoms: C_12  and  O_26
REMARK    4  A    between atoms: C_14  and  C_18
REMARK    5  A    between atoms: C_19  and  C_20
REMARK    6  A    between atoms: N_28  and  C_32
REMARK                            x       y       z     vdW  Elec       q    Type
REMARK                         _______ _______ _______ _____ _____    ______ ____
ROOT
ATOM      1  N   UNL     1      33.698 -15.920 -25.550  0.00  0.00    -0.247 N 
ATOM      2  N   UNL     1      34.099 -15.902 -23.356  0.00  0.00    -0.242 NA
ATOM      3  N   UNL     1      33.646 -18.317 -25.941  0.00  0.00    -0.228 NA
ATOM      4  N   UNL     1      34.032 -19.563 -23.878  0.00  0.00    -0.228 NA
ATOM      5  C   UNL     1      33.779 -17.230 -25.167  0.00  0.00    +0.152 C 
ATOM      6  C   UNL     1      33.898 -15.162 -24.426  0.00  0.00    +0.223 C 
ATOM      7  C   UNL     1      34.026 -17.196 -23.804  0.00  0.00    +0.140 C 
ATOM      8  C   UNL     1      34.154 -18.421 -23.157  0.00  0.00    +0.150 C 
ATOM      9  C   UNL     1      33.789 -19.441 -25.206  0.00  0.00    +0.253 C 
ATOM     10  N   UNL     1      34.405 -18.482 -21.775  0.00  0.00    -0.295 N 
ATOM     11  H   UNL     1      34.474 -17.597 -21.348  0.00  0.00    +0.154 HD
ENDROOT
BRANCH  10  14
ATOM     12 CL   UNL     1      35.136 -22.992 -18.011  0.00  0.00    -0.082 Cl
ATOM     13  F   UNL     1      32.238 -19.967 -20.856  0.00  0.00    -0.203 F 
ATOM     14  C   UNL     1      34.577 -19.557 -20.879  0.00  0.00    +0.077 C 
ATOM     15  C   UNL     1      33.472 -20.282 -20.436  0.00  0.00    +0.154 C 
ATOM     16  C   UNL     1      35.856 -19.893 -20.435  0.00  0.00    +0.018 C 
ATOM     17  C   UNL     1      33.644 -21.344 -19.549  0.00  0.00    +0.042 C 
ATOM     18  C   UNL     1      36.029 -20.955 -19.548  0.00  0.00    +0.013 C 
ATOM     19  C   UNL     1      34.924 -21.681 -19.105  0.00  0.00    +0.060 C 
ENDBRANCH  10  14
BRANCH   1  23
ATOM     20  O   UNL     1      34.152 -14.170 -27.096  0.00  0.00    -0.326 OA
ATOM     21  C   UNL     1      31.975 -15.145 -27.194  0.00  0.00    +0.187 C 
ATOM     22  C   UNL     1      31.866 -13.647 -26.977  0.00  0.00    +0.178 C 
ATOM     23  C   UNL     1      33.447 -15.412 -26.901  0.00  0.00    +0.225 C 
ATOM     24  C   UNL     1      33.209 -13.146 -27.491  0.00  0.00    +0.223 C 
BRANCH  24  28
ATOM     25  O   UNL     1      33.020 -11.287 -25.917  0.00  0.00    -0.421 OA
ATOM     26  N   UNL     1      34.743 -11.116 -27.332  0.00  0.00    -0.109 NA
ATOM     27  N   UNL     1      34.756 -10.006 -26.507  0.00  0.00    -0.112 NA
ATOM     28  C   UNL     1      33.717 -11.827 -26.948  0.00  0.00    +0.255 A 
ATOM     29  C   UNL     1      33.733 -10.149 -25.698  0.00  0.00    +0.225 A 
BRANCH  29  30
ATOM     30  C   UNL     1      33.266  -9.273 -24.615  0.00  0.00    +0.070 C 
ATOM     31  C   UNL     1      34.448  -8.533 -23.887  0.00  0.00    +0.009 C 
ATOM     32  C   UNL     1      32.476 -10.055 -23.503  0.00  0.00    +0.009 C 
ATOM     33  C   UNL     1      32.286  -8.111 -25.041  0.00  0.00    +0.009 C 
ENDBRANCH  29  30
ENDBRANCH  24  28
BRANCH  21  34
ATOM     34  O   UNL     1      31.735 -15.472 -28.562  0.00  0.00    -0.378 OA
ATOM     35  H   UNL     1      31.634 -14.655 -29.076  0.00  0.00    +0.211 HD
ENDBRANCH  21  34
BRANCH  22  36
ATOM     36  O   UNL     1      30.781 -13.076 -27.680  0.00  0.00    -0.379 OA
ATOM     37  H   UNL     1      30.923 -12.120 -27.771  0.00  0.00    +0.211 HD
ENDBRANCH  22  36
ENDBRANCH   1  23
TORSDOF 6
ENDMDL
MODEL 7
REMARK VINA RESULT:     -10.5      1.656      2.712
REMARK  Name = 9810927
REMARK  6 active torsions:
REMARK  status: ('A' for Active; 'I' for Inactive)
REMARK    1  A    between atoms: N_1  and  C_13
REMARK    2  A    between atoms: C_11  and  O_24
REMARK    3  A    between atoms: C_12  and  O_26
REMARK    4  A    between atoms: C_14  and  C_18
REMARK    5  A    between atoms: C_19  and  C_20
REMARK    6  A    between atoms: N_28  and  C_32
REMARK                            x       y       z     vdW  Elec       q    Type
REMARK                         _______ _______ _______ _____ _____    ______ ____
ROOT
ATOM      1  N   UNL     1      34.463 -22.532 -18.262  0.00  0.00    -0.247 N 
ATOM      2  N   UNL     1      32.937 -21.464 -19.490  0.00  0.00    -0.242 NA
ATOM      3  N   UNL     1      36.490 -21.566 -19.190  0.00  0.00    -0.228 NA
ATOM      4  N   UNL     1      35.982 -19.951 -20.947  0.00  0.00    -0.228 NA
ATOM      5  C   UNL     1      35.160 -21.711 -19.105  0.00  0.00    +0.152 C 
ATOM      6  C   UNL     1      33.132 -22.347 -18.533  0.00  0.00    +0.223 C 
ATOM      7  C   UNL     1      34.195 -21.058 -19.856  0.00  0.00    +0.140 C 
ATOM      8  C   UNL     1      34.648 -20.148 -20.807  0.00  0.00    +0.150 C 
ATOM      9  C   UNL     1      36.808 -20.662 -20.142  0.00  0.00    +0.253 C 
ATOM     10  N   UNL     1      33.740 -19.440 -21.613  0.00  0.00    -0.295 N 
ATOM     11  H   UNL     1      32.797 -19.657 -21.429  0.00  0.00    +0.154 HD
ENDROOT
BRANCH  10  14
ATOM     12 CL   UNL     1      34.451 -15.418 -25.898  0.00  0.00    -0.082 Cl
ATOM     13  F   UNL     1      34.802 -16.924 -21.076  0.00  0.00    -0.203 F 
ATOM     14  C   UNL     1      33.911 -18.480 -22.633  0.00  0.00    +0.077 C 
ATOM     15  C   UNL     1      34.445 -17.228 -22.332  0.00  0.00    +0.154 C 
ATOM     16  C   UNL     1      33.542 -18.786 -23.942  0.00  0.00    +0.018 C 
ATOM     17  C   UNL     1      34.612 -16.281 -23.342  0.00  0.00    +0.042 C 
ATOM     18  C   UNL     1      33.708 -17.839 -24.952  0.00  0.00    +0.013 C 
ATOM     19  C   UNL     1      34.244 -16.587 -24.653  0.00  0.00    +0.060 C 
ENDBRANCH  10  14
BRANCH   1  23
ATOM     20  O   UNL     1      33.958 -24.153 -16.596  0.00  0.00    -0.326 OA
ATOM     21  C   UNL     1      35.833 -22.737 -16.176  0.00  0.00    +0.187 C 
ATOM     22  C   UNL     1      34.837 -22.634 -15.036  0.00  0.00    +0.178 C 
ATOM     23  C   UNL     1      35.022 -23.440 -17.258  0.00  0.00    +0.225 C 
ATOM     24  C   UNL     1      34.057 -23.935 -15.169  0.00  0.00    +0.223 C 
BRANCH  24  28
ATOM     25  O   UNL     1      31.638 -23.830 -15.498  0.00  0.00    -0.421 OA
ATOM     26  N   UNL     1      32.260 -24.110 -13.368  0.00  0.00    -0.109 NA
ATOM     27  N   UNL     1      30.878 -24.068 -13.408  0.00  0.00    -0.112 NA
ATOM     28  C   UNL     1      32.652 -23.968 -14.607  0.00  0.00    +0.255 A 
ATOM     29  C   UNL     1      30.561 -23.903 -14.670  0.00  0.00    +0.225 A 
BRANCH  29  30
ATOM     30  C   UNL     1      29.236 -23.793 -15.295  0.00  0.00    +0.070 C 
ATOM     31  C   UNL     1      28.501 -22.454 -14.920  0.00  0.00    +0.009 C 
ATOM     32  C   UNL     1      28.272 -24.963 -14.878  0.00  0.00    +0.009 C 
ATOM     33  C   UNL     1      29.213 -23.817 -16.873  0.00  0.00    +0.009 C 
ENDBRANCH  29  30
ENDBRANCH  24  28
BRANCH  21  34
ATOM     34  O   UNL     1      36.919 -23.590 -15.818  0.00  0.00    -0.378 OA
ATOM     35  H   UNL     1      37.719 -23.057 -15.685  0.00  0.00    +0.211 HD
ENDBRANCH  21  34
BRANCH  22  36
ATOM     36  O   UNL     1      35.466 -22.518 -13.776  0.00  0.00    -0.379 OA
ATOM     37  H   UNL     1      35.688 -21.588 -13.610  0.00  0.00    +0.211 HD
ENDBRANCH  22  36
ENDBRANCH   1  23
TORSDOF 6
ENDMDL
MODEL 8
REMARK VINA RESULT:     -10.5      6.437      9.054
REMARK  Name = 9810927
REMARK  6 active torsions:
REMARK  status: ('A' for Active; 'I' for Inactive)
REMARK    1  A    between atoms: N_1  and  C_13
REMARK    2  A    between atoms: C_11  and  O_24
REMARK    3  A    between atoms: C_12  and  O_26
REMARK    4  A    between atoms: C_14  and  C_18
REMARK    5  A    between atoms: C_19  and  C_20
REMARK    6  A    between atoms: N_28  and  C_32
REMARK                            x       y       z     vdW  Elec       q    Type
REMARK                         _______ _______ _______ _____ _____    ______ ____
ROOT
ATOM      1  N   UNL     1      34.684 -16.445 -22.318  0.00  0.00    -0.247 N 
ATOM      2  N   UNL     1      34.116 -14.754 -20.979  0.00  0.00    -0.242 NA
ATOM      3  N   UNL     1      33.911 -15.564 -24.447  0.00  0.00    -0.228 NA
ATOM      4  N   UNL     1      32.919 -13.350 -24.184  0.00  0.00    -0.228 NA
ATOM      5  C   UNL     1      34.105 -15.501 -23.121  0.00  0.00    +0.152 C 
ATOM      6  C   UNL     1      34.666 -15.949 -21.041  0.00  0.00    +0.223 C 
ATOM      7  C   UNL     1      33.763 -14.462 -22.271  0.00  0.00    +0.140 C 
ATOM      8  C   UNL     1      33.147 -13.355 -22.848  0.00  0.00    +0.150 C 
ATOM      9  C   UNL     1      33.309 -14.440 -24.890  0.00  0.00    +0.253 C 
ATOM     10  N   UNL     1      32.766 -12.254 -22.062  0.00  0.00    -0.295 N 
ATOM     11  H   UNL     1      32.978 -12.360 -21.106  0.00  0.00    +0.154 HD
ENDROOT
BRANCH  10  14
ATOM     12 CL   UNL     1      30.144  -7.107 -23.360  0.00  0.00    -0.082 Cl
ATOM     13  F   UNL     1      30.503 -11.394 -20.689  0.00  0.00    -0.203 F 
ATOM     14  C   UNL     1      32.140 -11.028 -22.370  0.00  0.00    +0.077 C 
ATOM     15  C   UNL     1      31.007 -10.624 -21.664  0.00  0.00    +0.154 C 
ATOM     16  C   UNL     1      32.655 -10.220 -23.382  0.00  0.00    +0.018 C 
ATOM     17  C   UNL     1      30.390  -9.412 -21.970  0.00  0.00    +0.042 C 
ATOM     18  C   UNL     1      32.038  -9.008 -23.689  0.00  0.00    +0.013 C 
ATOM     19  C   UNL     1      30.906  -8.603 -22.983  0.00  0.00    +0.060 C 
ENDBRANCH  10  14
BRANCH   1  23
ATOM     20  O   UNL     1      34.285 -18.789 -22.405  0.00  0.00    -0.326 OA
ATOM     21  C   UNL     1      36.546 -18.101 -22.067  0.00  0.00    +0.187 C 
ATOM     22  C   UNL     1      36.108 -19.022 -20.944  0.00  0.00    +0.178 C 
ATOM     23  C   UNL     1      35.222 -17.743 -22.733  0.00  0.00    +0.225 C 
ATOM     24  C   UNL     1      34.944 -19.774 -21.576  0.00  0.00    +0.223 C 
BRANCH  24  28
ATOM     25  O   UNL     1      34.307 -21.368 -19.838  0.00  0.00    -0.421 OA
ATOM     26  N   UNL     1      32.644 -20.028 -20.504  0.00  0.00    -0.109 NA
ATOM     27  N   UNL     1      32.148 -20.872 -19.527  0.00  0.00    -0.112 NA
ATOM     28  C   UNL     1      33.901 -20.357 -20.646  0.00  0.00    +0.255 A 
ATOM     29  C   UNL     1      33.153 -21.636 -19.168  0.00  0.00    +0.225 A 
BRANCH  29  30
ATOM     30  C   UNL     1      33.201 -22.709 -18.167  0.00  0.00    +0.070 C 
ATOM     31  C   UNL     1      33.395 -24.130 -18.814  0.00  0.00    +0.009 C 
ATOM     32  C   UNL     1      31.891 -22.788 -17.301  0.00  0.00    +0.009 C 
ATOM     33  C   UNL     1      34.362 -22.608 -17.103  0.00  0.00    +0.009 C 
ENDBRANCH  29  30
ENDBRANCH  24  28
BRANCH  21  34
ATOM     34  O   UNL     1      37.336 -18.812 -23.019  0.00  0.00    -0.378 OA
ATOM     35  H   UNL     1      38.126 -19.168 -22.581  0.00  0.00    +0.211 HD
ENDBRANCH  21  34
BRANCH  22  36
ATOM     36  O   UNL     1      37.139 -19.893 -20.525  0.00  0.00    -0.379 OA
ATOM     37  H   UNL     1      36.749 -20.707 -20.166  0.00  0.00    +0.211 HD
ENDBRANCH  22  36
ENDBRANCH   1  23
TORSDOF 6
ENDMDL
MODEL 9
REMARK VINA RESULT:     -10.0      6.553     11.104
REMARK  Name = 9810927
REMARK  6 active torsions:
REMARK  status: ('A' for Active; 'I' for Inactive)
REMARK    1  A    between atoms: N_1  and  C_13
REMARK    2  A    between atoms: C_11  and  O_24
REMARK    3  A    between atoms: C_12  and  O_26
REMARK    4  A    between atoms: C_14  and  C_18
REMARK    5  A    between atoms: C_19  and  C_20
REMARK    6  A    between atoms: N_28  and  C_32
REMARK                            x       y       z     vdW  Elec       q    Type
REMARK                         _______ _______ _______ _____ _____    ______ ____
ROOT
ATOM      1  N   UNL     1      34.438 -18.613 -23.346  0.00  0.00    -0.247 N 
ATOM      2  N   UNL     1      33.296 -19.799 -21.841  0.00  0.00    -0.242 NA
ATOM      3  N   UNL     1      36.659 -18.734 -22.369  0.00  0.00    -0.228 NA
ATOM      4  N   UNL     1      36.650 -20.026 -20.299  0.00  0.00    -0.228 NA
ATOM      5  C   UNL     1      35.345 -19.002 -22.400  0.00  0.00    +0.152 C 
ATOM      6  C   UNL     1      33.222 -19.115 -22.965  0.00  0.00    +0.223 C 
ATOM      7  C   UNL     1      34.617 -19.737 -21.478  0.00  0.00    +0.140 C 
ATOM      8  C   UNL     1      35.318 -20.258 -20.395  0.00  0.00    +0.150 C 
ATOM      9  C   UNL     1      37.229 -19.289 -21.277  0.00  0.00    +0.253 C 
ATOM     10  N   UNL     1      34.659 -21.016 -19.411  0.00  0.00    -0.295 N 
ATOM     11  H   UNL     1      33.695 -21.126 -19.578  0.00  0.00    +0.154 HD
ENDROOT
BRANCH  10  14
ATOM     12 CL   UNL     1      36.538 -23.680 -14.470  0.00  0.00    -0.082 Cl
ATOM     13  F   UNL     1      32.977 -22.659 -17.922  0.00  0.00    -0.203 F 
ATOM     14  C   UNL     1      35.105 -21.652 -18.234  0.00  0.00    +0.077 C 
ATOM     15  C   UNL     1      34.239 -22.470 -17.509  0.00  0.00    +0.154 C 
ATOM     16  C   UNL     1      36.415 -21.461 -17.795  0.00  0.00    +0.018 C 
ATOM     17  C   UNL     1      34.682 -23.097 -16.345  0.00  0.00    +0.042 C 
ATOM     18  C   UNL     1      36.858 -22.087 -16.630  0.00  0.00    +0.013 C 
ATOM     19  C   UNL     1      35.992 -22.906 -15.906  0.00  0.00    +0.060 C 
ENDBRANCH  10  14
BRANCH   1  23
ATOM     20  O   UNL     1      34.905 -16.431 -24.172  0.00  0.00    -0.326 OA
ATOM     21  C   UNL     1      33.575 -17.840 -25.566  0.00  0.00    +0.187 C 
ATOM     22  C   UNL     1      32.836 -16.547 -25.275  0.00  0.00    +0.178 C 
ATOM     23  C   UNL     1      34.704 -17.809 -24.542  0.00  0.00    +0.225 C 
ATOM     24  C   UNL     1      33.970 -15.602 -24.901  0.00  0.00    +0.223 C 
BRANCH  24  28
ATOM     25  O   UNL     1      33.567 -13.208 -24.633  0.00  0.00    -0.421 OA
ATOM     26  N   UNL     1      33.388 -14.383 -22.738  0.00  0.00    -0.109 NA
ATOM     27  N   UNL     1      33.139 -13.055 -22.442  0.00  0.00    -0.112 NA
ATOM     28  C   UNL     1      33.631 -14.418 -24.021  0.00  0.00    +0.255 A 
ATOM     29  C   UNL     1      33.254 -12.407 -23.577  0.00  0.00    +0.225 A 
BRANCH  29  30
ATOM     30  C   UNL     1      33.093 -10.975 -23.858  0.00  0.00    +0.070 C 
ATOM     31  C   UNL     1      32.486 -10.703 -25.283  0.00  0.00    +0.009 C 
ATOM     32  C   UNL     1      34.453 -10.189 -23.794  0.00  0.00    +0.009 C 
ATOM     33  C   UNL     1      32.143 -10.183 -22.877  0.00  0.00    +0.009 C 
ENDBRANCH  29  30
ENDBRANCH  24  28
BRANCH  21  34
ATOM     34  O   UNL     1      34.162 -17.800 -26.866  0.00  0.00    -0.378 OA
ATOM     35  H   UNL     1      33.844 -17.015 -27.340  0.00  0.00    +0.211 HD
ENDBRANCH  21  34
BRANCH  22  36
ATOM     36  O   UNL     1      32.101 -16.081 -26.389  0.00  0.00    -0.379 OA
ATOM     37  H   UNL     1      31.241 -16.530 -26.421  0.00  0.00    +0.211 HD
ENDBRANCH  22  36
ENDBRANCH   1  23
TORSDOF 6
ENDMDL
