MODEL 1
REMARK VINA RESULT:     -13.1      0.000      0.000
REMARK  Name = 11633167
REMARK  7 active torsions:
REMARK  status: ('A' for Active; 'I' for Inactive)
REMARK    1  A    between atoms: C_1  and  C_8
REMARK    2  A    between atoms: C_2  and  C_25
REMARK    3  A    between atoms: C_4  and  O_17
REMARK    4  A    between atoms: O_17  and  C_18
REMARK    5  A    between atoms: C_18  and  C_20
REMARK    6  A    between atoms: C_25  and  N_26
REMARK    7  A    between atoms: N_26  and  C_29
REMARK                            x       y       z     vdW  Elec       q    Type
REMARK                         _______ _______ _______ _____ _____    ______ ____
ROOT
ATOM      1  C   UNL     1      34.642 -21.518 -19.016  0.00  0.00    -0.000 C 
ATOM      2  C   UNL     1      35.326 -22.542 -16.939  0.00  0.00    +0.031 C 
ATOM      3  C   UNL     1      35.589 -21.681 -18.005  0.00  0.00    +0.000 C 
ATOM      4  C   UNL     1      34.119 -23.238 -16.885  0.00  0.00    +0.137 C 
ATOM      5  C   UNL     1      33.435 -22.213 -18.963  0.00  0.00    +0.003 C 
ATOM      6  C   UNL     1      33.173 -23.073 -17.896  0.00  0.00    +0.037 C 
ENDROOT
BRANCH   1   8
ATOM      7  N   UNL     1      33.373 -18.888 -23.033  0.00  0.00    -0.312 N 
ATOM      8  C   UNL     1      34.914 -20.625 -20.124  0.00  0.00    +0.001 C 
ATOM      9  C   UNL     1      34.180 -19.402 -22.044  0.00  0.00    +0.048 C 
ATOM     10  C   UNL     1      35.465 -18.896 -22.258  0.00  0.00    +0.015 C 
ATOM     11  C   UNL     1      33.875 -20.267 -20.987  0.00  0.00    +0.015 C 
ATOM     12  C   UNL     1      36.205 -20.137 -20.312  0.00  0.00    +0.000 C 
ATOM     13  C   UNL     1      36.496 -19.272 -21.374  0.00  0.00    +0.001 C 
ATOM     14  C   UNL     1      35.399 -18.061 -23.407  0.00  0.00    +0.017 C 
ATOM     15  C   UNL     1      34.101 -18.076 -23.862  0.00  0.00    +0.062 C 
ATOM     16  H   UNL     1      32.411 -19.076 -23.131  0.00  0.00    +0.152 HD
ENDBRANCH   1   8
BRANCH   4  17
ATOM     17  O   UNL     1      33.846 -24.082 -15.851  0.00  0.00    -0.469 OA
BRANCH  17  18
ATOM     18  C   UNL     1      33.167 -23.530 -14.726  0.00  0.00    +0.251 C 
BRANCH  18  20
ATOM     19  N   UNL     1      31.362 -25.127 -14.494  0.00  0.00    -0.244 NA
ATOM     20  C   UNL     1      31.707 -23.866 -14.822  0.00  0.00    +0.103 C 
ATOM     21  C   UNL     1      30.819 -22.890 -15.229  0.00  0.00    +0.018 C 
ATOM     22  C   UNL     1      29.475 -23.233 -15.308  0.00  0.00    +0.003 C 
ATOM     23  C   UNL     1      30.046 -25.424 -14.582  0.00  0.00    +0.099 C 
ATOM     24  C   UNL     1      29.072 -24.523 -14.979  0.00  0.00    +0.021 C 
ENDBRANCH  18  20
ENDBRANCH  17  18
ENDBRANCH   4  17
BRANCH   2  25
ATOM     25  C   UNL     1      36.349 -22.706 -15.864  0.00  0.00    +0.117 C 
BRANCH  25  26
ATOM     26  N   UNL     1      36.771 -24.098 -15.706  0.00  0.00    -0.327 N 
ATOM     27  H   UNL     1      36.975 -24.622 -16.514  0.00  0.00    +0.147 HD
BRANCH  26  29
ATOM     28  N   UNL     1      36.499 -26.628 -13.014  0.00  0.00    -0.228 NA
ATOM     29  C   UNL     1      36.894 -24.711 -14.481  0.00  0.00    +0.077 C 
ATOM     30  C   UNL     1      36.398 -25.994 -14.204  0.00  0.00    +0.139 C 
ATOM     31  C   UNL     1      37.543 -24.065 -13.413  0.00  0.00    +0.019 C 
ATOM     32  C   UNL     1      37.667 -24.685 -12.173  0.00  0.00    +0.022 C 
ATOM     33  C   UNL     1      37.133 -25.956 -12.028  0.00  0.00    +0.100 C 
ATOM     34  N   UNL     1      35.738 -26.674 -15.259  0.00  0.00    -0.342 N 
ATOM     35  H   UNL     1      35.374 -27.576 -15.110  0.00  0.00    +0.144 HD
ATOM     36  H   UNL     1      35.644 -26.243 -16.140  0.00  0.00    +0.144 HD
ENDBRANCH  26  29
ENDBRANCH  25  26
ENDBRANCH   2  25
TORSDOF 7
ENDMDL
MODEL 2
REMARK VINA RESULT:     -13.0      1.091      4.656
REMARK  Name = 11633167
REMARK  7 active torsions:
REMARK  status: ('A' for Active; 'I' for Inactive)
REMARK    1  A    between atoms: C_1  and  C_8
REMARK    2  A    between atoms: C_2  and  C_25
REMARK    3  A    between atoms: C_4  and  O_17
REMARK    4  A    between atoms: O_17  and  C_18
REMARK    5  A    between atoms: C_18  and  C_20
REMARK    6  A    between atoms: C_25  and  N_26
REMARK    7  A    between atoms: N_26  and  C_29
REMARK                            x       y       z     vdW  Elec       q    Type
REMARK                         _______ _______ _______ _____ _____    ______ ____
ROOT
ATOM      1  C   UNL     1      35.151 -20.792 -19.830  0.00  0.00    -0.000 C 
ATOM      2  C   UNL     1      34.012 -22.297 -18.323  0.00  0.00    +0.031 C 
ATOM      3  C   UNL     1      33.991 -21.461 -19.439  0.00  0.00    +0.000 C 
ATOM      4  C   UNL     1      35.192 -22.463 -17.598  0.00  0.00    +0.137 C 
ATOM      5  C   UNL     1      36.330 -20.958 -19.106  0.00  0.00    +0.003 C 
ATOM      6  C   UNL     1      36.351 -21.795 -17.990  0.00  0.00    +0.037 C 
ENDROOT
BRANCH   1   8
ATOM      7  N   UNL     1      33.025 -18.743 -23.823  0.00  0.00    -0.312 N 
ATOM      8  C   UNL     1      35.130 -19.924 -20.988  0.00  0.00    +0.001 C 
ATOM      9  C   UNL     1      33.997 -19.007 -22.885  0.00  0.00    +0.048 C 
ATOM     10  C   UNL     1      35.113 -18.237 -23.224  0.00  0.00    +0.015 C 
ATOM     11  C   UNL     1      33.976 -19.859 -21.775  0.00  0.00    +0.015 C 
ATOM     12  C   UNL     1      36.256 -19.168 -21.301  0.00  0.00    +0.000 C 
ATOM     13  C   UNL     1      36.264 -18.320 -22.415  0.00  0.00    +0.001 C 
ATOM     14  C   UNL     1      34.775 -17.503 -24.394  0.00  0.00    +0.017 C 
ATOM     15  C   UNL     1      33.485 -17.836 -24.740  0.00  0.00    +0.062 C 
ATOM     16  H   UNL     1      32.127 -19.149 -23.834  0.00  0.00    +0.152 HD
ENDBRANCH   1   8
BRANCH   4  17
ATOM     17  O   UNL     1      35.230 -23.276 -16.505  0.00  0.00    -0.469 OA
BRANCH  17  18
ATOM     18  C   UNL     1      36.233 -23.004 -15.529  0.00  0.00    +0.251 C 
BRANCH  18  20
ATOM     19  N   UNL     1      36.122 -25.417 -15.369  0.00  0.00    -0.244 NA
ATOM     20  C   UNL     1      36.579 -24.276 -14.814  0.00  0.00    +0.103 C 
ATOM     21  C   UNL     1      37.329 -24.213 -13.656  0.00  0.00    +0.018 C 
ATOM     22  C   UNL     1      37.632 -25.410 -13.018  0.00  0.00    +0.003 C 
ATOM     23  C   UNL     1      36.437 -26.560 -14.721  0.00  0.00    +0.099 C 
ATOM     24  C   UNL     1      37.182 -26.611 -13.554  0.00  0.00    +0.021 C 
ENDBRANCH  18  20
ENDBRANCH  17  18
ENDBRANCH   4  17
BRANCH   2  25
ATOM     25  C   UNL     1      32.762 -23.006 -17.918  0.00  0.00    +0.117 C 
BRANCH  25  26
ATOM     26  N   UNL     1      32.473 -22.851 -16.492  0.00  0.00    -0.327 N 
ATOM     27  H   UNL     1      32.991 -22.192 -15.975  0.00  0.00    +0.147 HD
BRANCH  26  29
ATOM     28  N   UNL     1      30.879 -25.243 -14.156  0.00  0.00    -0.228 NA
ATOM     29  C   UNL     1      31.509 -23.583 -15.837  0.00  0.00    +0.077 C 
ATOM     30  C   UNL     1      31.796 -24.506 -14.821  0.00  0.00    +0.139 C 
ATOM     31  C   UNL     1      30.148 -23.439 -16.163  0.00  0.00    +0.019 C 
ATOM     32  C   UNL     1      29.174 -24.180 -15.501  0.00  0.00    +0.022 C 
ATOM     33  C   UNL     1      29.588 -25.060 -14.514  0.00  0.00    +0.100 C 
ATOM     34  N   UNL     1      33.159 -24.676 -14.468  0.00  0.00    -0.342 N 
ATOM     35  H   UNL     1      33.408 -25.313 -13.760  0.00  0.00    +0.144 HD
ATOM     36  H   UNL     1      33.856 -24.157 -14.931  0.00  0.00    +0.144 HD
ENDBRANCH  26  29
ENDBRANCH  25  26
ENDBRANCH   2  25
TORSDOF 7
ENDMDL
MODEL 3
REMARK VINA RESULT:     -12.6      4.503     11.600
REMARK  Name = 11633167
REMARK  7 active torsions:
REMARK  status: ('A' for Active; 'I' for Inactive)
REMARK    1  A    between atoms: C_1  and  C_8
REMARK    2  A    between atoms: C_2  and  C_25
REMARK    3  A    between atoms: C_4  and  O_17
REMARK    4  A    between atoms: O_17  and  C_18
REMARK    5  A    between atoms: C_18  and  C_20
REMARK    6  A    between atoms: C_25  and  N_26
REMARK    7  A    between atoms: N_26  and  C_29
REMARK                            x       y       z     vdW  Elec       q    Type
REMARK                         _______ _______ _______ _____ _____    ______ ____
ROOT
ATOM      1  C   UNL     1      34.504 -19.191 -21.656  0.00  0.00    -0.000 C 
ATOM      2  C   UNL     1      34.628 -16.876 -22.331  0.00  0.00    +0.031 C 
ATOM      3  C   UNL     1      34.576 -17.839 -21.323  0.00  0.00    +0.000 C 
ATOM      4  C   UNL     1      34.607 -17.265 -23.670  0.00  0.00    +0.137 C 
ATOM      5  C   UNL     1      34.483 -19.582 -22.994  0.00  0.00    +0.003 C 
ATOM      6  C   UNL     1      34.535 -18.618 -24.002  0.00  0.00    +0.037 C 
ENDROOT
BRANCH   1   8
ATOM      7  N   UNL     1      32.146 -22.218 -18.503  0.00  0.00    -0.312 N 
ATOM      8  C   UNL     1      34.451 -20.192 -20.611  0.00  0.00    +0.001 C 
ATOM      9  C   UNL     1      33.201 -21.604 -19.140  0.00  0.00    +0.048 C 
ATOM     10  C   UNL     1      34.373 -22.128 -18.588  0.00  0.00    +0.015 C 
ATOM     11  C   UNL     1      33.208 -20.637 -20.151  0.00  0.00    +0.015 C 
ATOM     12  C   UNL     1      35.636 -20.696 -20.080  0.00  0.00    +0.000 C 
ATOM     13  C   UNL     1      35.614 -21.663 -19.069  0.00  0.00    +0.001 C 
ATOM     14  C   UNL     1      33.984 -23.076 -17.602  0.00  0.00    +0.017 C 
ATOM     15  C   UNL     1      32.609 -23.109 -17.572  0.00  0.00    +0.062 C 
ATOM     16  H   UNL     1      31.195 -22.042 -18.690  0.00  0.00    +0.152 HD
ENDBRANCH   1   8
BRANCH   4  17
ATOM     17  O   UNL     1      34.656 -16.338 -24.667  0.00  0.00    -0.469 OA
BRANCH  17  18
ATOM     18  C   UNL     1      34.507 -16.814 -26.003  0.00  0.00    +0.251 C 
BRANCH  18  20
ATOM     19  N   UNL     1      33.375 -14.919 -26.998  0.00  0.00    -0.244 NA
ATOM     20  C   UNL     1      33.274 -16.205 -26.605  0.00  0.00    +0.103 C 
ATOM     21  C   UNL     1      32.133 -16.974 -26.721  0.00  0.00    +0.018 C 
ATOM     22  C   UNL     1      31.009 -16.380 -27.283  0.00  0.00    +0.003 C 
ATOM     23  C   UNL     1      32.262 -14.375 -27.540  0.00  0.00    +0.099 C 
ATOM     24  C   UNL     1      31.066 -15.055 -27.703  0.00  0.00    +0.021 C 
ENDBRANCH  18  20
ENDBRANCH  17  18
ENDBRANCH   4  17
BRANCH   2  25
ATOM     25  C   UNL     1      34.705 -15.432 -21.958  0.00  0.00    +0.117 C 
BRANCH  25  26
ATOM     26  N   UNL     1      33.892 -14.588 -22.834  0.00  0.00    -0.327 N 
ATOM     27  H   UNL     1      33.901 -14.768 -23.802  0.00  0.00    +0.147 HD
BRANCH  26  29
ATOM     28  N   UNL     1      31.950 -11.435 -22.745  0.00  0.00    -0.228 NA
ATOM     29  C   UNL     1      33.114 -13.553 -22.369  0.00  0.00    +0.077 C 
ATOM     30  C   UNL     1      32.712 -12.470 -23.165  0.00  0.00    +0.139 C 
ATOM     31  C   UNL     1      32.669 -13.527 -21.035  0.00  0.00    +0.019 C 
ATOM     32  C   UNL     1      31.882 -12.480 -20.565  0.00  0.00    +0.022 C 
ATOM     33  C   UNL     1      31.554 -11.468 -21.453  0.00  0.00    +0.100 C 
ATOM     34  N   UNL     1      33.144 -12.463 -24.515  0.00  0.00    -0.342 N 
ATOM     35  H   UNL     1      32.887 -11.723 -25.111  0.00  0.00    +0.144 HD
ATOM     36  H   UNL     1      33.702 -13.200 -24.858  0.00  0.00    +0.144 HD
ENDBRANCH  26  29
ENDBRANCH  25  26
ENDBRANCH   2  25
TORSDOF 7
ENDMDL
MODEL 4
REMARK VINA RESULT:     -12.3      1.533      2.352
REMARK  Name = 11633167
REMARK  7 active torsions:
REMARK  status: ('A' for Active; 'I' for Inactive)
REMARK    1  A    between atoms: C_1  and  C_8
REMARK    2  A    between atoms: C_2  and  C_25
REMARK    3  A    between atoms: C_4  and  O_17
REMARK    4  A    between atoms: O_17  and  C_18
REMARK    5  A    between atoms: C_18  and  C_20
REMARK    6  A    between atoms: C_25  and  N_26
REMARK    7  A    between atoms: N_26  and  C_29
REMARK                            x       y       z     vdW  Elec       q    Type
REMARK                         _______ _______ _______ _____ _____    ______ ____
ROOT
ATOM      1  C   UNL     1      34.276 -20.139 -20.575  0.00  0.00    -0.000 C 
ATOM      2  C   UNL     1      35.291 -21.537 -18.888  0.00  0.00    +0.031 C 
ATOM      3  C   UNL     1      35.413 -20.593 -19.908  0.00  0.00    +0.000 C 
ATOM      4  C   UNL     1      34.033 -22.025 -18.536  0.00  0.00    +0.137 C 
ATOM      5  C   UNL     1      33.018 -20.627 -20.224  0.00  0.00    +0.003 C 
ATOM      6  C   UNL     1      32.896 -21.570 -19.203  0.00  0.00    +0.037 C 
ENDROOT
BRANCH   1   8
ATOM      7  N   UNL     1      33.728 -18.529 -25.241  0.00  0.00    -0.312 N 
ATOM      8  C   UNL     1      34.402 -19.160 -21.634  0.00  0.00    +0.001 C 
ATOM      9  C   UNL     1      34.083 -18.500 -23.911  0.00  0.00    +0.048 C 
ATOM     10  C   UNL     1      34.655 -17.249 -23.666  0.00  0.00    +0.015 C 
ATOM     11  C   UNL     1      33.943 -19.475 -22.917  0.00  0.00    +0.015 C 
ATOM     12  C   UNL     1      34.976 -17.921 -21.361  0.00  0.00    +0.000 C 
ATOM     13  C   UNL     1      35.111 -16.956 -22.365  0.00  0.00    +0.001 C 
ATOM     14  C   UNL     1      34.629 -16.530 -24.893  0.00  0.00    +0.017 C 
ATOM     15  C   UNL     1      34.055 -17.343 -25.843  0.00  0.00    +0.062 C 
ATOM     16  H   UNL     1      33.301 -19.292 -25.694  0.00  0.00    +0.152 HD
ENDBRANCH   1   8
BRANCH   4  17
ATOM     17  O   UNL     1      33.896 -22.947 -17.542  0.00  0.00    -0.469 OA
BRANCH  17  18
ATOM     18  C   UNL     1      32.767 -23.816 -17.615  0.00  0.00    +0.251 C 
BRANCH  18  20
ATOM     19  N   UNL     1      32.415 -24.197 -15.250  0.00  0.00    -0.244 NA
ATOM     20  C   UNL     1      31.934 -23.640 -16.379  0.00  0.00    +0.103 C 
ATOM     21  C   UNL     1      30.750 -22.934 -16.463  0.00  0.00    +0.018 C 
ATOM     22  C   UNL     1      30.001 -22.790 -15.301  0.00  0.00    +0.003 C 
ATOM     23  C   UNL     1      31.661 -24.036 -14.140  0.00  0.00    +0.099 C 
ATOM     24  C   UNL     1      30.459 -23.348 -14.112  0.00  0.00    +0.021 C 
ENDBRANCH  18  20
ENDBRANCH  17  18
ENDBRANCH   4  17
BRANCH   2  25
ATOM     25  C   UNL     1      36.518 -22.013 -18.183  0.00  0.00    +0.117 C 
BRANCH  25  26
ATOM     26  N   UNL     1      36.435 -21.825 -16.734  0.00  0.00    -0.327 N 
ATOM     27  H   UNL     1      36.115 -20.960 -16.390  0.00  0.00    +0.147 HD
BRANCH  26  29
ATOM     28  N   UNL     1      36.271 -24.147 -13.853  0.00  0.00    -0.228 NA
ATOM     29  C   UNL     1      36.784 -22.801 -15.829  0.00  0.00    +0.077 C 
ATOM     30  C   UNL     1      35.963 -23.195 -14.762  0.00  0.00    +0.139 C 
ATOM     31  C   UNL     1      38.016 -23.472 -15.930  0.00  0.00    +0.019 C 
ATOM     32  C   UNL     1      38.369 -24.458 -15.014  0.00  0.00    +0.022 C 
ATOM     33  C   UNL     1      37.468 -24.755 -14.004  0.00  0.00    +0.100 C 
ATOM     34  N   UNL     1      34.713 -22.538 -14.631  0.00  0.00    -0.342 N 
ATOM     35  H   UNL     1      34.105 -22.783 -13.897  0.00  0.00    +0.144 HD
ATOM     36  H   UNL     1      34.454 -21.838 -15.273  0.00  0.00    +0.144 HD
ENDBRANCH  26  29
ENDBRANCH  25  26
ENDBRANCH   2  25
TORSDOF 7
ENDMDL
MODEL 5
REMARK VINA RESULT:     -12.0      4.805     12.086
REMARK  Name = 11633167
REMARK  7 active torsions:
REMARK  status: ('A' for Active; 'I' for Inactive)
REMARK    1  A    between atoms: C_1  and  C_8
REMARK    2  A    between atoms: C_2  and  C_25
REMARK    3  A    between atoms: C_4  and  O_17
REMARK    4  A    between atoms: O_17  and  C_18
REMARK    5  A    between atoms: C_18  and  C_20
REMARK    6  A    between atoms: C_25  and  N_26
REMARK    7  A    between atoms: N_26  and  C_29
REMARK                            x       y       z     vdW  Elec       q    Type
REMARK                         _______ _______ _______ _____ _____    ______ ____
ROOT
ATOM      1  C   UNL     1      34.457 -18.843 -22.089  0.00  0.00    -0.000 C 
ATOM      2  C   UNL     1      34.513 -16.528 -22.774  0.00  0.00    +0.031 C 
ATOM      3  C   UNL     1      34.538 -17.490 -21.763  0.00  0.00    +0.000 C 
ATOM      4  C   UNL     1      34.405 -16.921 -24.108  0.00  0.00    +0.137 C 
ATOM      5  C   UNL     1      34.350 -19.237 -23.421  0.00  0.00    +0.003 C 
ATOM      6  C   UNL     1      34.325 -18.275 -24.432  0.00  0.00    +0.037 C 
ENDROOT
BRANCH   1   8
ATOM      7  N   UNL     1      32.343 -21.984 -18.874  0.00  0.00    -0.312 N 
ATOM      8  C   UNL     1      34.483 -19.841 -21.040  0.00  0.00    +0.001 C 
ATOM      9  C   UNL     1      33.348 -21.315 -19.537  0.00  0.00    +0.048 C 
ATOM     10  C   UNL     1      34.560 -21.772 -19.013  0.00  0.00    +0.015 C 
ATOM     11  C   UNL     1      33.278 -20.352 -20.549  0.00  0.00    +0.015 C 
ATOM     12  C   UNL     1      35.706 -20.278 -20.537  0.00  0.00    +0.000 C 
ATOM     13  C   UNL     1      35.761 -21.242 -19.524  0.00  0.00    +0.001 C 
ATOM     14  C   UNL     1      34.247 -22.737 -18.016  0.00  0.00    +0.017 C 
ATOM     15  C   UNL     1      32.876 -22.845 -17.952  0.00  0.00    +0.062 C 
ATOM     16  H   UNL     1      31.380 -21.860 -19.038  0.00  0.00    +0.152 HD
ENDBRANCH   1   8
BRANCH   4  17
ATOM     17  O   UNL     1      34.379 -15.996 -25.107  0.00  0.00    -0.469 OA
BRANCH  17  18
ATOM     18  C   UNL     1      33.914 -16.432 -26.383  0.00  0.00    +0.251 C 
BRANCH  18  20
ATOM     19  N   UNL     1      31.737 -16.018 -27.358  0.00  0.00    -0.244 NA
ATOM     20  C   UNL     1      32.873 -15.472 -26.879  0.00  0.00    +0.103 C 
ATOM     21  C   UNL     1      33.126 -14.116 -26.818  0.00  0.00    +0.018 C 
ATOM     22  C   UNL     1      32.141 -13.254 -27.286  0.00  0.00    +0.003 C 
ATOM     23  C   UNL     1      30.802 -15.149 -27.803  0.00  0.00    +0.099 C 
ATOM     24  C   UNL     1      30.953 -13.772 -27.789  0.00  0.00    +0.021 C 
ENDBRANCH  18  20
ENDBRANCH  17  18
ENDBRANCH   4  17
BRANCH   2  25
ATOM     25  C   UNL     1      34.601 -15.083 -22.410  0.00  0.00    +0.117 C 
BRANCH  25  26
ATOM     26  N   UNL     1      33.304 -14.410 -22.490  0.00  0.00    -0.327 N 
ATOM     27  H   UNL     1      32.496 -14.916 -22.244  0.00  0.00    +0.147 HD
BRANCH  26  29
ATOM     28  N   UNL     1      32.064 -10.926 -22.692  0.00  0.00    -0.228 NA
ATOM     29  C   UNL     1      33.160 -13.103 -22.893  0.00  0.00    +0.077 C 
ATOM     30  C   UNL     1      32.235 -12.215 -22.323  0.00  0.00    +0.139 C 
ATOM     31  C   UNL     1      33.956 -12.573 -23.925  0.00  0.00    +0.019 C 
ATOM     32  C   UNL     1      33.810 -11.251 -24.332  0.00  0.00    +0.022 C 
ATOM     33  C   UNL     1      32.858 -10.476 -23.689  0.00  0.00    +0.100 C 
ATOM     34  N   UNL     1      31.415 -12.716 -21.280  0.00  0.00    -0.342 N 
ATOM     35  H   UNL     1      30.752 -12.129 -20.851  0.00  0.00    +0.144 HD
ATOM     36  H   UNL     1      31.510 -13.651 -20.985  0.00  0.00    +0.144 HD
ENDBRANCH  26  29
ENDBRANCH  25  26
ENDBRANCH   2  25
TORSDOF 7
ENDMDL
MODEL 6
REMARK VINA RESULT:     -12.0      1.592      5.832
REMARK  Name = 11633167
REMARK  7 active torsions:
REMARK  status: ('A' for Active; 'I' for Inactive)
REMARK    1  A    between atoms: C_1  and  C_8
REMARK    2  A    between atoms: C_2  and  C_25
REMARK    3  A    between atoms: C_4  and  O_17
REMARK    4  A    between atoms: O_17  and  C_18
REMARK    5  A    between atoms: C_18  and  C_20
REMARK    6  A    between atoms: C_25  and  N_26
REMARK    7  A    between atoms: N_26  and  C_29
REMARK                            x       y       z     vdW  Elec       q    Type
REMARK                         _______ _______ _______ _____ _____    ______ ____
ROOT
ATOM      1  C   UNL     1      34.517 -21.942 -18.215  0.00  0.00    -0.000 C 
ATOM      2  C   UNL     1      33.741 -23.471 -16.515  0.00  0.00    +0.031 C 
ATOM      3  C   UNL     1      33.497 -22.715 -17.662  0.00  0.00    +0.000 C 
ATOM      4  C   UNL     1      35.003 -23.453 -15.923  0.00  0.00    +0.137 C 
ATOM      5  C   UNL     1      35.780 -21.924 -17.624  0.00  0.00    +0.003 C 
ATOM      6  C   UNL     1      36.023 -22.681 -16.477  0.00  0.00    +0.037 C 
ENDROOT
BRANCH   1   8
ATOM      7  N   UNL     1      35.899 -19.200 -22.118  0.00  0.00    -0.312 N 
ATOM      8  C   UNL     1      34.265 -21.157 -19.405  0.00  0.00    +0.001 C 
ATOM      9  C   UNL     1      35.056 -19.852 -21.248  0.00  0.00    +0.048 C 
ATOM     10  C   UNL     1      33.752 -19.643 -21.705  0.00  0.00    +0.015 C 
ATOM     11  C   UNL     1      35.343 -20.604 -20.103  0.00  0.00    +0.015 C 
ATOM     12  C   UNL     1      32.955 -20.966 -19.838  0.00  0.00    +0.000 C 
ATOM     13  C   UNL     1      32.682 -20.211 -20.985  0.00  0.00    +0.001 C 
ATOM     14  C   UNL     1      33.844 -18.845 -22.879  0.00  0.00    +0.017 C 
ATOM     15  C   UNL     1      35.177 -18.587 -23.108  0.00  0.00    +0.062 C 
ATOM     16  H   UNL     1      36.881 -19.176 -22.041  0.00  0.00    +0.152 HD
ENDBRANCH   1   8
BRANCH   4  17
ATOM     17  O   UNL     1      35.258 -24.185 -14.803  0.00  0.00    -0.469 OA
BRANCH  17  18
ATOM     18  C   UNL     1      35.783 -25.498 -14.991  0.00  0.00    +0.251 C 
BRANCH  18  20
ATOM     19  N   UNL     1      38.036 -26.302 -15.362  0.00  0.00    -0.244 NA
ATOM     20  C   UNL     1      37.239 -25.500 -14.628  0.00  0.00    +0.103 C 
ATOM     21  C   UNL     1      37.673 -24.701 -13.588  0.00  0.00    +0.018 C 
ATOM     22  C   UNL     1      39.027 -24.727 -13.277  0.00  0.00    +0.003 C 
ATOM     23  C   UNL     1      39.346 -26.301 -15.030  0.00  0.00    +0.099 C 
ATOM     24  C   UNL     1      39.887 -25.539 -14.007  0.00  0.00    +0.021 C 
ENDBRANCH  18  20
ENDBRANCH  17  18
ENDBRANCH   4  17
BRANCH   2  25
ATOM     25  C   UNL     1      32.638 -24.293 -15.935  0.00  0.00    +0.117 C 
BRANCH  25  26
ATOM     26  N   UNL     1      31.630 -23.474 -15.261  0.00  0.00    -0.327 N 
ATOM     27  H   UNL     1      31.920 -22.868 -14.542  0.00  0.00    +0.147 HD
BRANCH  26  29
ATOM     28  N   UNL     1      28.063 -24.472 -15.300  0.00  0.00    -0.228 NA
ATOM     29  C   UNL     1      30.293 -23.511 -15.586  0.00  0.00    +0.077 C 
ATOM     30  C   UNL     1      29.381 -24.405 -15.006  0.00  0.00    +0.139 C 
ATOM     31  C   UNL     1      29.758 -22.630 -16.543  0.00  0.00    +0.019 C 
ATOM     32  C   UNL     1      28.407 -22.668 -16.872  0.00  0.00    +0.022 C 
ATOM     33  C   UNL     1      27.609 -23.600 -16.226  0.00  0.00    +0.100 C 
ATOM     34  N   UNL     1      29.887 -25.309 -14.038  0.00  0.00    -0.342 N 
ATOM     35  H   UNL     1      29.283 -25.954 -13.604  0.00  0.00    +0.144 HD
ATOM     36  H   UNL     1      30.842 -25.290 -13.798  0.00  0.00    +0.144 HD
ENDBRANCH  26  29
ENDBRANCH  25  26
ENDBRANCH   2  25
TORSDOF 7
ENDMDL
MODEL 7
REMARK VINA RESULT:     -11.4      1.888      7.717
REMARK  Name = 11633167
REMARK  7 active torsions:
REMARK  status: ('A' for Active; 'I' for Inactive)
REMARK    1  A    between atoms: C_1  and  C_8
REMARK    2  A    between atoms: C_2  and  C_25
REMARK    3  A    between atoms: C_4  and  O_17
REMARK    4  A    between atoms: O_17  and  C_18
REMARK    5  A    between atoms: C_18  and  C_20
REMARK    6  A    between atoms: C_25  and  N_26
REMARK    7  A    between atoms: N_26  and  C_29
REMARK                            x       y       z     vdW  Elec       q    Type
REMARK                         _______ _______ _______ _____ _____    ______ ____
ROOT
ATOM      1  C   UNL     1      33.263 -23.290 -15.559  0.00  0.00    -0.000 C 
ATOM      2  C   UNL     1      35.268 -22.596 -16.713  0.00  0.00    +0.031 C 
ATOM      3  C   UNL     1      33.892 -22.824 -16.713  0.00  0.00    +0.000 C 
ATOM      4  C   UNL     1      36.014 -22.834 -15.559  0.00  0.00    +0.137 C 
ATOM      5  C   UNL     1      34.008 -23.528 -14.405  0.00  0.00    +0.003 C 
ATOM      6  C   UNL     1      35.385 -23.298 -14.404  0.00  0.00    +0.037 C 
ENDROOT
BRANCH   1   8
ATOM      7  N   UNL     1      28.644 -22.669 -17.272  0.00  0.00    -0.312 N 
ATOM      8  C   UNL     1      31.835 -23.528 -15.558  0.00  0.00    +0.001 C 
ATOM      9  C   UNL     1      29.658 -23.147 -16.474  0.00  0.00    +0.048 C 
ATOM     10  C   UNL     1      29.075 -24.004 -15.538  0.00  0.00    +0.015 C 
ATOM     11  C   UNL     1      31.034 -22.890 -16.510  0.00  0.00    +0.015 C 
ATOM     12  C   UNL     1      31.281 -24.387 -14.613  0.00  0.00    +0.000 C 
ATOM     13  C   UNL     1      29.904 -24.635 -14.589  0.00  0.00    +0.001 C 
ATOM     14  C   UNL     1      27.678 -24.024 -15.803  0.00  0.00    +0.017 C 
ATOM     15  C   UNL     1      27.442 -23.193 -16.874  0.00  0.00    +0.062 C 
ATOM     16  H   UNL     1      28.763 -22.041 -18.021  0.00  0.00    +0.152 HD
ENDBRANCH   1   8
BRANCH   4  17
ATOM     17  O   UNL     1      37.358 -22.616 -15.541  0.00  0.00    -0.469 OA
BRANCH  17  18
ATOM     18  C   UNL     1      38.202 -23.763 -15.610  0.00  0.00    +0.251 C 
BRANCH  18  20
ATOM     19  N   UNL     1      38.087 -24.292 -13.250  0.00  0.00    -0.244 NA
ATOM     20  C   UNL     1      37.833 -24.710 -14.506  0.00  0.00    +0.103 C 
ATOM     21  C   UNL     1      37.266 -25.928 -14.828  0.00  0.00    +0.018 C 
ATOM     22  C   UNL     1      36.936 -26.782 -13.782  0.00  0.00    +0.003 C 
ATOM     23  C   UNL     1      37.753 -25.148 -12.260  0.00  0.00    +0.099 C 
ATOM     24  C   UNL     1      37.180 -26.392 -12.470  0.00  0.00    +0.021 C 
ENDBRANCH  18  20
ENDBRANCH  17  18
ENDBRANCH   4  17
BRANCH   2  25
ATOM     25  C   UNL     1      35.926 -22.098 -17.957  0.00  0.00    +0.117 C 
BRANCH  25  26
ATOM     26  N   UNL     1      35.029 -22.134 -19.112  0.00  0.00    -0.327 N 
ATOM     27  H   UNL     1      34.568 -22.979 -19.324  0.00  0.00    +0.147 HD
BRANCH  26  29
ATOM     28  N   UNL     1      33.253 -19.590 -21.135  0.00  0.00    -0.228 NA
ATOM     29  C   UNL     1      34.798 -21.044 -19.919  0.00  0.00    +0.077 C 
ATOM     30  C   UNL     1      33.519 -20.653 -20.344  0.00  0.00    +0.139 C 
ATOM     31  C   UNL     1      35.862 -20.243 -20.372  0.00  0.00    +0.019 C 
ATOM     32  C   UNL     1      35.628 -19.140 -21.187  0.00  0.00    +0.022 C 
ATOM     33  C   UNL     1      34.317 -18.860 -21.537  0.00  0.00    +0.100 C 
ATOM     34  N   UNL     1      32.424 -21.439 -19.906  0.00  0.00    -0.342 N 
ATOM     35  H   UNL     1      31.508 -21.202 -20.179  0.00  0.00    +0.144 HD
ATOM     36  H   UNL     1      32.579 -22.222 -19.328  0.00  0.00    +0.144 HD
ENDBRANCH  26  29
ENDBRANCH  25  26
ENDBRANCH   2  25
TORSDOF 7
ENDMDL
MODEL 8
REMARK VINA RESULT:     -11.3      8.838     13.837
REMARK  Name = 11633167
REMARK  7 active torsions:
REMARK  status: ('A' for Active; 'I' for Inactive)
REMARK    1  A    between atoms: C_1  and  C_8
REMARK    2  A    between atoms: C_2  and  C_25
REMARK    3  A    between atoms: C_4  and  O_17
REMARK    4  A    between atoms: O_17  and  C_18
REMARK    5  A    between atoms: C_18  and  C_20
REMARK    6  A    between atoms: C_25  and  N_26
REMARK    7  A    between atoms: N_26  and  C_29
REMARK                            x       y       z     vdW  Elec       q    Type
REMARK                         _______ _______ _______ _____ _____    ______ ____
ROOT
ATOM      1  C   UNL     1      33.045  -9.499 -23.995  0.00  0.00    -0.000 C 
ATOM      2  C   UNL     1      33.094 -11.876 -24.421  0.00  0.00    +0.031 C 
ATOM      3  C   UNL     1      32.818 -10.807 -23.568  0.00  0.00    +0.000 C 
ATOM      4  C   UNL     1      33.597 -11.636 -25.699  0.00  0.00    +0.137 C 
ATOM      5  C   UNL     1      33.547  -9.259 -25.273  0.00  0.00    +0.003 C 
ATOM      6  C   UNL     1      33.823 -10.328 -26.127  0.00  0.00    +0.037 C 
ENDROOT
BRANCH   1   8
ATOM      7  N   UNL     1      32.158  -7.454 -19.558  0.00  0.00    -0.312 N 
ATOM      8  C   UNL     1      32.759  -8.390 -23.111  0.00  0.00    +0.001 C 
ATOM      9  C   UNL     1      32.343  -7.524 -20.920  0.00  0.00    +0.048 C 
ATOM     10  C   UNL     1      32.206  -6.226 -21.420  0.00  0.00    +0.015 C 
ATOM     11  C   UNL     1      32.619  -8.624 -21.740  0.00  0.00    +0.015 C 
ATOM     12  C   UNL     1      32.627  -7.107 -23.637  0.00  0.00    +0.000 C 
ATOM     13  C   UNL     1      32.351  -6.015 -22.806  0.00  0.00    +0.001 C 
ATOM     14  C   UNL     1      31.934  -5.378 -20.311  0.00  0.00    +0.017 C 
ATOM     15  C   UNL     1      31.910  -6.161 -19.180  0.00  0.00    +0.062 C 
ATOM     16  H   UNL     1      32.198  -8.222 -18.943  0.00  0.00    +0.152 HD
ENDBRANCH   1   8
BRANCH   4  17
ATOM     17  O   UNL     1      33.872 -12.668 -26.545  0.00  0.00    -0.469 OA
BRANCH  17  18
ATOM     18  C   UNL     1      32.944 -12.907 -27.600  0.00  0.00    +0.251 C 
BRANCH  18  20
ATOM     19  N   UNL     1      33.209 -15.226 -26.956  0.00  0.00    -0.244 NA
ATOM     20  C   UNL     1      32.376 -14.288 -27.450  0.00  0.00    +0.103 C 
ATOM     21  C   UNL     1      31.064 -14.518 -27.815  0.00  0.00    +0.018 C 
ATOM     22  C   UNL     1      30.568 -15.807 -27.663  0.00  0.00    +0.003 C 
ATOM     23  C   UNL     1      32.693 -16.468 -26.822  0.00  0.00    +0.099 C 
ATOM     24  C   UNL     1      31.392 -16.807 -27.158  0.00  0.00    +0.021 C 
ENDBRANCH  18  20
ENDBRANCH  17  18
ENDBRANCH   4  17
BRANCH   2  25
ATOM     25  C   UNL     1      32.846 -13.270 -23.948  0.00  0.00    +0.117 C 
BRANCH  25  26
ATOM     26  N   UNL     1      34.072 -14.068 -23.903  0.00  0.00    -0.327 N 
ATOM     27  H   UNL     1      34.725 -13.970 -24.634  0.00  0.00    +0.147 HD
BRANCH  26  29
ATOM     28  N   UNL     1      35.109 -17.152 -22.132  0.00  0.00    -0.228 NA
ATOM     29  C   UNL     1      34.356 -14.950 -22.886  0.00  0.00    +0.077 C 
ATOM     30  C   UNL     1      34.820 -16.257 -23.103  0.00  0.00    +0.139 C 
ATOM     31  C   UNL     1      34.193 -14.578 -21.540  0.00  0.00    +0.019 C 
ATOM     32  C   UNL     1      34.480 -15.471 -20.512  0.00  0.00    +0.022 C 
ATOM     33  C   UNL     1      34.932 -16.734 -20.859  0.00  0.00    +0.100 C 
ATOM     34  N   UNL     1      34.996 -16.665 -24.450  0.00  0.00    -0.342 N 
ATOM     35  H   UNL     1      35.319 -17.573 -24.650  0.00  0.00    +0.144 HD
ATOM     36  H   UNL     1      34.795 -16.041 -25.184  0.00  0.00    +0.144 HD
ENDBRANCH  26  29
ENDBRANCH  25  26
ENDBRANCH   2  25
TORSDOF 7
ENDMDL
MODEL 9
REMARK VINA RESULT:     -11.2      5.361     11.456
REMARK  Name = 11633167
REMARK  7 active torsions:
REMARK  status: ('A' for Active; 'I' for Inactive)
REMARK    1  A    between atoms: C_1  and  C_8
REMARK    2  A    between atoms: C_2  and  C_25
REMARK    3  A    between atoms: C_4  and  O_17
REMARK    4  A    between atoms: O_17  and  C_18
REMARK    5  A    between atoms: C_18  and  C_20
REMARK    6  A    between atoms: C_25  and  N_26
REMARK    7  A    between atoms: N_26  and  C_29
REMARK                            x       y       z     vdW  Elec       q    Type
REMARK                         _______ _______ _______ _____ _____    ______ ____
ROOT
ATOM      1  C   UNL     1      33.710 -14.389 -22.591  0.00  0.00    -0.000 C 
ATOM      2  C   UNL     1      34.355 -16.400 -23.761  0.00  0.00    +0.031 C 
ATOM      3  C   UNL     1      33.774 -15.132 -23.769  0.00  0.00    +0.000 C 
ATOM      4  C   UNL     1      34.870 -16.924 -22.576  0.00  0.00    +0.137 C 
ATOM      5  C   UNL     1      34.224 -14.912 -21.405  0.00  0.00    +0.003 C 
ATOM      6  C   UNL     1      34.806 -16.180 -21.398  0.00  0.00    +0.037 C 
ENDROOT
BRANCH   1   8
ATOM      7  N   UNL     1      32.969  -9.838 -24.436  0.00  0.00    -0.312 N 
ATOM      8  C   UNL     1      33.106 -13.073 -22.598  0.00  0.00    +0.001 C 
ATOM      9  C   UNL     1      32.834 -10.910 -23.582  0.00  0.00    +0.048 C 
ATOM     10  C   UNL     1      31.926 -10.533 -22.590  0.00  0.00    +0.015 C 
ATOM     11  C   UNL     1      33.440 -12.171 -23.613  0.00  0.00    +0.015 C 
ATOM     12  C   UNL     1      32.204 -12.725 -21.595  0.00  0.00    +0.000 C 
ATOM     13  C   UNL     1      31.606 -11.459 -21.577  0.00  0.00    +0.001 C 
ATOM     14  C   UNL     1      31.520  -9.201 -22.879  0.00  0.00    +0.017 C 
ATOM     15  C   UNL     1      32.179  -8.800 -24.019  0.00  0.00    +0.062 C 
ATOM     16  H   UNL     1      33.549  -9.820 -25.231  0.00  0.00    +0.152 HD
ENDBRANCH   1   8
BRANCH   4  17
ATOM     17  O   UNL     1      35.441 -18.161 -22.551  0.00  0.00    -0.469 OA
BRANCH  17  18
ATOM     18  C   UNL     1      35.948 -18.615 -21.298  0.00  0.00    +0.251 C 
BRANCH  18  20
ATOM     19  N   UNL     1      35.562 -20.588 -19.948  0.00  0.00    -0.244 NA
ATOM     20  C   UNL     1      35.009 -19.639 -20.731  0.00  0.00    +0.103 C 
ATOM     21  C   UNL     1      33.664 -19.557 -21.033  0.00  0.00    +0.018 C 
ATOM     22  C   UNL     1      32.822 -20.521 -20.493  0.00  0.00    +0.003 C 
ATOM     23  C   UNL     1      34.712 -21.508 -19.440  0.00  0.00    +0.099 C 
ATOM     24  C   UNL     1      33.347 -21.519 -19.679  0.00  0.00    +0.021 C 
ENDBRANCH  18  20
ENDBRANCH  17  18
ENDBRANCH   4  17
BRANCH   2  25
ATOM     25  C   UNL     1      34.417 -17.183 -25.031  0.00  0.00    +0.117 C 
BRANCH  25  26
ATOM     26  N   UNL     1      34.225 -16.341 -26.212  0.00  0.00    -0.327 N 
ATOM     27  H   UNL     1      35.020 -15.967 -26.657  0.00  0.00    +0.147 HD
BRANCH  26  29
ATOM     28  N   UNL     1      31.471 -14.499 -27.868  0.00  0.00    -0.228 NA
ATOM     29  C   UNL     1      32.985 -16.047 -26.731  0.00  0.00    +0.077 C 
ATOM     30  C   UNL     1      32.675 -14.825 -27.348  0.00  0.00    +0.139 C 
ATOM     31  C   UNL     1      31.936 -16.981 -26.670  0.00  0.00    +0.019 C 
ATOM     32  C   UNL     1      30.683 -16.683 -27.195  0.00  0.00    +0.022 C 
ATOM     33  C   UNL     1      30.504 -15.439 -27.778  0.00  0.00    +0.100 C 
ATOM     34  N   UNL     1      33.710 -13.859 -27.426  0.00  0.00    -0.342 N 
ATOM     35  H   UNL     1      33.538 -12.987 -27.850  0.00  0.00    +0.144 HD
ATOM     36  H   UNL     1      34.601 -14.060 -27.057  0.00  0.00    +0.144 HD
ENDBRANCH  26  29
ENDBRANCH  25  26
ENDBRANCH   2  25
TORSDOF 7
ENDMDL
