MODEL 1
REMARK VINA RESULT:     -13.1      0.000      0.000
REMARK  Name = 447655
REMARK  6 active torsions:
REMARK  status: ('A' for Active; 'I' for Inactive)
REMARK    1  A    between atoms: N_4  and  C_14
REMARK    2  A    between atoms: C_6  and  O_26
REMARK    3  A    between atoms: C_15  and  S_20
REMARK    4  A    between atoms: S_20  and  N_23
REMARK    5  A    between atoms: O_26  and  C_27
REMARK    6  A    between atoms: C_27  and  C_28
REMARK                            x       y       z     vdW  Elec       q    Type
REMARK                         _______ _______ _______ _____ _____    ______ ____
ROOT
ATOM      1  N   UNL     1      32.047 -23.442 -15.966  0.00  0.00    -0.293 NA
ATOM      2  N   UNL     1      28.736 -22.547 -17.293  0.00  0.00    -0.266 NA
ATOM      3  N   UNL     1      30.187 -24.100 -14.532  0.00  0.00    -0.316 NA
ATOM      4  N   UNL     1      32.404 -24.545 -13.932  0.00  0.00    -0.238 N 
ATOM      5  N   UNL     1      28.003 -23.505 -15.419  0.00  0.00    -0.296 N 
ATOM      6  C   UNL     1      31.208 -22.908 -16.882  0.00  0.00    +0.288 C 
ATOM      7  C   UNL     1      29.853 -22.965 -16.629  0.00  0.00    +0.215 C 
ATOM      8  C   UNL     1      29.373 -23.556 -15.468  0.00  0.00    +0.196 C 
ATOM      9  C   UNL     1      31.492 -23.998 -14.863  0.00  0.00    +0.207 C 
ATOM     10  C   UNL     1      27.652 -22.893 -16.530  0.00  0.00    +0.164 C 
ATOM     11  H   UNL     1      28.713 -22.084 -18.162  0.00  0.00    +0.126 HD
ATOM     12  H   UNL     1      31.972 -24.943 -13.141  0.00  0.00    +0.166 HD
ATOM     13  H   UNL     1      27.413 -23.848 -14.709  0.00  0.00    +0.150 HD
ENDROOT
BRANCH   4  14
ATOM     14  C   UNL     1      33.808 -24.633 -13.915  0.00  0.00    +0.060 C 
ATOM     15  C   UNL     1      35.915 -24.315 -12.771  0.00  0.00    +0.123 C 
ATOM     16  C   UNL     1      34.523 -24.226 -12.787  0.00  0.00    +0.035 C 
ATOM     17  C   UNL     1      34.491 -25.132 -15.027  0.00  0.00    +0.015 C 
ATOM     18  C   UNL     1      36.595 -24.812 -13.883  0.00  0.00    +0.020 C 
ATOM     19  C   UNL     1      35.883 -25.221 -15.011  0.00  0.00    +0.003 C 
BRANCH  15  20
ATOM     20  S   UNL     1      36.808 -23.805 -11.360  0.00  0.00    +0.057 S 
ATOM     21  O   UNL     1      38.025 -24.599 -11.275  0.00  0.00    -0.153 OA
ATOM     22  O   UNL     1      36.891 -22.351 -11.367  0.00  0.00    -0.153 OA
BRANCH  20  23
ATOM     23  N   UNL     1      35.746 -24.286 -10.111  0.00  0.00    -0.203 NA
ATOM     24  H   UNL     1      36.283 -24.487  -9.267  0.00  0.00    +0.144 HD
ATOM     25  H   UNL     1      35.240 -25.124 -10.399  0.00  0.00    +0.144 HD
ENDBRANCH  20  23
ENDBRANCH  15  20
ENDBRANCH   4  14
BRANCH   6  26
ATOM     26  O   UNL     1      31.739 -22.335 -18.012  0.00  0.00    -0.453 OA
BRANCH  26  27
ATOM     27  C   UNL     1      33.086 -22.644 -18.318  0.00  0.00    +0.208 C 
BRANCH  27  28
ATOM     28  C   UNL     1      33.486 -21.873 -19.574  0.00  0.00    +0.044 C 
ATOM     29  C   UNL     1      32.498 -20.731 -19.847  0.00  0.00    +0.004 C 
ATOM     30  C   UNL     1      34.918 -21.336 -19.447  0.00  0.00    +0.004 C 
ATOM     31  C   UNL     1      32.907 -19.912 -21.069  0.00  0.00    +0.000 C 
ATOM     32  C   UNL     1      35.323 -20.516 -20.669  0.00  0.00    +0.000 C 
ATOM     33  C   UNL     1      34.334 -19.388 -20.943  0.00  0.00    +0.000 C 
ENDBRANCH  27  28
ENDBRANCH  26  27
ENDBRANCH   6  26
TORSDOF 6
ENDMDL
MODEL 2
REMARK VINA RESULT:     -12.9      2.416      5.153
REMARK  Name = 447655
REMARK  6 active torsions:
REMARK  status: ('A' for Active; 'I' for Inactive)
REMARK    1  A    between atoms: N_4  and  C_14
REMARK    2  A    between atoms: C_6  and  O_26
REMARK    3  A    between atoms: C_15  and  S_20
REMARK    4  A    between atoms: S_20  and  N_23
REMARK    5  A    between atoms: O_26  and  C_27
REMARK    6  A    between atoms: C_27  and  C_28
REMARK                            x       y       z     vdW  Elec       q    Type
REMARK                         _______ _______ _______ _____ _____    ______ ____
ROOT
ATOM      1  N   UNL     1      34.785 -23.388 -16.437  0.00  0.00    -0.293 NA
ATOM      2  N   UNL     1      32.695 -22.004 -19.128  0.00  0.00    -0.266 NA
ATOM      3  N   UNL     1      36.003 -22.002 -18.032  0.00  0.00    -0.316 NA
ATOM      4  N   UNL     1      37.086 -23.009 -16.220  0.00  0.00    -0.238 N 
ATOM      5  N   UNL     1      34.612 -21.092 -19.806  0.00  0.00    -0.296 N 
ATOM      6  C   UNL     1      33.620 -23.199 -17.096  0.00  0.00    +0.288 C 
ATOM      7  C   UNL     1      33.638 -22.411 -18.228  0.00  0.00    +0.215 C 
ATOM      8  C   UNL     1      34.820 -21.831 -18.670  0.00  0.00    +0.196 C 
ATOM      9  C   UNL     1      35.889 -22.785 -16.939  0.00  0.00    +0.207 C 
ATOM     10  C   UNL     1      33.326 -21.216 -20.055  0.00  0.00    +0.164 C 
ATOM     11  H   UNL     1      31.738 -22.234 -19.114  0.00  0.00    +0.126 HD
ATOM     12  H   UNL     1      37.871 -22.558 -16.606  0.00  0.00    +0.166 HD
ATOM     13  H   UNL     1      35.277 -20.581 -20.323  0.00  0.00    +0.150 HD
ENDROOT
BRANCH   4  14
ATOM     14  C   UNL     1      37.373 -23.748 -15.058  0.00  0.00    +0.060 C 
ATOM     15  C   UNL     1      36.856 -24.345 -12.771  0.00  0.00    +0.123 C 
ATOM     16  C   UNL     1      36.571 -23.611 -13.923  0.00  0.00    +0.035 C 
ATOM     17  C   UNL     1      38.461 -24.625 -15.036  0.00  0.00    +0.015 C 
ATOM     18  C   UNL     1      37.943 -25.219 -12.752  0.00  0.00    +0.020 C 
ATOM     19  C   UNL     1      38.745 -25.359 -13.885  0.00  0.00    +0.003 C 
BRANCH  15  20
ATOM     20  S   UNL     1      35.852 -24.172 -11.354  0.00  0.00    +0.057 S 
ATOM     21  O   UNL     1      35.570 -25.499 -10.826  0.00  0.00    -0.153 OA
ATOM     22  O   UNL     1      36.444 -23.160 -10.489  0.00  0.00    -0.153 OA
BRANCH  20  23
ATOM     23  N   UNL     1      34.423 -23.535 -12.042  0.00  0.00    -0.203 NA
ATOM     24  H   UNL     1      33.612 -23.953 -11.585  0.00  0.00    +0.144 HD
ATOM     25  H   UNL     1      34.401 -23.751 -13.038  0.00  0.00    +0.144 HD
ENDBRANCH  20  23
ENDBRANCH  15  20
ENDBRANCH   4  14
BRANCH   6  26
ATOM     26  O   UNL     1      32.481 -23.796 -16.613  0.00  0.00    -0.453 OA
BRANCH  26  27
ATOM     27  C   UNL     1      32.140 -23.535 -15.265  0.00  0.00    +0.208 C 
BRANCH  27  28
ATOM     28  C   UNL     1      30.618 -23.550 -15.140  0.00  0.00    +0.044 C 
ATOM     29  C   UNL     1      29.970 -22.787 -16.304  0.00  0.00    +0.004 C 
ATOM     30  C   UNL     1      30.093 -24.990 -15.073  0.00  0.00    +0.004 C 
ATOM     31  C   UNL     1      28.446 -22.833 -16.229  0.00  0.00    +0.000 C 
ATOM     32  C   UNL     1      28.569 -25.032 -15.001  0.00  0.00    +0.000 C 
ATOM     33  C   UNL     1      27.929 -24.266 -16.154  0.00  0.00    +0.000 C 
ENDBRANCH  27  28
ENDBRANCH  26  27
ENDBRANCH   6  26
TORSDOF 6
ENDMDL
MODEL 3
REMARK VINA RESULT:     -12.9      1.995      2.565
REMARK  Name = 447655
REMARK  6 active torsions:
REMARK  status: ('A' for Active; 'I' for Inactive)
REMARK    1  A    between atoms: N_4  and  C_14
REMARK    2  A    between atoms: C_6  and  O_26
REMARK    3  A    between atoms: C_15  and  S_20
REMARK    4  A    between atoms: S_20  and  N_23
REMARK    5  A    between atoms: O_26  and  C_27
REMARK    6  A    between atoms: C_27  and  C_28
REMARK                            x       y       z     vdW  Elec       q    Type
REMARK                         _______ _______ _______ _____ _____    ______ ____
ROOT
ATOM      1  N   UNL     1      33.039 -23.805 -14.837  0.00  0.00    -0.293 NA
ATOM      2  N   UNL     1      29.666 -23.925 -16.297  0.00  0.00    -0.266 NA
ATOM      3  N   UNL     1      31.409 -25.011 -13.483  0.00  0.00    -0.316 NA
ATOM      4  N   UNL     1      33.631 -24.781 -12.792  0.00  0.00    -0.238 N 
ATOM      5  N   UNL     1      29.182 -25.086 -14.457  0.00  0.00    -0.296 N 
ATOM      6  C   UNL     1      32.115 -23.533 -15.785  0.00  0.00    +0.288 C 
ATOM      7  C   UNL     1      30.831 -23.998 -15.589  0.00  0.00    +0.215 C 
ATOM      8  C   UNL     1      30.505 -24.723 -14.450  0.00  0.00    +0.196 C 
ATOM      9  C   UNL     1      32.634 -24.518 -13.760  0.00  0.00    +0.207 C 
ATOM     10  C   UNL     1      28.706 -24.590 -15.580  0.00  0.00    +0.164 C 
ATOM     11  H   UNL     1      29.538 -23.477 -17.164  0.00  0.00    +0.126 HD
ATOM     12  H   UNL     1      33.309 -25.301 -12.021  0.00  0.00    +0.166 HD
ATOM     13  H   UNL     1      28.696 -25.601 -13.774  0.00  0.00    +0.150 HD
ENDROOT
BRANCH   4  14
ATOM     14  C   UNL     1      34.995 -24.445 -12.718  0.00  0.00    +0.060 C 
ATOM     15  C   UNL     1      37.263 -24.690 -13.525  0.00  0.00    +0.123 C 
ATOM     16  C   UNL     1      35.910 -25.025 -13.599  0.00  0.00    +0.035 C 
ATOM     17  C   UNL     1      35.439 -23.526 -11.763  0.00  0.00    +0.015 C 
ATOM     18  C   UNL     1      37.703 -23.773 -12.570  0.00  0.00    +0.020 C 
ATOM     19  C   UNL     1      36.791 -23.191 -11.689  0.00  0.00    +0.003 C 
BRANCH  15  20
ATOM     20  S   UNL     1      38.405 -25.417 -14.627  0.00  0.00    +0.057 S 
ATOM     21  O   UNL     1      39.033 -24.357 -15.402  0.00  0.00    -0.153 OA
ATOM     22  O   UNL     1      39.231 -26.357 -13.882  0.00  0.00    -0.153 OA
BRANCH  20  23
ATOM     23  N   UNL     1      37.356 -26.300 -15.648  0.00  0.00    -0.203 NA
ATOM     24  H   UNL     1      37.182 -27.219 -15.242  0.00  0.00    +0.144 HD
ATOM     25  H   UNL     1      37.788 -26.410 -16.565  0.00  0.00    +0.144 HD
ENDBRANCH  20  23
ENDBRANCH  15  20
ENDBRANCH   4  14
BRANCH   6  26
ATOM     26  O   UNL     1      32.492 -22.811 -16.891  0.00  0.00    -0.453 OA
BRANCH  26  27
ATOM     27  C   UNL     1      33.712 -23.174 -17.510  0.00  0.00    +0.208 C 
BRANCH  27  28
ATOM     28  C   UNL     1      33.795 -22.473 -18.864  0.00  0.00    +0.044 C 
ATOM     29  C   UNL     1      32.620 -21.502 -19.045  0.00  0.00    +0.004 C 
ATOM     30  C   UNL     1      35.135 -21.741 -19.015  0.00  0.00    +0.004 C 
ATOM     31  C   UNL     1      32.709 -20.750 -20.370  0.00  0.00    +0.000 C 
ATOM     32  C   UNL     1      35.220 -20.987 -20.340  0.00  0.00    +0.000 C 
ATOM     33  C   UNL     1      34.046 -20.031 -20.520  0.00  0.00    +0.000 C 
ENDBRANCH  27  28
ENDBRANCH  26  27
ENDBRANCH   6  26
TORSDOF 6
ENDMDL
MODEL 4
REMARK VINA RESULT:     -12.5      2.308      2.736
REMARK  Name = 447655
REMARK  6 active torsions:
REMARK  status: ('A' for Active; 'I' for Inactive)
REMARK    1  A    between atoms: N_4  and  C_14
REMARK    2  A    between atoms: C_6  and  O_26
REMARK    3  A    between atoms: C_15  and  S_20
REMARK    4  A    between atoms: S_20  and  N_23
REMARK    5  A    between atoms: O_26  and  C_27
REMARK    6  A    between atoms: C_27  and  C_28
REMARK                            x       y       z     vdW  Elec       q    Type
REMARK                         _______ _______ _______ _____ _____    ______ ____
ROOT
ATOM      1  N   UNL     1      32.961 -22.995 -16.587  0.00  0.00    -0.293 NA
ATOM      2  N   UNL     1      29.335 -22.608 -17.071  0.00  0.00    -0.266 NA
ATOM      3  N   UNL     1      31.624 -23.605 -14.640  0.00  0.00    -0.316 NA
ATOM      4  N   UNL     1      33.958 -23.755 -14.609  0.00  0.00    -0.238 N 
ATOM      5  N   UNL     1      29.229 -23.347 -14.971  0.00  0.00    -0.296 N 
ATOM      6  C   UNL     1      31.856 -22.678 -17.299  0.00  0.00    +0.288 C 
ATOM      7  C   UNL     1      30.628 -22.821 -16.687  0.00  0.00    +0.215 C 
ATOM      8  C   UNL     1      30.537 -23.279 -15.380  0.00  0.00    +0.196 C 
ATOM      9  C   UNL     1      32.778 -23.434 -15.319  0.00  0.00    +0.207 C 
ATOM     10  C   UNL     1      28.533 -22.936 -16.009  0.00  0.00    +0.164 C 
ATOM     11  H   UNL     1      29.034 -22.279 -17.948  0.00  0.00    +0.126 HD
ATOM     12  H   UNL     1      33.795 -24.072 -13.691  0.00  0.00    +0.166 HD
ATOM     13  H   UNL     1      28.887 -23.636 -14.094  0.00  0.00    +0.150 HD
ENDROOT
BRANCH   4  14
ATOM     14  C   UNL     1      35.320 -23.711 -14.960  0.00  0.00    +0.060 C 
ATOM     15  C   UNL     1      37.500 -24.758 -15.037  0.00  0.00    +0.123 C 
ATOM     16  C   UNL     1      36.149 -24.801 -14.689  0.00  0.00    +0.035 C 
ATOM     17  C   UNL     1      35.847 -22.577 -15.583  0.00  0.00    +0.015 C 
ATOM     18  C   UNL     1      38.023 -23.624 -15.659  0.00  0.00    +0.020 C 
ATOM     19  C   UNL     1      37.196 -22.534 -15.932  0.00  0.00    +0.003 C 
BRANCH  15  20
ATOM     20  S   UNL     1      38.534 -26.122 -14.697  0.00  0.00    +0.057 S 
ATOM     21  O   UNL     1      39.088 -25.956 -13.361  0.00  0.00    -0.153 OA
ATOM     22  O   UNL     1      37.816 -27.342 -15.037  0.00  0.00    -0.153 OA
BRANCH  20  23
ATOM     23  N   UNL     1      39.779 -25.881 -15.844  0.00  0.00    -0.203 NA
ATOM     24  H   UNL     1      40.552 -26.516 -15.644  0.00  0.00    +0.144 HD
ATOM     25  H   UNL     1      40.108 -24.917 -15.790  0.00  0.00    +0.144 HD
ENDBRANCH  20  23
ENDBRANCH  15  20
ENDBRANCH   4  14
BRANCH   6  26
ATOM     26  O   UNL     1      32.006 -22.229 -18.589  0.00  0.00    -0.453 OA
BRANCH  26  27
ATOM     27  C   UNL     1      33.223 -22.541 -19.241  0.00  0.00    +0.208 C 
BRANCH  27  28
ATOM     28  C   UNL     1      33.969 -21.238 -19.521  0.00  0.00    +0.044 C 
ATOM     29  C   UNL     1      35.436 -21.519 -19.878  0.00  0.00    +0.004 C 
ATOM     30  C   UNL     1      33.278 -20.446 -20.639  0.00  0.00    +0.004 C 
ATOM     31  C   UNL     1      36.190 -20.235 -20.213  0.00  0.00    +0.000 C 
ATOM     32  C   UNL     1      34.036 -19.164 -20.973  0.00  0.00    +0.000 C 
ATOM     33  C   UNL     1      35.495 -19.447 -21.319  0.00  0.00    +0.000 C 
ENDBRANCH  27  28
ENDBRANCH  26  27
ENDBRANCH   6  26
TORSDOF 6
ENDMDL
MODEL 5
REMARK VINA RESULT:     -12.1      3.850      7.871
REMARK  Name = 447655
REMARK  6 active torsions:
REMARK  status: ('A' for Active; 'I' for Inactive)
REMARK    1  A    between atoms: N_4  and  C_14
REMARK    2  A    between atoms: C_6  and  O_26
REMARK    3  A    between atoms: C_15  and  S_20
REMARK    4  A    between atoms: S_20  and  N_23
REMARK    5  A    between atoms: O_26  and  C_27
REMARK    6  A    between atoms: C_27  and  C_28
REMARK                            x       y       z     vdW  Elec       q    Type
REMARK                         _______ _______ _______ _____ _____    ______ ____
ROOT
ATOM      1  N   UNL     1      34.921 -23.423 -15.993  0.00  0.00    -0.293 NA
ATOM      2  N   UNL     1      35.757 -25.268 -12.923  0.00  0.00    -0.266 NA
ATOM      3  N   UNL     1      37.285 -23.349 -15.397  0.00  0.00    -0.316 NA
ATOM      4  N   UNL     1      36.476 -22.260 -17.302  0.00  0.00    -0.238 N 
ATOM      5  N   UNL     1      37.827 -24.572 -13.367  0.00  0.00    -0.296 N 
ATOM      6  C   UNL     1      34.630 -24.186 -14.916  0.00  0.00    +0.288 C 
ATOM      7  C   UNL     1      35.663 -24.535 -14.072  0.00  0.00    +0.215 C 
ATOM      8  C   UNL     1      36.961 -24.114 -14.327  0.00  0.00    +0.196 C 
ATOM      9  C   UNL     1      36.214 -23.057 -16.165  0.00  0.00    +0.207 C 
ATOM     10  C   UNL     1      37.072 -25.262 -12.538  0.00  0.00    +0.164 C 
ATOM     11  H   UNL     1      35.016 -25.719 -12.458  0.00  0.00    +0.126 HD
ATOM     12  H   UNL     1      37.423 -22.010 -17.402  0.00  0.00    +0.166 HD
ATOM     13  H   UNL     1      38.798 -24.419 -13.309  0.00  0.00    +0.150 HD
ENDROOT
BRANCH   4  14
ATOM     14  C   UNL     1      35.648 -21.756 -18.321  0.00  0.00    +0.060 C 
ATOM     15  C   UNL     1      35.309 -20.291 -20.217  0.00  0.00    +0.123 C 
ATOM     16  C   UNL     1      36.132 -20.790 -19.206  0.00  0.00    +0.035 C 
ATOM     17  C   UNL     1      34.336 -22.222 -18.453  0.00  0.00    +0.015 C 
ATOM     18  C   UNL     1      34.001 -20.758 -20.345  0.00  0.00    +0.020 C 
ATOM     19  C   UNL     1      33.515 -21.723 -19.463  0.00  0.00    +0.003 C 
BRANCH  15  20
ATOM     20  S   UNL     1      35.917 -19.084 -21.322  0.00  0.00    +0.057 S 
ATOM     21  O   UNL     1      37.371 -19.093 -21.257  0.00  0.00    -0.153 OA
ATOM     22  O   UNL     1      35.249 -19.255 -22.605  0.00  0.00    -0.153 OA
BRANCH  20  23
ATOM     23  N   UNL     1      35.340 -17.652 -20.590  0.00  0.00    -0.203 NA
ATOM     24  H   UNL     1      35.339 -17.765 -19.577  0.00  0.00    +0.144 HD
ATOM     25  H   UNL     1      34.391 -17.465 -20.913  0.00  0.00    +0.144 HD
ENDBRANCH  20  23
ENDBRANCH  15  20
ENDBRANCH   4  14
BRANCH   6  26
ATOM     26  O   UNL     1      33.328 -24.574 -14.713  0.00  0.00    -0.453 OA
BRANCH  26  27
ATOM     27  C   UNL     1      32.586 -23.855 -13.746  0.00  0.00    +0.208 C 
BRANCH  27  28
ATOM     28  C   UNL     1      31.137 -23.758 -14.221  0.00  0.00    +0.044 C 
ATOM     29  C   UNL     1      31.063 -23.101 -15.606  0.00  0.00    +0.004 C 
ATOM     30  C   UNL     1      30.480 -25.145 -14.240  0.00  0.00    +0.004 C 
ATOM     31  C   UNL     1      29.629 -23.041 -16.125  0.00  0.00    +0.000 C 
ATOM     32  C   UNL     1      29.047 -25.082 -14.762  0.00  0.00    +0.000 C 
ATOM     33  C   UNL     1      28.976 -24.420 -16.134  0.00  0.00    +0.000 C 
ENDBRANCH  27  28
ENDBRANCH  26  27
ENDBRANCH   6  26
TORSDOF 6
ENDMDL
MODEL 6
REMARK VINA RESULT:     -11.8      3.722      7.572
REMARK  Name = 447655
REMARK  6 active torsions:
REMARK  status: ('A' for Active; 'I' for Inactive)
REMARK    1  A    between atoms: N_4  and  C_14
REMARK    2  A    between atoms: C_6  and  O_26
REMARK    3  A    between atoms: C_15  and  S_20
REMARK    4  A    between atoms: S_20  and  N_23
REMARK    5  A    between atoms: O_26  and  C_27
REMARK    6  A    between atoms: C_27  and  C_28
REMARK                            x       y       z     vdW  Elec       q    Type
REMARK                         _______ _______ _______ _____ _____    ______ ____
ROOT
ATOM      1  N   UNL     1      33.355 -22.840 -16.869  0.00  0.00    -0.293 NA
ATOM      2  N   UNL     1      31.374 -24.574 -14.300  0.00  0.00    -0.266 NA
ATOM      3  N   UNL     1      30.975 -22.997 -17.381  0.00  0.00    -0.316 NA
ATOM      4  N   UNL     1      32.468 -21.945 -18.843  0.00  0.00    -0.238 N 
ATOM      5  N   UNL     1      29.675 -24.143 -15.676  0.00  0.00    -0.296 N 
ATOM      6  C   UNL     1      33.189 -23.496 -15.699  0.00  0.00    +0.288 C 
ATOM      7  C   UNL     1      31.917 -23.907 -15.361  0.00  0.00    +0.215 C 
ATOM      8  C   UNL     1      30.842 -23.651 -16.202  0.00  0.00    +0.196 C 
ATOM      9  C   UNL     1      32.252 -22.634 -17.627  0.00  0.00    +0.207 C 
ATOM     10  C   UNL     1      30.029 -24.692 -14.534  0.00  0.00    +0.164 C 
ATOM     11  H   UNL     1      31.860 -24.907 -13.512  0.00  0.00    +0.126 HD
ATOM     12  H   UNL     1      31.649 -21.808 -19.373  0.00  0.00    +0.166 HD
ATOM     13  H   UNL     1      28.772 -24.098 -16.067  0.00  0.00    +0.150 HD
ENDROOT
BRANCH   4  14
ATOM     14  C   UNL     1      33.625 -21.415 -19.442  0.00  0.00    +0.060 C 
ATOM     15  C   UNL     1      34.673 -19.825 -20.935  0.00  0.00    +0.123 C 
ATOM     16  C   UNL     1      33.525 -20.351 -20.341  0.00  0.00    +0.035 C 
ATOM     17  C   UNL     1      34.879 -21.951 -19.139  0.00  0.00    +0.015 C 
ATOM     18  C   UNL     1      35.924 -20.362 -20.630  0.00  0.00    +0.020 C 
ATOM     19  C   UNL     1      36.027 -21.425 -19.732  0.00  0.00    +0.003 C 
BRANCH  15  20
ATOM     20  S   UNL     1      34.546 -18.495 -22.057  0.00  0.00    +0.057 S 
ATOM     21  O   UNL     1      33.463 -18.781 -22.987  0.00  0.00    -0.153 OA
ATOM     22  O   UNL     1      34.539 -17.250 -21.300  0.00  0.00    -0.153 OA
BRANCH  20  23
ATOM     23  N   UNL     1      36.034 -18.624 -22.887  0.00  0.00    -0.203 NA
ATOM     24  H   UNL     1      36.154 -17.815 -23.497  0.00  0.00    +0.144 HD
ATOM     25  H   UNL     1      36.038 -19.476 -23.447  0.00  0.00    +0.144 HD
ENDBRANCH  20  23
ENDBRANCH  15  20
ENDBRANCH   4  14
BRANCH   6  26
ATOM     26  O   UNL     1      34.288 -23.722 -14.906  0.00  0.00    -0.453 OA
BRANCH  26  27
ATOM     27  C   UNL     1      35.510 -23.142 -15.320  0.00  0.00    +0.208 C 
BRANCH  27  28
ATOM     28  C   UNL     1      36.650 -23.826 -14.567  0.00  0.00    +0.044 C 
ATOM     29  C   UNL     1      36.532 -23.573 -13.057  0.00  0.00    +0.004 C 
ATOM     30  C   UNL     1      36.673 -25.330 -14.868  0.00  0.00    +0.004 C 
ATOM     31  C   UNL     1      37.630 -24.291 -12.278  0.00  0.00    +0.000 C 
ATOM     32  C   UNL     1      37.771 -26.045 -14.085  0.00  0.00    +0.000 C 
ATOM     33  C   UNL     1      37.655 -25.784 -12.586  0.00  0.00    +0.000 C 
ENDBRANCH  27  28
ENDBRANCH  26  27
ENDBRANCH   6  26
TORSDOF 6
ENDMDL
MODEL 7
REMARK VINA RESULT:     -10.8      9.981     14.243
REMARK  Name = 447655
REMARK  6 active torsions:
REMARK  status: ('A' for Active; 'I' for Inactive)
REMARK    1  A    between atoms: N_4  and  C_14
REMARK    2  A    between atoms: C_6  and  O_26
REMARK    3  A    between atoms: C_15  and  S_20
REMARK    4  A    between atoms: S_20  and  N_23
REMARK    5  A    between atoms: O_26  and  C_27
REMARK    6  A    between atoms: C_27  and  C_28
REMARK                            x       y       z     vdW  Elec       q    Type
REMARK                         _______ _______ _______ _____ _____    ______ ____
ROOT
ATOM      1  N   UNL     1      33.486 -14.094 -25.059  0.00  0.00    -0.293 NA
ATOM      2  N   UNL     1      32.422 -17.532 -25.817  0.00  0.00    -0.266 NA
ATOM      3  N   UNL     1      32.257 -14.319 -27.154  0.00  0.00    -0.316 NA
ATOM      4  N   UNL     1      33.053 -12.243 -26.427  0.00  0.00    -0.238 N 
ATOM      5  N   UNL     1      31.558 -16.595 -27.645  0.00  0.00    -0.296 N 
ATOM      6  C   UNL     1      33.384 -15.419 -24.808  0.00  0.00    +0.288 C 
ATOM      7  C   UNL     1      32.718 -16.203 -25.727  0.00  0.00    +0.215 C 
ATOM      8  C   UNL     1      32.171 -15.642 -26.874  0.00  0.00    +0.196 C 
ATOM      9  C   UNL     1      32.923 -13.633 -26.202  0.00  0.00    +0.207 C 
ATOM     10  C   UNL     1      31.726 -17.720 -26.983  0.00  0.00    +0.164 C 
ATOM     11  H   UNL     1      32.663 -18.229 -25.165  0.00  0.00    +0.126 HD
ATOM     12  H   UNL     1      32.634 -11.936 -27.263  0.00  0.00    +0.166 HD
ATOM     13  H   UNL     1      31.095 -16.468 -28.505  0.00  0.00    +0.150 HD
ENDROOT
BRANCH   4  14
ATOM     14  C   UNL     1      33.662 -11.213 -25.687  0.00  0.00    +0.060 C 
ATOM     15  C   UNL     1      33.559  -9.541 -23.942  0.00  0.00    +0.123 C 
ATOM     16  C   UNL     1      32.954 -10.562 -24.675  0.00  0.00    +0.035 C 
ATOM     17  C   UNL     1      34.981 -10.839 -25.962  0.00  0.00    +0.015 C 
ATOM     18  C   UNL     1      34.875  -9.170 -24.219  0.00  0.00    +0.020 C 
ATOM     19  C   UNL     1      35.585  -9.819 -25.229  0.00  0.00    +0.003 C 
BRANCH  15  20
ATOM     20  S   UNL     1      32.672  -8.729 -22.677  0.00  0.00    +0.057 S 
ATOM     21  O   UNL     1      32.046  -9.738 -21.835  0.00  0.00    -0.153 OA
ATOM     22  O   UNL     1      33.537  -7.722 -22.079  0.00  0.00    -0.153 OA
BRANCH  20  23
ATOM     23  N   UNL     1      31.459  -7.939 -23.585  0.00  0.00    -0.203 NA
ATOM     24  H   UNL     1      31.323  -6.996 -23.221  0.00  0.00    +0.144 HD
ATOM     25  H   UNL     1      30.586  -8.461 -23.511  0.00  0.00    +0.144 HD
ENDBRANCH  20  23
ENDBRANCH  15  20
ENDBRANCH   4  14
BRANCH   6  26
ATOM     26  O   UNL     1      33.944 -15.919 -23.658  0.00  0.00    -0.453 OA
BRANCH  26  27
ATOM     27  C   UNL     1      34.781 -17.052 -23.791  0.00  0.00    +0.208 C 
BRANCH  27  28
ATOM     28  C   UNL     1      34.777 -17.815 -22.467  0.00  0.00    +0.044 C 
ATOM     29  C   UNL     1      33.722 -18.929 -22.487  0.00  0.00    +0.004 C 
ATOM     30  C   UNL     1      36.169 -18.387 -22.167  0.00  0.00    +0.004 C 
ATOM     31  C   UNL     1      33.734 -19.740 -21.194  0.00  0.00    +0.000 C 
ATOM     32  C   UNL     1      36.177 -19.200 -20.875  0.00  0.00    +0.000 C 
ATOM     33  C   UNL     1      35.121 -20.300 -20.894  0.00  0.00    +0.000 C 
ENDBRANCH  27  28
ENDBRANCH  26  27
ENDBRANCH   6  26
TORSDOF 6
ENDMDL
MODEL 8
REMARK VINA RESULT:     -10.6      9.068     13.152
REMARK  Name = 447655
REMARK  6 active torsions:
REMARK  status: ('A' for Active; 'I' for Inactive)
REMARK    1  A    between atoms: N_4  and  C_14
REMARK    2  A    between atoms: C_6  and  O_26
REMARK    3  A    between atoms: C_15  and  S_20
REMARK    4  A    between atoms: S_20  and  N_23
REMARK    5  A    between atoms: O_26  and  C_27
REMARK    6  A    between atoms: C_27  and  C_28
REMARK                            x       y       z     vdW  Elec       q    Type
REMARK                         _______ _______ _______ _____ _____    ______ ____
ROOT
ATOM      1  N   UNL     1      33.958 -16.772 -23.575  0.00  0.00    -0.293 NA
ATOM      2  N   UNL     1      35.772 -18.078 -20.654  0.00  0.00    -0.266 NA
ATOM      3  N   UNL     1      34.384 -19.172 -23.657  0.00  0.00    -0.316 NA
ATOM      4  N   UNL     1      33.249 -18.079 -25.385  0.00  0.00    -0.238 N 
ATOM      5  N   UNL     1      35.583 -20.025 -21.721  0.00  0.00    -0.296 N 
ATOM      6  C   UNL     1      34.574 -16.660 -22.377  0.00  0.00    +0.288 C 
ATOM      7  C   UNL     1      35.100 -17.803 -21.811  0.00  0.00    +0.215 C 
ATOM      8  C   UNL     1      34.996 -19.027 -22.456  0.00  0.00    +0.196 C 
ATOM      9  C   UNL     1      33.901 -18.005 -24.133  0.00  0.00    +0.207 C 
ATOM     10  C   UNL     1      36.040 -19.422 -20.645  0.00  0.00    +0.164 C 
ATOM     11  H   UNL     1      36.017 -17.430 -19.955  0.00  0.00    +0.126 HD
ATOM     12  H   UNL     1      33.222 -18.986 -25.765  0.00  0.00    +0.166 HD
ATOM     13  H   UNL     1      35.650 -20.981 -21.948  0.00  0.00    +0.150 HD
ENDROOT
BRANCH   4  14
ATOM     14  C   UNL     1      32.628 -17.107 -26.191  0.00  0.00    +0.060 C 
ATOM     15  C   UNL     1      32.609 -14.896 -27.172  0.00  0.00    +0.123 C 
ATOM     16  C   UNL     1      33.225 -15.858 -26.371  0.00  0.00    +0.035 C 
ATOM     17  C   UNL     1      31.411 -17.391 -26.819  0.00  0.00    +0.015 C 
ATOM     18  C   UNL     1      31.395 -15.182 -27.796  0.00  0.00    +0.020 C 
ATOM     19  C   UNL     1      30.796 -16.429 -27.619  0.00  0.00    +0.003 C 
BRANCH  15  20
ATOM     20  S   UNL     1      33.358 -13.335 -27.395  0.00  0.00    +0.057 S 
ATOM     21  O   UNL     1      33.596 -12.748 -26.084  0.00  0.00    -0.153 OA
ATOM     22  O   UNL     1      34.463 -13.483 -28.333  0.00  0.00    -0.153 OA
BRANCH  20  23
ATOM     23  N   UNL     1      32.098 -12.475 -28.165  0.00  0.00    -0.203 NA
ATOM     24  H   UNL     1      31.970 -11.575 -27.702  0.00  0.00    +0.144 HD
ATOM     25  H   UNL     1      31.234 -13.014 -28.105  0.00  0.00    +0.144 HD
ENDBRANCH  20  23
ENDBRANCH  15  20
ENDBRANCH   4  14
BRANCH   6  26
ATOM     26  O   UNL     1      34.649 -15.424 -21.784  0.00  0.00    -0.453 OA
BRANCH  26  27
ATOM     27  C   UNL     1      34.372 -14.301 -22.600  0.00  0.00    +0.208 C 
BRANCH  27  28
ATOM     28  C   UNL     1      33.035 -13.705 -22.164  0.00  0.00    +0.044 C 
ATOM     29  C   UNL     1      32.914 -13.704 -20.634  0.00  0.00    +0.004 C 
ATOM     30  C   UNL     1      32.866 -12.286 -22.726  0.00  0.00    +0.004 C 
ATOM     31  C   UNL     1      31.607 -13.064 -20.173  0.00  0.00    +0.000 C 
ATOM     32  C   UNL     1      31.560 -11.648 -22.260  0.00  0.00    +0.000 C 
ATOM     33  C   UNL     1      31.439 -11.658 -20.739  0.00  0.00    +0.000 C 
ENDBRANCH  27  28
ENDBRANCH  26  27
ENDBRANCH   6  26
TORSDOF 6
ENDMDL
MODEL 9
REMARK VINA RESULT:     -10.3     11.159     14.111
REMARK  Name = 447655
REMARK  6 active torsions:
REMARK  status: ('A' for Active; 'I' for Inactive)
REMARK    1  A    between atoms: N_4  and  C_14
REMARK    2  A    between atoms: C_6  and  O_26
REMARK    3  A    between atoms: C_15  and  S_20
REMARK    4  A    between atoms: S_20  and  N_23
REMARK    5  A    between atoms: O_26  and  C_27
REMARK    6  A    between atoms: C_27  and  C_28
REMARK                            x       y       z     vdW  Elec       q    Type
REMARK                         _______ _______ _______ _____ _____    ______ ____
ROOT
ATOM      1  N   UNL     1      33.080 -13.669 -24.869  0.00  0.00    -0.293 NA
ATOM      2  N   UNL     1      33.698 -10.093 -24.272  0.00  0.00    -0.266 NA
ATOM      3  N   UNL     1      33.544 -12.386 -26.891  0.00  0.00    -0.316 NA
ATOM      4  N   UNL     1      33.115 -14.684 -26.979  0.00  0.00    -0.238 N 
ATOM      5  N   UNL     1      33.952 -10.024 -26.485  0.00  0.00    -0.296 N 
ATOM      6  C   UNL     1      33.206 -12.571 -24.091  0.00  0.00    +0.288 C 
ATOM      7  C   UNL     1      33.501 -11.372 -24.707  0.00  0.00    +0.215 C 
ATOM      8  C   UNL     1      33.664 -11.304 -26.085  0.00  0.00    +0.196 C 
ATOM      9  C   UNL     1      33.256 -13.511 -26.202  0.00  0.00    +0.207 C 
ATOM     10  C   UNL     1      33.965  -9.321 -25.372  0.00  0.00    +0.164 C 
ATOM     11  H   UNL     1      33.656  -9.783 -23.339  0.00  0.00    +0.126 HD
ATOM     12  H   UNL     1      33.249 -14.540 -27.944  0.00  0.00    +0.166 HD
ATOM     13  H   UNL     1      34.113  -9.702 -27.401  0.00  0.00    +0.150 HD
ENDROOT
BRANCH   4  14
ATOM     14  C   UNL     1      32.824 -16.018 -26.642  0.00  0.00    +0.060 C 
ATOM     15  C   UNL     1      33.260 -17.986 -25.304  0.00  0.00    +0.123 C 
ATOM     16  C   UNL     1      33.550 -16.663 -25.638  0.00  0.00    +0.035 C 
ATOM     17  C   UNL     1      31.805 -16.703 -27.310  0.00  0.00    +0.015 C 
ATOM     18  C   UNL     1      32.242 -18.667 -25.972  0.00  0.00    +0.020 C 
ATOM     19  C   UNL     1      31.515 -18.025 -26.975  0.00  0.00    +0.003 C 
BRANCH  15  20
ATOM     20  S   UNL     1      34.168 -18.790 -24.048  0.00  0.00    +0.057 S 
ATOM     21  O   UNL     1      33.328 -18.885 -22.863  0.00  0.00    -0.153 OA
ATOM     22  O   UNL     1      34.767 -19.993 -24.610  0.00  0.00    -0.153 OA
BRANCH  20  23
ATOM     23  N   UNL     1      35.405 -17.647 -23.758  0.00  0.00    -0.203 NA
ATOM     24  H   UNL     1      36.109 -17.714 -24.493  0.00  0.00    +0.144 HD
ATOM     25  H   UNL     1      35.837 -17.837 -22.854  0.00  0.00    +0.144 HD
ENDBRANCH  20  23
ENDBRANCH  15  20
ENDBRANCH   4  14
BRANCH   6  26
ATOM     26  O   UNL     1      33.034 -12.697 -22.734  0.00  0.00    -0.453 OA
BRANCH  26  27
ATOM     27  C   UNL     1      31.762 -12.360 -22.213  0.00  0.00    +0.208 C 
BRANCH  27  28
ATOM     28  C   UNL     1      31.927 -11.176 -21.262  0.00  0.00    +0.044 C 
ATOM     29  C   UNL     1      31.112  -9.971 -21.750  0.00  0.00    +0.004 C 
ATOM     30  C   UNL     1      31.521 -11.567 -19.835  0.00  0.00    +0.004 C 
ATOM     31  C   UNL     1      31.219  -8.791 -20.787  0.00  0.00    +0.000 C 
ATOM     32  C   UNL     1      31.626 -10.385 -18.875  0.00  0.00    +0.000 C 
ATOM     33  C   UNL     1      30.823  -9.186 -19.368  0.00  0.00    +0.000 C 
ENDBRANCH  27  28
ENDBRANCH  26  27
ENDBRANCH   6  26
TORSDOF 6
ENDMDL
