MODEL 1
REMARK VINA RESULT:     -11.7      0.000      0.000
REMARK  Name = 11314340
REMARK  7 active torsions:
REMARK  status: ('A' for Active; 'I' for Inactive)
REMARK    1  A    between atoms: C_2  and  C_10
REMARK    2  A    between atoms: C_3  and  O_18
REMARK    3  A    between atoms: O_18  and  C_19
REMARK    4  A    between atoms: C_19  and  C_20
REMARK    5  A    between atoms: C_20  and  N_21
REMARK    6  A    between atoms: C_20  and  C_25
REMARK    7  A    between atoms: C_25  and  C_26
REMARK                            x       y       z     vdW  Elec       q    Type
REMARK                         _______ _______ _______ _____ _____    ______ ____
ROOT
ATOM      1  N   UNL     1      32.408 -21.696 -19.499  0.00  0.00    -0.239 NA
ATOM      2  C   UNL     1      33.969 -20.203 -20.571  0.00  0.00    +0.022 C 
ATOM      3  C   UNL     1      34.769 -21.831 -19.002  0.00  0.00    +0.158 C 
ATOM      4  C   UNL     1      35.023 -20.787 -19.885  0.00  0.00    +0.040 C 
ATOM      5  C   UNL     1      32.693 -20.684 -20.349  0.00  0.00    +0.099 C 
ATOM      6  C   UNL     1      33.456 -22.244 -18.846  0.00  0.00    +0.136 C 
ENDROOT
BRANCH   2  10
ATOM      7  N   UNL     1      34.283 -16.740 -25.213  0.00  0.00    -0.280 N 
ATOM      8  N   UNL     1      34.821 -16.080 -24.169  0.00  0.00    -0.173 NA
ATOM      9  C   UNL     1      34.087 -18.151 -23.591  0.00  0.00    +0.032 A 
ATOM     10  C   UNL     1      34.201 -19.111 -21.498  0.00  0.00    +0.002 C 
ATOM     11  C   UNL     1      34.716 -16.934 -23.135  0.00  0.00    +0.102 A 
ATOM     12  C   UNL     1      33.798 -19.281 -22.837  0.00  0.00    +0.003 C 
ATOM     13  C   UNL     1      33.825 -17.992 -24.922  0.00  0.00    +0.053 A 
ATOM     14  C   UNL     1      34.826 -17.925 -20.997  0.00  0.00    +0.002 C 
ATOM     15  C   UNL     1      35.109 -16.791 -21.792  0.00  0.00    +0.021 C 
ATOM     16  C   UNL     1      33.206 -18.854 -25.943  0.00  0.00    +0.051 C 
ATOM     17  H   UNL     1      34.224 -16.349 -26.115  0.00  0.00    +0.189 HD
ENDBRANCH   2  10
BRANCH   3  18
ATOM     18  O   UNL     1      35.777 -22.426 -18.316  0.00  0.00    -0.476 OA
BRANCH  18  19
ATOM     19  C   UNL     1      36.426 -21.653 -17.305  0.00  0.00    +0.184 C 
BRANCH  19  20
ATOM     20  C   UNL     1      36.353 -22.376 -15.955  0.00  0.00    -0.017 C 
BRANCH  20  21
ATOM     21  N   UNL     1      35.100 -23.135 -15.904  0.00  0.00    +0.384 N 
ATOM     22  H   UNL     1      34.337 -22.516 -15.633  0.00  0.00    -0.089 HD
ATOM     23  H   UNL     1      35.186 -23.888 -15.221  0.00  0.00    -0.089 HD
ATOM     24  H   UNL     1      34.906 -23.533 -16.824  0.00  0.00    -0.089 HD
ENDBRANCH  20  21
BRANCH  20  25
ATOM     25  C   UNL     1      37.521 -23.358 -15.726  0.00  0.00    +0.008 C 
BRANCH  25  26
ATOM     26  C   UNL     1      37.332 -24.302 -14.564  0.00  0.00    -0.024 C 
ATOM     27  C   UNL     1      37.171 -25.658 -14.809  0.00  0.00    -0.004 C 
ATOM     28  C   UNL     1      37.321 -23.799 -13.272  0.00  0.00    -0.004 C 
ATOM     29  C   UNL     1      36.996 -26.531 -13.736  0.00  0.00    -0.000 C 
ATOM     30  C   UNL     1      37.146 -24.673 -12.199  0.00  0.00    -0.000 C 
ATOM     31  C   UNL     1      36.983 -26.038 -12.431  0.00  0.00    -0.000 C 
ENDBRANCH  25  26
ENDBRANCH  20  25
ENDBRANCH  19  20
ENDBRANCH  18  19
ENDBRANCH   3  18
TORSDOF 7
ENDMDL
MODEL 2
REMARK VINA RESULT:     -11.6      4.592      7.871
REMARK  Name = 11314340
REMARK  7 active torsions:
REMARK  status: ('A' for Active; 'I' for Inactive)
REMARK    1  A    between atoms: C_2  and  C_10
REMARK    2  A    between atoms: C_3  and  O_18
REMARK    3  A    between atoms: O_18  and  C_19
REMARK    4  A    between atoms: C_19  and  C_20
REMARK    5  A    between atoms: C_20  and  N_21
REMARK    6  A    between atoms: C_20  and  C_25
REMARK    7  A    between atoms: C_25  and  C_26
REMARK                            x       y       z     vdW  Elec       q    Type
REMARK                         _______ _______ _______ _____ _____    ______ ____
ROOT
ATOM      1  N   UNL     1      31.585 -17.413 -27.549  0.00  0.00    -0.239 NA
ATOM      2  C   UNL     1      32.708 -15.575 -26.464  0.00  0.00    +0.022 C 
ATOM      3  C   UNL     1      32.686 -17.734 -25.422  0.00  0.00    +0.158 C 
ATOM      4  C   UNL     1      33.068 -16.397 -25.408  0.00  0.00    +0.040 C 
ATOM      5  C   UNL     1      31.974 -16.119 -27.501  0.00  0.00    +0.099 C 
ATOM      6  C   UNL     1      31.952 -18.188 -26.504  0.00  0.00    +0.136 C 
ENDROOT
BRANCH   2  10
ATOM      7  N   UNL     1      33.713 -10.007 -25.187  0.00  0.00    -0.280 N 
ATOM      8  N   UNL     1      34.142 -10.225 -26.446  0.00  0.00    -0.173 NA
ATOM      9  C   UNL     1      33.271 -12.097 -25.497  0.00  0.00    +0.032 A 
ATOM     10  C   UNL     1      33.090 -14.175 -26.479  0.00  0.00    +0.002 C 
ATOM     11  C   UNL     1      33.880 -11.525 -26.674  0.00  0.00    +0.102 A 
ATOM     12  C   UNL     1      32.849 -13.409 -25.322  0.00  0.00    +0.003 C 
ATOM     13  C   UNL     1      33.180 -11.100 -24.568  0.00  0.00    +0.053 A 
ATOM     14  C   UNL     1      33.691 -13.655 -27.669  0.00  0.00    +0.002 C 
ATOM     15  C   UNL     1      34.109 -12.313 -27.816  0.00  0.00    +0.021 C 
ATOM     16  C   UNL     1      32.664 -11.042 -23.190  0.00  0.00    +0.051 C 
ATOM     17  H   UNL     1      33.781  -9.128 -24.748  0.00  0.00    +0.189 HD
ENDBRANCH   2  10
BRANCH   3  18
ATOM     18  O   UNL     1      33.023 -18.567 -24.405  0.00  0.00    -0.476 OA
BRANCH  18  19
ATOM     19  C   UNL     1      34.352 -19.091 -24.401  0.00  0.00    +0.184 C 
BRANCH  19  20
ATOM     20  C   UNL     1      35.034 -18.800 -23.059  0.00  0.00    -0.017 C 
BRANCH  20  21
ATOM     21  N   UNL     1      35.714 -17.505 -23.158  0.00  0.00    +0.384 N 
ATOM     22  H   UNL     1      35.432 -17.036 -24.017  0.00  0.00    -0.089 HD
ATOM     23  H   UNL     1      36.725 -17.651 -23.166  0.00  0.00    -0.089 HD
ATOM     24  H   UNL     1      35.462 -16.926 -22.355  0.00  0.00    -0.089 HD
ENDBRANCH  20  21
BRANCH  20  25
ATOM     25  C   UNL     1      34.046 -18.736 -21.875  0.00  0.00    +0.008 C 
BRANCH  25  26
ATOM     26  C   UNL     1      34.148 -19.891 -20.908  0.00  0.00    -0.024 C 
ATOM     27  C   UNL     1      32.988 -20.464 -20.409  0.00  0.00    -0.004 C 
ATOM     28  C   UNL     1      35.399 -20.357 -20.535  0.00  0.00    -0.004 C 
ATOM     29  C   UNL     1      33.081 -21.530 -19.516  0.00  0.00    -0.000 C 
ATOM     30  C   UNL     1      35.492 -21.424 -19.641  0.00  0.00    -0.000 C 
ATOM     31  C   UNL     1      34.334 -22.010 -19.131  0.00  0.00    -0.000 C 
ENDBRANCH  25  26
ENDBRANCH  20  25
ENDBRANCH  19  20
ENDBRANCH  18  19
ENDBRANCH   3  18
TORSDOF 7
ENDMDL
MODEL 3
REMARK VINA RESULT:     -11.5      4.208      7.500
REMARK  Name = 11314340
REMARK  7 active torsions:
REMARK  status: ('A' for Active; 'I' for Inactive)
REMARK    1  A    between atoms: C_2  and  C_10
REMARK    2  A    between atoms: C_3  and  O_18
REMARK    3  A    between atoms: O_18  and  C_19
REMARK    4  A    between atoms: C_19  and  C_20
REMARK    5  A    between atoms: C_20  and  N_21
REMARK    6  A    between atoms: C_20  and  C_25
REMARK    7  A    between atoms: C_25  and  C_26
REMARK                            x       y       z     vdW  Elec       q    Type
REMARK                         _______ _______ _______ _____ _____    ______ ____
ROOT
ATOM      1  N   UNL     1      33.466 -16.416 -26.828  0.00  0.00    -0.239 NA
ATOM      2  C   UNL     1      33.433 -14.854 -24.992  0.00  0.00    +0.022 C 
ATOM      3  C   UNL     1      34.189 -17.100 -24.625  0.00  0.00    +0.158 C 
ATOM      4  C   UNL     1      33.924 -15.826 -24.134  0.00  0.00    +0.040 C 
ATOM      5  C   UNL     1      33.221 -15.190 -26.315  0.00  0.00    +0.099 C 
ATOM      6  C   UNL     1      33.944 -17.342 -25.966  0.00  0.00    +0.136 C 
ENDROOT
BRANCH   2  10
ATOM      7  N   UNL     1      31.854 -10.211 -21.895  0.00  0.00    -0.280 N 
ATOM      8  N   UNL     1      32.314  -9.776 -23.084  0.00  0.00    -0.173 NA
ATOM      9  C   UNL     1      32.391 -12.040 -22.908  0.00  0.00    +0.032 A 
ATOM     10  C   UNL     1      33.146 -13.515 -24.510  0.00  0.00    +0.002 C 
ATOM     11  C   UNL     1      32.660 -10.896 -23.745  0.00  0.00    +0.102 A 
ATOM     12  C   UNL     1      32.606 -13.377 -23.217  0.00  0.00    +0.003 C 
ATOM     13  C   UNL     1      31.878 -11.566 -21.734  0.00  0.00    +0.053 A 
ATOM     14  C   UNL     1      33.431 -12.413 -25.378  0.00  0.00    +0.002 C 
ATOM     15  C   UNL     1      33.200 -11.063 -25.033  0.00  0.00    +0.021 C 
ATOM     16  C   UNL     1      31.413 -12.213 -20.496  0.00  0.00    +0.051 C 
ATOM     17  H   UNL     1      31.527  -9.599 -21.196  0.00  0.00    +0.189 HD
ENDBRANCH   2  10
BRANCH   3  18
ATOM     18  O   UNL     1      34.671 -18.074 -23.814  0.00  0.00    -0.476 OA
BRANCH  18  19
ATOM     19  C   UNL     1      35.647 -17.694 -22.842  0.00  0.00    +0.184 C 
BRANCH  19  20
ATOM     20  C   UNL     1      35.230 -18.182 -21.450  0.00  0.00    -0.017 C 
BRANCH  20  21
ATOM     21  N   UNL     1      34.916 -17.012 -20.625  0.00  0.00    +0.384 N 
ATOM     22  H   UNL     1      33.905 -16.924 -20.527  0.00  0.00    -0.089 HD
ATOM     23  H   UNL     1      35.289 -16.172 -21.070  0.00  0.00    -0.089 HD
ATOM     24  H   UNL     1      35.339 -17.123 -19.702  0.00  0.00    -0.089 HD
ENDBRANCH  20  21
BRANCH  20  25
ATOM     25  C   UNL     1      33.990 -19.101 -21.474  0.00  0.00    +0.008 C 
BRANCH  25  26
ATOM     26  C   UNL     1      34.045 -20.257 -20.505  0.00  0.00    -0.024 C 
ATOM     27  C   UNL     1      32.862 -20.792 -20.017  0.00  0.00    -0.004 C 
ATOM     28  C   UNL     1      35.276 -20.764 -20.119  0.00  0.00    -0.004 C 
ATOM     29  C   UNL     1      32.911 -21.859 -19.122  0.00  0.00    -0.000 C 
ATOM     30  C   UNL     1      35.325 -21.832 -19.222  0.00  0.00    -0.000 C 
ATOM     31  C   UNL     1      34.144 -22.379 -18.724  0.00  0.00    -0.000 C 
ENDBRANCH  25  26
ENDBRANCH  20  25
ENDBRANCH  19  20
ENDBRANCH  18  19
ENDBRANCH   3  18
TORSDOF 7
ENDMDL
MODEL 4
REMARK VINA RESULT:     -11.5      5.214     11.854
REMARK  Name = 11314340
REMARK  7 active torsions:
REMARK  status: ('A' for Active; 'I' for Inactive)
REMARK    1  A    between atoms: C_2  and  C_10
REMARK    2  A    between atoms: C_3  and  O_18
REMARK    3  A    between atoms: O_18  and  C_19
REMARK    4  A    between atoms: C_19  and  C_20
REMARK    5  A    between atoms: C_20  and  N_21
REMARK    6  A    between atoms: C_20  and  C_25
REMARK    7  A    between atoms: C_25  and  C_26
REMARK                            x       y       z     vdW  Elec       q    Type
REMARK                         _______ _______ _______ _____ _____    ______ ____
ROOT
ATOM      1  N   UNL     1      32.783 -18.104 -26.339  0.00  0.00    -0.239 NA
ATOM      2  C   UNL     1      33.939 -17.868 -24.236  0.00  0.00    +0.022 C 
ATOM      3  C   UNL     1      33.316 -15.911 -25.474  0.00  0.00    +0.158 C 
ATOM      4  C   UNL     1      33.911 -16.487 -24.357  0.00  0.00    +0.040 C 
ATOM      5  C   UNL     1      33.370 -18.629 -25.240  0.00  0.00    +0.099 C 
ATOM      6  C   UNL     1      32.773 -16.755 -26.428  0.00  0.00    +0.136 C 
ENDROOT
BRANCH   2  10
ATOM      7  N   UNL     1      35.059 -20.880 -19.408  0.00  0.00    -0.280 N 
ATOM      8  N   UNL     1      36.211 -20.313 -19.817  0.00  0.00    -0.173 NA
ATOM      9  C   UNL     1      34.471 -19.813 -21.190  0.00  0.00    +0.032 A 
ATOM     10  C   UNL     1      34.553 -18.500 -23.083  0.00  0.00    +0.002 C 
ATOM     11  C   UNL     1      35.880 -19.636 -20.931  0.00  0.00    +0.102 A 
ATOM     12  C   UNL     1      33.736 -19.279 -22.240  0.00  0.00    +0.003 C 
ATOM     13  C   UNL     1      33.979 -20.612 -20.198  0.00  0.00    +0.053 A 
ATOM     14  C   UNL     1      35.953 -18.296 -22.871  0.00  0.00    +0.002 C 
ATOM     15  C   UNL     1      36.673 -18.853 -21.790  0.00  0.00    +0.021 C 
ATOM     16  C   UNL     1      32.641 -21.151 -19.900  0.00  0.00    +0.051 C 
ATOM     17  H   UNL     1      35.002 -21.444 -18.602  0.00  0.00    +0.189 HD
ENDBRANCH   2  10
BRANCH   3  18
ATOM     18  O   UNL     1      33.270 -14.563 -25.623  0.00  0.00    -0.476 OA
BRANCH  18  19
ATOM     19  C   UNL     1      33.149 -14.055 -26.953  0.00  0.00    +0.184 C 
BRANCH  19  20
ATOM     20  C   UNL     1      32.994 -12.530 -26.927  0.00  0.00    -0.017 C 
BRANCH  20  21
ATOM     21  N   UNL     1      31.856 -12.167 -27.775  0.00  0.00    +0.384 N 
ATOM     22  H   UNL     1      31.300 -11.449 -27.310  0.00  0.00    -0.089 HD
ATOM     23  H   UNL     1      31.278 -12.991 -27.940  0.00  0.00    -0.089 HD
ATOM     24  H   UNL     1      32.198 -11.807 -28.667  0.00  0.00    -0.089 HD
ENDBRANCH  20  21
BRANCH  20  25
ATOM     25  C   UNL     1      32.741 -11.969 -25.512  0.00  0.00    +0.008 C 
BRANCH  25  26
ATOM     26  C   UNL     1      33.659 -10.841 -25.108  0.00  0.00    -0.024 C 
ATOM     27  C   UNL     1      33.251  -9.950 -24.126  0.00  0.00    -0.004 C 
ATOM     28  C   UNL     1      34.894 -10.714 -25.726  0.00  0.00    -0.004 C 
ATOM     29  C   UNL     1      34.099  -8.908 -23.753  0.00  0.00    -0.000 C 
ATOM     30  C   UNL     1      35.741  -9.671 -25.352  0.00  0.00    -0.000 C 
ATOM     31  C   UNL     1      35.345  -8.768 -24.367  0.00  0.00    -0.000 C 
ENDBRANCH  25  26
ENDBRANCH  20  25
ENDBRANCH  19  20
ENDBRANCH  18  19
ENDBRANCH   3  18
TORSDOF 7
ENDMDL
MODEL 5
REMARK VINA RESULT:     -11.4      0.714      1.823
REMARK  Name = 11314340
REMARK  7 active torsions:
REMARK  status: ('A' for Active; 'I' for Inactive)
REMARK    1  A    between atoms: C_2  and  C_10
REMARK    2  A    between atoms: C_3  and  O_18
REMARK    3  A    between atoms: O_18  and  C_19
REMARK    4  A    between atoms: C_19  and  C_20
REMARK    5  A    between atoms: C_20  and  N_21
REMARK    6  A    between atoms: C_20  and  C_25
REMARK    7  A    between atoms: C_25  and  C_26
REMARK                            x       y       z     vdW  Elec       q    Type
REMARK                         _______ _______ _______ _____ _____    ______ ____
ROOT
ATOM      1  N   UNL     1      32.658 -21.844 -19.401  0.00  0.00    -0.239 NA
ATOM      2  C   UNL     1      34.158 -20.340 -20.543  0.00  0.00    +0.022 C 
ATOM      3  C   UNL     1      35.021 -21.850 -18.892  0.00  0.00    +0.158 C 
ATOM      4  C   UNL     1      35.233 -20.841 -19.826  0.00  0.00    +0.040 C 
ATOM      5  C   UNL     1      32.902 -20.864 -20.300  0.00  0.00    +0.099 C 
ATOM      6  C   UNL     1      33.727 -22.312 -18.718  0.00  0.00    +0.136 C 
ENDROOT
BRANCH   2  10
ATOM      7  N   UNL     1      34.808 -15.284 -23.309  0.00  0.00    -0.280 N 
ATOM      8  N   UNL     1      34.873 -16.268 -24.228  0.00  0.00    -0.173 NA
ATOM      9  C   UNL     1      34.552 -17.072 -22.127  0.00  0.00    +0.032 A 
ATOM     10  C   UNL     1      34.346 -19.287 -21.524  0.00  0.00    +0.002 C 
ATOM     11  C   UNL     1      34.716 -17.402 -23.522  0.00  0.00    +0.102 A 
ATOM     12  C   UNL     1      34.363 -17.953 -21.071  0.00  0.00    +0.003 C 
ATOM     13  C   UNL     1      34.616 -15.711 -22.027  0.00  0.00    +0.053 A 
ATOM     14  C   UNL     1      34.504 -19.666 -22.894  0.00  0.00    +0.002 C 
ATOM     15  C   UNL     1      34.695 -18.743 -23.947  0.00  0.00    +0.021 C 
ATOM     16  C   UNL     1      34.523 -14.772 -20.897  0.00  0.00    +0.051 C 
ATOM     17  H   UNL     1      34.894 -14.332 -23.545  0.00  0.00    +0.189 HD
ENDBRANCH   2  10
BRANCH   3  18
ATOM     18  O   UNL     1      36.051 -22.364 -18.174  0.00  0.00    -0.476 OA
BRANCH  18  19
ATOM     19  C   UNL     1      36.572 -21.565 -17.111  0.00  0.00    +0.184 C 
BRANCH  19  20
ATOM     20  C   UNL     1      36.528 -22.343 -15.791  0.00  0.00    -0.017 C 
BRANCH  20  21
ATOM     21  N   UNL     1      35.191 -22.924 -15.641  0.00  0.00    +0.384 N 
ATOM     22  H   UNL     1      34.576 -22.555 -16.365  0.00  0.00    -0.089 HD
ATOM     23  H   UNL     1      34.817 -22.684 -14.722  0.00  0.00    -0.089 HD
ATOM     24  H   UNL     1      35.250 -23.939 -15.729  0.00  0.00    -0.089 HD
ENDBRANCH  20  21
BRANCH  20  25
ATOM     25  C   UNL     1      37.562 -23.487 -15.725  0.00  0.00    +0.008 C 
BRANCH  25  26
ATOM     26  C   UNL     1      37.377 -24.436 -14.565  0.00  0.00    -0.024 C 
ATOM     27  C   UNL     1      37.047 -25.760 -14.816  0.00  0.00    -0.004 C 
ATOM     28  C   UNL     1      37.539 -23.968 -13.271  0.00  0.00    -0.004 C 
ATOM     29  C   UNL     1      36.877 -26.636 -13.745  0.00  0.00    -0.000 C 
ATOM     30  C   UNL     1      37.368 -24.846 -12.200  0.00  0.00    -0.000 C 
ATOM     31  C   UNL     1      37.037 -26.179 -12.437  0.00  0.00    -0.000 C 
ENDBRANCH  25  26
ENDBRANCH  20  25
ENDBRANCH  19  20
ENDBRANCH  18  19
ENDBRANCH   3  18
TORSDOF 7
ENDMDL
MODEL 6
REMARK VINA RESULT:     -11.4      2.373     10.067
REMARK  Name = 11314340
REMARK  7 active torsions:
REMARK  status: ('A' for Active; 'I' for Inactive)
REMARK    1  A    between atoms: C_2  and  C_10
REMARK    2  A    between atoms: C_3  and  O_18
REMARK    3  A    between atoms: O_18  and  C_19
REMARK    4  A    between atoms: C_19  and  C_20
REMARK    5  A    between atoms: C_20  and  N_21
REMARK    6  A    between atoms: C_20  and  C_25
REMARK    7  A    between atoms: C_25  and  C_26
REMARK                            x       y       z     vdW  Elec       q    Type
REMARK                         _______ _______ _______ _____ _____    ______ ____
ROOT
ATOM      1  N   UNL     1      31.190 -23.388 -15.516  0.00  0.00    -0.239 NA
ATOM      2  C   UNL     1      33.601 -23.422 -15.547  0.00  0.00    +0.022 C 
ATOM      3  C   UNL     1      32.397 -22.830 -17.534  0.00  0.00    +0.158 C 
ATOM      4  C   UNL     1      33.606 -23.040 -16.880  0.00  0.00    +0.040 C 
ATOM      5  C   UNL     1      32.385 -23.583 -14.912  0.00  0.00    +0.099 C 
ATOM      6  C   UNL     1      31.228 -23.017 -16.815  0.00  0.00    +0.136 C 
ENDROOT
BRANCH   2  10
ATOM      7  N   UNL     1      37.710 -24.346 -11.559  0.00  0.00    -0.280 N 
ATOM      8  N   UNL     1      38.310 -24.292 -12.764  0.00  0.00    -0.173 NA
ATOM      9  C   UNL     1      36.061 -24.002 -12.909  0.00  0.00    +0.032 A 
ATOM     10  C   UNL     1      34.846 -23.649 -14.836  0.00  0.00    +0.002 C 
ATOM     11  C   UNL     1      37.307 -24.077 -13.634  0.00  0.00    +0.102 A 
ATOM     12  C   UNL     1      34.793 -23.791 -13.435  0.00  0.00    +0.003 C 
ATOM     13  C   UNL     1      36.356 -24.178 -11.587  0.00  0.00    +0.053 A 
ATOM     14  C   UNL     1      36.054 -23.715 -15.600  0.00  0.00    +0.002 C 
ATOM     15  C   UNL     1      37.330 -23.931 -15.033  0.00  0.00    +0.021 C 
ATOM     16  C   UNL     1      35.540 -24.210 -10.362  0.00  0.00    +0.051 C 
ATOM     17  H   UNL     1      38.209 -24.497 -10.724  0.00  0.00    +0.189 HD
ENDBRANCH   2  10
BRANCH   3  18
ATOM     18  O   UNL     1      32.365 -22.455 -18.838  0.00  0.00    -0.476 OA
BRANCH  18  19
ATOM     19  C   UNL     1      33.618 -22.224 -19.484  0.00  0.00    +0.184 C 
BRANCH  19  20
ATOM     20  C   UNL     1      33.496 -21.066 -20.481  0.00  0.00    -0.017 C 
BRANCH  20  21
ATOM     21  N   UNL     1      32.304 -20.284 -20.138  0.00  0.00    +0.384 N 
ATOM     22  H   UNL     1      31.618 -20.363 -20.888  0.00  0.00    -0.089 HD
ATOM     23  H   UNL     1      32.564 -19.305 -20.016  0.00  0.00    -0.089 HD
ATOM     24  H   UNL     1      31.903 -20.640 -19.269  0.00  0.00    -0.089 HD
ENDBRANCH  20  21
BRANCH  20  25
ATOM     25  C   UNL     1      34.715 -20.119 -20.465  0.00  0.00    +0.008 C 
BRANCH  25  26
ATOM     26  C   UNL     1      34.705 -19.064 -21.544  0.00  0.00    -0.024 C 
ATOM     27  C   UNL     1      34.891 -17.734 -21.196  0.00  0.00    -0.004 C 
ATOM     28  C   UNL     1      34.512 -19.441 -22.864  0.00  0.00    -0.004 C 
ATOM     29  C   UNL     1      34.883 -16.758 -22.192  0.00  0.00    -0.000 C 
ATOM     30  C   UNL     1      34.503 -18.464 -23.860  0.00  0.00    -0.000 C 
ATOM     31  C   UNL     1      34.688 -17.123 -23.524  0.00  0.00    -0.000 C 
ENDBRANCH  25  26
ENDBRANCH  20  25
ENDBRANCH  19  20
ENDBRANCH  18  19
ENDBRANCH   3  18
TORSDOF 7
ENDMDL
MODEL 7
REMARK VINA RESULT:     -11.3      2.215      2.804
REMARK  Name = 11314340
REMARK  7 active torsions:
REMARK  status: ('A' for Active; 'I' for Inactive)
REMARK    1  A    between atoms: C_2  and  C_10
REMARK    2  A    between atoms: C_3  and  O_18
REMARK    3  A    between atoms: O_18  and  C_19
REMARK    4  A    between atoms: C_19  and  C_20
REMARK    5  A    between atoms: C_20  and  N_21
REMARK    6  A    between atoms: C_20  and  C_25
REMARK    7  A    between atoms: C_25  and  C_26
REMARK                            x       y       z     vdW  Elec       q    Type
REMARK                         _______ _______ _______ _____ _____    ______ ____
ROOT
ATOM      1  N   UNL     1      32.443 -21.701 -19.508  0.00  0.00    -0.239 NA
ATOM      2  C   UNL     1      33.995 -20.189 -20.566  0.00  0.00    +0.022 C 
ATOM      3  C   UNL     1      34.806 -21.833 -19.020  0.00  0.00    +0.158 C 
ATOM      4  C   UNL     1      35.053 -20.777 -19.891  0.00  0.00    +0.040 C 
ATOM      5  C   UNL     1      32.721 -20.678 -20.347  0.00  0.00    +0.099 C 
ATOM      6  C   UNL     1      33.496 -22.253 -18.865  0.00  0.00    +0.136 C 
ENDROOT
BRANCH   2  10
ATOM      7  N   UNL     1      34.331 -16.690 -25.180  0.00  0.00    -0.280 N 
ATOM      8  N   UNL     1      34.820 -16.020 -24.117  0.00  0.00    -0.173 NA
ATOM      9  C   UNL     1      34.134 -18.117 -23.571  0.00  0.00    +0.032 A 
ATOM     10  C   UNL     1      34.219 -19.085 -21.481  0.00  0.00    +0.002 C 
ATOM     11  C   UNL     1      34.713 -16.884 -23.091  0.00  0.00    +0.102 A 
ATOM     12  C   UNL     1      33.858 -19.259 -22.831  0.00  0.00    +0.003 C 
ATOM     13  C   UNL     1      33.904 -17.957 -24.908  0.00  0.00    +0.053 A 
ATOM     14  C   UNL     1      34.794 -17.884 -20.957  0.00  0.00    +0.002 C 
ATOM     15  C   UNL     1      35.064 -16.738 -21.737  0.00  0.00    +0.021 C 
ATOM     16  C   UNL     1      33.339 -18.831 -25.950  0.00  0.00    +0.051 C 
ATOM     17  H   UNL     1      34.285 -16.295 -26.081  0.00  0.00    +0.189 HD
ENDBRANCH   2  10
BRANCH   3  18
ATOM     18  O   UNL     1      35.819 -22.432 -18.345  0.00  0.00    -0.476 OA
BRANCH  18  19
ATOM     19  C   UNL     1      35.957 -22.117 -16.958  0.00  0.00    +0.184 C 
BRANCH  19  20
ATOM     20  C   UNL     1      35.446 -23.277 -16.096  0.00  0.00    -0.017 C 
BRANCH  20  21
ATOM     21  N   UNL     1      36.602 -23.991 -15.548  0.00  0.00    +0.384 N 
ATOM     22  H   UNL     1      37.450 -23.681 -16.022  0.00  0.00    -0.089 HD
ATOM     23  H   UNL     1      36.481 -24.994 -15.691  0.00  0.00    -0.089 HD
ATOM     24  H   UNL     1      36.680 -23.797 -14.549  0.00  0.00    -0.089 HD
ENDBRANCH  20  21
BRANCH  20  25
ATOM     25  C   UNL     1      34.562 -22.815 -14.918  0.00  0.00    +0.008 C 
BRANCH  25  26
ATOM     26  C   UNL     1      33.197 -23.457 -14.865  0.00  0.00    -0.024 C 
ATOM     27  C   UNL     1      32.272 -23.170 -15.857  0.00  0.00    -0.004 C 
ATOM     28  C   UNL     1      32.893 -24.323 -13.826  0.00  0.00    -0.004 C 
ATOM     29  C   UNL     1      31.011 -23.764 -15.809  0.00  0.00    -0.000 C 
ATOM     30  C   UNL     1      31.631 -24.917 -13.779  0.00  0.00    -0.000 C 
ATOM     31  C   UNL     1      30.690 -24.637 -14.769  0.00  0.00    -0.000 C 
ENDBRANCH  25  26
ENDBRANCH  20  25
ENDBRANCH  19  20
ENDBRANCH  18  19
ENDBRANCH   3  18
TORSDOF 7
ENDMDL
MODEL 8
REMARK VINA RESULT:     -11.3      5.238     10.211
REMARK  Name = 11314340
REMARK  7 active torsions:
REMARK  status: ('A' for Active; 'I' for Inactive)
REMARK    1  A    between atoms: C_2  and  C_10
REMARK    2  A    between atoms: C_3  and  O_18
REMARK    3  A    between atoms: O_18  and  C_19
REMARK    4  A    between atoms: C_19  and  C_20
REMARK    5  A    between atoms: C_20  and  N_21
REMARK    6  A    between atoms: C_20  and  C_25
REMARK    7  A    between atoms: C_25  and  C_26
REMARK                            x       y       z     vdW  Elec       q    Type
REMARK                         _______ _______ _______ _____ _____    ______ ____
ROOT
ATOM      1  N   UNL     1      31.757 -18.470 -26.010  0.00  0.00    -0.239 NA
ATOM      2  C   UNL     1      33.583 -18.085 -24.482  0.00  0.00    +0.022 C 
ATOM      3  C   UNL     1      33.175 -16.529 -26.261  0.00  0.00    +0.158 C 
ATOM      4  C   UNL     1      33.922 -16.921 -25.155  0.00  0.00    +0.040 C 
ATOM      5  C   UNL     1      32.506 -18.820 -24.939  0.00  0.00    +0.099 C 
ATOM      6  C   UNL     1      32.113 -17.331 -26.644  0.00  0.00    +0.136 C 
ENDROOT
BRANCH   2  10
ATOM      7  N   UNL     1      35.395 -20.505 -19.533  0.00  0.00    -0.280 N 
ATOM      8  N   UNL     1      36.420 -19.795 -20.044  0.00  0.00    -0.173 NA
ATOM      9  C   UNL     1      34.562 -19.683 -21.347  0.00  0.00    +0.032 A 
ATOM     10  C   UNL     1      34.343 -18.522 -23.326  0.00  0.00    +0.002 C 
ATOM     11  C   UNL     1      35.934 -19.265 -21.181  0.00  0.00    +0.102 A 
ATOM     12  C   UNL     1      33.703 -19.355 -22.387  0.00  0.00    +0.003 C 
ATOM     13  C   UNL     1      34.252 -20.473 -20.276  0.00  0.00    +0.053 A 
ATOM     14  C   UNL     1      35.700 -18.082 -23.208  0.00  0.00    +0.002 C 
ATOM     15  C   UNL     1      36.548 -18.434 -22.134  0.00  0.00    +0.021 C 
ATOM     16  C   UNL     1      33.034 -21.193 -19.867  0.00  0.00    +0.051 C 
ATOM     17  H   UNL     1      35.467 -21.008 -18.689  0.00  0.00    +0.189 HD
ENDBRANCH   2  10
BRANCH   3  18
ATOM     18  O   UNL     1      33.478 -15.395 -26.941  0.00  0.00    -0.476 OA
BRANCH  18  19
ATOM     19  C   UNL     1      32.634 -14.262 -26.734  0.00  0.00    +0.184 C 
BRANCH  19  20
ATOM     20  C   UNL     1      33.420 -13.130 -26.062  0.00  0.00    -0.017 C 
BRANCH  20  21
ATOM     21  N   UNL     1      33.647 -12.073 -27.051  0.00  0.00    +0.384 N 
ATOM     22  H   UNL     1      34.560 -11.648 -26.893  0.00  0.00    -0.089 HD
ATOM     23  H   UNL     1      32.920 -11.361 -26.960  0.00  0.00    -0.089 HD
ATOM     24  H   UNL     1      33.614 -12.473 -27.990  0.00  0.00    -0.089 HD
ENDBRANCH  20  21
BRANCH  20  25
ATOM     25  C   UNL     1      32.683 -12.512 -24.855  0.00  0.00    +0.008 C 
BRANCH  25  26
ATOM     26  C   UNL     1      33.037 -13.122 -23.521  0.00  0.00    -0.024 C 
ATOM     27  C   UNL     1      32.305 -12.770 -22.396  0.00  0.00    -0.004 C 
ATOM     28  C   UNL     1      34.088 -14.023 -23.442  0.00  0.00    -0.004 C 
ATOM     29  C   UNL     1      32.632 -13.333 -21.164  0.00  0.00    -0.000 C 
ATOM     30  C   UNL     1      34.414 -14.586 -22.208  0.00  0.00    -0.000 C 
ATOM     31  C   UNL     1      33.688 -14.241 -21.069  0.00  0.00    -0.000 C 
ENDBRANCH  25  26
ENDBRANCH  20  25
ENDBRANCH  19  20
ENDBRANCH  18  19
ENDBRANCH   3  18
TORSDOF 7
ENDMDL
MODEL 9
REMARK VINA RESULT:     -11.1      2.607     10.120
REMARK  Name = 11314340
REMARK  7 active torsions:
REMARK  status: ('A' for Active; 'I' for Inactive)
REMARK    1  A    between atoms: C_2  and  C_10
REMARK    2  A    between atoms: C_3  and  O_18
REMARK    3  A    between atoms: O_18  and  C_19
REMARK    4  A    between atoms: C_19  and  C_20
REMARK    5  A    between atoms: C_20  and  N_21
REMARK    6  A    between atoms: C_20  and  C_25
REMARK    7  A    between atoms: C_25  and  C_26
REMARK                            x       y       z     vdW  Elec       q    Type
REMARK                         _______ _______ _______ _____ _____    ______ ____
ROOT
ATOM      1  N   UNL     1      30.729 -23.134 -15.511  0.00  0.00    -0.239 NA
ATOM      2  C   UNL     1      33.035 -23.733 -15.139  0.00  0.00    +0.022 C 
ATOM      3  C   UNL     1      32.325 -23.047 -17.325  0.00  0.00    +0.158 C 
ATOM      4  C   UNL     1      33.333 -23.477 -16.469  0.00  0.00    +0.040 C 
ATOM      5  C   UNL     1      31.735 -23.550 -14.709  0.00  0.00    +0.099 C 
ATOM      6  C   UNL     1      31.051 -22.893 -16.802  0.00  0.00    +0.136 C 
ENDROOT
BRANCH   2  10
ATOM      7  N   UNL     1      37.730 -26.075 -12.668  0.00  0.00    -0.280 N 
ATOM      8  N   UNL     1      37.005 -25.484 -11.698  0.00  0.00    -0.173 NA
ATOM      9  C   UNL     1      36.044 -25.265 -13.745  0.00  0.00    +0.032 A 
ATOM     10  C   UNL     1      34.065 -24.183 -14.221  0.00  0.00    +0.002 C 
ATOM     11  C   UNL     1      35.941 -24.966 -12.337  0.00  0.00    +0.102 A 
ATOM     12  C   UNL     1      35.150 -24.911 -14.748  0.00  0.00    +0.003 C 
ATOM     13  C   UNL     1      37.198 -25.974 -13.921  0.00  0.00    +0.053 A 
ATOM     14  C   UNL     1      33.918 -23.860 -12.835  0.00  0.00    +0.002 C 
ATOM     15  C   UNL     1      34.846 -24.237 -11.839  0.00  0.00    +0.021 C 
ATOM     16  C   UNL     1      37.858 -26.561 -15.099  0.00  0.00    +0.051 C 
ATOM     17  H   UNL     1      38.578 -26.542 -12.487  0.00  0.00    +0.189 HD
ENDBRANCH   2  10
BRANCH   3  18
ATOM     18  O   UNL     1      32.582 -22.786 -18.631  0.00  0.00    -0.476 OA
BRANCH  18  19
ATOM     19  C   UNL     1      33.853 -22.218 -18.948  0.00  0.00    +0.184 C 
BRANCH  19  20
ATOM     20  C   UNL     1      33.724 -21.251 -20.130  0.00  0.00    -0.017 C 
BRANCH  20  21
ATOM     21  N   UNL     1      32.481 -20.490 -19.970  0.00  0.00    +0.384 N 
ATOM     22  H   UNL     1      32.118 -20.234 -20.888  0.00  0.00    -0.089 HD
ATOM     23  H   UNL     1      32.668 -19.644 -19.431  0.00  0.00    -0.089 HD
ATOM     24  H   UNL     1      31.793 -21.061 -19.478  0.00  0.00    -0.089 HD
ENDBRANCH  20  21
BRANCH  20  25
ATOM     25  C   UNL     1      34.894 -20.249 -20.227  0.00  0.00    +0.008 C 
BRANCH  25  26
ATOM     26  C   UNL     1      34.766 -19.238 -21.340  0.00  0.00    -0.024 C 
ATOM     27  C   UNL     1      34.954 -17.893 -21.061  0.00  0.00    -0.004 C 
ATOM     28  C   UNL     1      34.462 -19.671 -22.622  0.00  0.00    -0.004 C 
ATOM     29  C   UNL     1      34.836 -16.958 -22.089  0.00  0.00    -0.000 C 
ATOM     30  C   UNL     1      34.344 -18.735 -23.650  0.00  0.00    -0.000 C 
ATOM     31  C   UNL     1      34.531 -17.379 -23.384  0.00  0.00    -0.000 C 
ENDBRANCH  25  26
ENDBRANCH  20  25
ENDBRANCH  19  20
ENDBRANCH  18  19
ENDBRANCH   3  18
TORSDOF 7
ENDMDL
