MODEL 1
REMARK VINA RESULT:     -12.1      0.000      0.000
REMARK  Name = 44129624
REMARK  6 active torsions:
REMARK  status: ('A' for Active; 'I' for Inactive)
REMARK    1  A    between atoms: C_1  and  O_20
REMARK    2  A    between atoms: C_4  and  C_8
REMARK    3  A    between atoms: C_8  and  C_9
REMARK    4  A    between atoms: C_10  and  C_16
REMARK    5  A    between atoms: O_20  and  C_21
REMARK    6  A    between atoms: C_21  and  C_23
REMARK                            x       y       z     vdW  Elec       q    Type
REMARK                         _______ _______ _______ _____ _____    ______ ____
ROOT
ATOM      1  C   UNL     1      33.296 -21.820 -19.299  0.00  0.00    +0.138 C 
ATOM      2  C   UNL     1      34.686 -21.925 -19.277  0.00  0.00    +0.037 C 
ATOM      3  C   UNL     1      32.685 -20.798 -20.026  0.00  0.00    +0.037 C 
ATOM      4  C   UNL     1      34.856 -19.988 -20.710  0.00  0.00    +0.039 C 
ATOM      5  C   UNL     1      35.466 -21.010 -19.982  0.00  0.00    +0.006 C 
ATOM      6  C   UNL     1      33.466 -19.882 -20.732  0.00  0.00    +0.006 C 
ENDROOT
BRANCH   4   8
ATOM      7  O   UNL     1      36.888 -18.953 -21.228  0.00  0.00    -0.287 OA
ATOM      8  C   UNL     1      35.670 -19.035 -21.447  0.00  0.00    +0.196 C 
BRANCH   8   9
ATOM      9  C   UNL     1      35.097 -18.125 -22.485  0.00  0.00    +0.039 C 
ATOM     10  C   UNL     1      34.027 -16.427 -24.422  0.00  0.00    +0.001 C 
ATOM     11  C   UNL     1      34.680 -18.642 -23.711  0.00  0.00    +0.003 C 
ATOM     12  C   UNL     1      34.981 -16.759 -22.227  0.00  0.00    +0.003 C 
ATOM     13  C   UNL     1      34.145 -17.793 -24.679  0.00  0.00    +0.000 C 
ATOM     14  C   UNL     1      34.446 -15.910 -23.196  0.00  0.00    +0.000 C 
BRANCH  10  16
ATOM     15  S   UNL     1      32.629 -13.384 -26.505  0.00  0.00    -0.086 S 
ATOM     16  C   UNL     1      33.475 -15.554 -25.419  0.00  0.00    +0.007 C 
ATOM     17  C   UNL     1      33.050 -15.909 -26.732  0.00  0.00    +0.007 C 
ATOM     18  C   UNL     1      33.301 -14.212 -25.164  0.00  0.00    +0.035 C 
ATOM     19  C   UNL     1      32.569 -14.823 -27.431  0.00  0.00    +0.035 C 
ENDBRANCH  10  16
ENDBRANCH   8   9
ENDBRANCH   4   8
BRANCH   1  20
ATOM     20  O   UNL     1      32.527 -22.720 -18.605  0.00  0.00    -0.478 OA
BRANCH  20  21
ATOM     21  C   UNL     1      32.939 -23.031 -17.284  0.00  0.00    +0.184 C 
BRANCH  21  23
ATOM     22  N   UNL     1      30.507 -22.736 -16.891  0.00  0.00    +0.388 N 
ATOM     23  C   UNL     1      31.721 -23.456 -16.478  0.00  0.00    -0.017 C 
ATOM     24  C   UNL     1      31.839 -23.116 -15.000  0.00  0.00    -0.020 C 
ATOM     25  C   UNL     1      30.396 -23.041 -14.523  0.00  0.00    -0.025 C 
ATOM     26  C   UNL     1      29.560 -22.947 -15.791  0.00  0.00    -0.082 C 
ATOM     27  H   UNL     1      30.140 -23.121 -17.761  0.00  0.00    -0.084 HD
ATOM     28  H   UNL     1      30.685 -21.747 -17.064  0.00  0.00    -0.084 HD
ENDBRANCH  21  23
ENDBRANCH  20  21
ENDBRANCH   1  20
TORSDOF 6
ENDMDL
MODEL 2
REMARK VINA RESULT:     -11.6      0.986      2.022
REMARK  Name = 44129624
REMARK  6 active torsions:
REMARK  status: ('A' for Active; 'I' for Inactive)
REMARK    1  A    between atoms: C_1  and  O_20
REMARK    2  A    between atoms: C_4  and  C_8
REMARK    3  A    between atoms: C_8  and  C_9
REMARK    4  A    between atoms: C_10  and  C_16
REMARK    5  A    between atoms: O_20  and  C_21
REMARK    6  A    between atoms: C_21  and  C_23
REMARK                            x       y       z     vdW  Elec       q    Type
REMARK                         _______ _______ _______ _____ _____    ______ ____
ROOT
ATOM      1  C   UNL     1      33.235 -21.918 -19.097  0.00  0.00    +0.138 C 
ATOM      2  C   UNL     1      32.702 -20.934 -19.928  0.00  0.00    +0.037 C 
ATOM      3  C   UNL     1      34.615 -22.003 -18.913  0.00  0.00    +0.037 C 
ATOM      4  C   UNL     1      34.928 -20.119 -20.392  0.00  0.00    +0.039 C 
ATOM      5  C   UNL     1      33.547 -20.034 -20.576  0.00  0.00    +0.006 C 
ATOM      6  C   UNL     1      35.461 -21.103 -19.561  0.00  0.00    +0.006 C 
ENDROOT
BRANCH   4   8
ATOM      7  O   UNL     1      37.038 -19.337 -21.026  0.00  0.00    -0.287 OA
ATOM      8  C   UNL     1      35.809 -19.179 -21.066  0.00  0.00    +0.196 C 
BRANCH   8   9
ATOM      9  C   UNL     1      35.294 -17.999 -21.824  0.00  0.00    +0.039 C 
ATOM     10  C   UNL     1      34.333 -15.797 -23.241  0.00  0.00    +0.001 C 
ATOM     11  C   UNL     1      35.018 -16.807 -21.156  0.00  0.00    +0.003 C 
ATOM     12  C   UNL     1      35.089 -18.090 -23.201  0.00  0.00    +0.003 C 
ATOM     13  C   UNL     1      34.537 -15.706 -21.864  0.00  0.00    +0.000 C 
ATOM     14  C   UNL     1      34.608 -16.989 -23.909  0.00  0.00    +0.000 C 
BRANCH  10  16
ATOM     15  S   UNL     1      32.834 -13.309 -25.909  0.00  0.00    -0.086 S 
ATOM     16  C   UNL     1      33.839 -14.662 -23.969  0.00  0.00    +0.007 C 
ATOM     17  C   UNL     1      33.765 -13.314 -23.514  0.00  0.00    +0.007 C 
ATOM     18  C   UNL     1      33.365 -14.800 -25.256  0.00  0.00    +0.035 C 
ATOM     19  C   UNL     1      33.237 -12.473 -24.470  0.00  0.00    +0.035 C 
ENDBRANCH  10  16
ENDBRANCH   8   9
ENDBRANCH   4   8
BRANCH   1  20
ATOM     20  O   UNL     1      32.403 -22.804 -18.460  0.00  0.00    -0.478 OA
BRANCH  20  21
ATOM     21  C   UNL     1      32.874 -23.367 -17.247  0.00  0.00    +0.184 C 
BRANCH  21  23
ATOM     22  N   UNL     1      31.830 -24.043 -15.101  0.00  0.00    +0.388 N 
ATOM     23  C   UNL     1      31.915 -22.994 -16.127  0.00  0.00    -0.017 C 
ATOM     24  C   UNL     1      30.476 -22.855 -16.600  0.00  0.00    -0.020 C 
ATOM     25  C   UNL     1      29.651 -23.091 -15.344  0.00  0.00    -0.025 C 
ATOM     26  C   UNL     1      30.611 -23.727 -14.348  0.00  0.00    -0.082 C 
ATOM     27  H   UNL     1      32.647 -24.016 -14.491  0.00  0.00    -0.084 HD
ATOM     28  H   UNL     1      31.802 -24.978 -15.506  0.00  0.00    -0.084 HD
ENDBRANCH  21  23
ENDBRANCH  20  21
ENDBRANCH   1  20
TORSDOF 6
ENDMDL
MODEL 3
REMARK VINA RESULT:     -10.9      4.924     10.430
REMARK  Name = 44129624
REMARK  6 active torsions:
REMARK  status: ('A' for Active; 'I' for Inactive)
REMARK    1  A    between atoms: C_1  and  O_20
REMARK    2  A    between atoms: C_4  and  C_8
REMARK    3  A    between atoms: C_8  and  C_9
REMARK    4  A    between atoms: C_10  and  C_16
REMARK    5  A    between atoms: O_20  and  C_21
REMARK    6  A    between atoms: C_21  and  C_23
REMARK                            x       y       z     vdW  Elec       q    Type
REMARK                         _______ _______ _______ _____ _____    ______ ____
ROOT
ATOM      1  C   UNL     1      35.323 -19.092 -21.130  0.00  0.00    +0.138 C 
ATOM      2  C   UNL     1      36.279 -19.931 -20.558  0.00  0.00    +0.037 C 
ATOM      3  C   UNL     1      33.966 -19.384 -20.995  0.00  0.00    +0.037 C 
ATOM      4  C   UNL     1      34.521 -21.356 -19.713  0.00  0.00    +0.039 C 
ATOM      5  C   UNL     1      35.878 -21.062 -19.849  0.00  0.00    +0.006 C 
ATOM      6  C   UNL     1      33.566 -20.517 -20.285  0.00  0.00    +0.006 C 
ENDROOT
BRANCH   4   8
ATOM      7  O   UNL     1      33.387 -23.391 -19.511  0.00  0.00    -0.287 OA
ATOM      8  C   UNL     1      34.103 -22.535 -18.971  0.00  0.00    +0.196 C 
BRANCH   8   9
ATOM      9  C   UNL     1      34.506 -22.773 -17.552  0.00  0.00    +0.039 C 
ATOM     10  C   UNL     1      35.257 -23.219 -14.903  0.00  0.00    +0.001 C 
ATOM     11  C   UNL     1      33.606 -23.359 -16.662  0.00  0.00    +0.003 C 
ATOM     12  C   UNL     1      35.781 -22.410 -17.118  0.00  0.00    +0.003 C 
ATOM     13  C   UNL     1      33.982 -23.582 -15.337  0.00  0.00    +0.000 C 
ATOM     14  C   UNL     1      36.156 -22.633 -15.793  0.00  0.00    +0.000 C 
BRANCH  10  16
ATOM     15  S   UNL     1      35.481 -24.260 -11.106  0.00  0.00    -0.086 S 
ATOM     16  C   UNL     1      35.643 -23.450 -13.539  0.00  0.00    +0.007 C 
ATOM     17  C   UNL     1      36.864 -23.067 -12.914  0.00  0.00    +0.007 C 
ATOM     18  C   UNL     1      34.800 -24.107 -12.669  0.00  0.00    +0.035 C 
ATOM     19  C   UNL     1      36.908 -23.446 -11.590  0.00  0.00    +0.035 C 
ENDBRANCH  10  16
ENDBRANCH   8   9
ENDBRANCH   4   8
BRANCH   1  20
ATOM     20  O   UNL     1      35.717 -17.977 -21.829  0.00  0.00    -0.478 OA
BRANCH  20  21
ATOM     21  C   UNL     1      34.690 -17.152 -22.352  0.00  0.00    +0.184 C 
BRANCH  21  23
ATOM     22  N   UNL     1      34.059 -16.036 -24.476  0.00  0.00    +0.388 N 
ATOM     23  C   UNL     1      34.771 -17.172 -23.871  0.00  0.00    -0.017 C 
ATOM     24  C   UNL     1      34.081 -18.379 -24.487  0.00  0.00    -0.020 C 
ATOM     25  C   UNL     1      33.742 -17.929 -25.900  0.00  0.00    -0.025 C 
ATOM     26  C   UNL     1      33.888 -16.414 -25.883  0.00  0.00    -0.082 C 
ATOM     27  H   UNL     1      34.613 -15.183 -24.397  0.00  0.00    -0.084 HD
ATOM     28  H   UNL     1      33.170 -15.848 -24.014  0.00  0.00    -0.084 HD
ENDBRANCH  21  23
ENDBRANCH  20  21
ENDBRANCH   1  20
TORSDOF 6
ENDMDL
MODEL 4
REMARK VINA RESULT:     -10.7      4.901     10.355
REMARK  Name = 44129624
REMARK  6 active torsions:
REMARK  status: ('A' for Active; 'I' for Inactive)
REMARK    1  A    between atoms: C_1  and  O_20
REMARK    2  A    between atoms: C_4  and  C_8
REMARK    3  A    between atoms: C_8  and  C_9
REMARK    4  A    between atoms: C_10  and  C_16
REMARK    5  A    between atoms: O_20  and  C_21
REMARK    6  A    between atoms: C_21  and  C_23
REMARK                            x       y       z     vdW  Elec       q    Type
REMARK                         _______ _______ _______ _____ _____    ______ ____
ROOT
ATOM      1  C   UNL     1      35.228 -19.042 -21.646  0.00  0.00    +0.138 C 
ATOM      2  C   UNL     1      33.852 -19.226 -21.523  0.00  0.00    +0.037 C 
ATOM      3  C   UNL     1      36.106 -19.817 -20.887  0.00  0.00    +0.037 C 
ATOM      4  C   UNL     1      34.228 -20.960 -19.884  0.00  0.00    +0.039 C 
ATOM      5  C   UNL     1      33.351 -20.184 -20.643  0.00  0.00    +0.006 C 
ATOM      6  C   UNL     1      35.605 -20.776 -20.006  0.00  0.00    +0.006 C 
ENDROOT
BRANCH   4   8
ATOM      7  O   UNL     1      32.585 -22.456 -19.156  0.00  0.00    -0.287 OA
ATOM      8  C   UNL     1      33.706 -21.961 -18.968  0.00  0.00    +0.196 C 
BRANCH   8   9
ATOM      9  C   UNL     1      34.475 -22.437 -17.778  0.00  0.00    +0.039 C 
ATOM     10  C   UNL     1      35.909 -23.326 -15.557  0.00  0.00    +0.001 C 
ATOM     11  C   UNL     1      35.795 -22.027 -17.591  0.00  0.00    +0.003 C 
ATOM     12  C   UNL     1      33.873 -23.292 -16.855  0.00  0.00    +0.003 C 
ATOM     13  C   UNL     1      36.512 -22.472 -16.480  0.00  0.00    +0.000 C 
ATOM     14  C   UNL     1      34.590 -23.737 -15.745  0.00  0.00    +0.000 C 
BRANCH  10  16
ATOM     15  S   UNL     1      37.366 -24.010 -11.957  0.00  0.00    -0.086 S 
ATOM     16  C   UNL     1      36.649 -23.782 -14.413  0.00  0.00    +0.007 C 
ATOM     17  C   UNL     1      37.730 -24.709 -14.402  0.00  0.00    +0.007 C 
ATOM     18  C   UNL     1      36.347 -23.323 -13.150  0.00  0.00    +0.035 C 
ATOM     19  C   UNL     1      38.214 -24.925 -13.130  0.00  0.00    +0.035 C 
ENDBRANCH  10  16
ENDBRANCH   8   9
ENDBRANCH   4   8
BRANCH   1  20
ATOM     20  O   UNL     1      35.722 -18.098 -22.512  0.00  0.00    -0.478 OA
BRANCH  20  21
ATOM     21  C   UNL     1      34.874 -17.698 -23.575  0.00  0.00    +0.184 C 
BRANCH  21  23
ATOM     22  N   UNL     1      34.585 -15.580 -22.316  0.00  0.00    +0.388 N 
ATOM     23  C   UNL     1      34.845 -16.179 -23.634  0.00  0.00    -0.017 C 
ATOM     24  C   UNL     1      33.709 -15.638 -24.489  0.00  0.00    -0.020 C 
ATOM     25  C   UNL     1      33.479 -14.234 -23.951  0.00  0.00    -0.025 C 
ATOM     26  C   UNL     1      34.193 -14.197 -22.608  0.00  0.00    -0.082 C 
ATOM     27  H   UNL     1      35.426 -15.602 -21.740  0.00  0.00    -0.084 HD
ATOM     28  H   UNL     1      33.866 -16.085 -21.798  0.00  0.00    -0.084 HD
ENDBRANCH  21  23
ENDBRANCH  20  21
ENDBRANCH   1  20
TORSDOF 6
ENDMDL
MODEL 5
REMARK VINA RESULT:     -10.6      4.658      9.255
REMARK  Name = 44129624
REMARK  6 active torsions:
REMARK  status: ('A' for Active; 'I' for Inactive)
REMARK    1  A    between atoms: C_1  and  O_20
REMARK    2  A    between atoms: C_4  and  C_8
REMARK    3  A    between atoms: C_8  and  C_9
REMARK    4  A    between atoms: C_10  and  C_16
REMARK    5  A    between atoms: O_20  and  C_21
REMARK    6  A    between atoms: C_21  and  C_23
REMARK                            x       y       z     vdW  Elec       q    Type
REMARK                         _______ _______ _______ _____ _____    ______ ____
ROOT
ATOM      1  C   UNL     1      34.265 -14.861 -22.441  0.00  0.00    +0.138 C 
ATOM      2  C   UNL     1      34.566 -15.550 -21.267  0.00  0.00    +0.037 C 
ATOM      3  C   UNL     1      34.133 -15.555 -23.644  0.00  0.00    +0.037 C 
ATOM      4  C   UNL     1      34.602 -17.629 -22.496  0.00  0.00    +0.039 C 
ATOM      5  C   UNL     1      34.734 -16.934 -21.294  0.00  0.00    +0.006 C 
ATOM      6  C   UNL     1      34.301 -16.940 -23.671  0.00  0.00    +0.006 C 
ENDROOT
BRANCH   4   8
ATOM      7  O   UNL     1      35.175 -19.634 -23.555  0.00  0.00    -0.287 OA
ATOM      8  C   UNL     1      34.775 -19.072 -22.524  0.00  0.00    +0.196 C 
BRANCH   8   9
ATOM      9  C   UNL     1      34.488 -19.937 -21.339  0.00  0.00    +0.039 C 
ATOM     10  C   UNL     1      33.951 -21.552 -19.129  0.00  0.00    +0.001 C 
ATOM     11  C   UNL     1      33.174 -20.109 -20.905  0.00  0.00    +0.003 C 
ATOM     12  C   UNL     1      35.534 -20.571 -20.668  0.00  0.00    +0.003 C 
ATOM     13  C   UNL     1      32.906 -20.917 -19.800  0.00  0.00    +0.000 C 
ATOM     14  C   UNL     1      35.265 -21.378 -19.563  0.00  0.00    +0.000 C 
BRANCH  10  16
ATOM     15  S   UNL     1      34.100 -23.747 -15.857  0.00  0.00    -0.086 S 
ATOM     16  C   UNL     1      33.673 -22.383 -17.992  0.00  0.00    +0.007 C 
ATOM     17  C   UNL     1      32.409 -22.912 -17.602  0.00  0.00    +0.007 C 
ATOM     18  C   UNL     1      34.680 -22.760 -17.130  0.00  0.00    +0.035 C 
ATOM     19  C   UNL     1      32.498 -23.673 -16.456  0.00  0.00    +0.035 C 
ENDBRANCH  10  16
ENDBRANCH   8   9
ENDBRANCH   4   8
BRANCH   1  20
ATOM     20  O   UNL     1      34.099 -13.498 -22.416  0.00  0.00    -0.478 OA
BRANCH  20  21
ATOM     21  C   UNL     1      33.124 -12.954 -23.289  0.00  0.00    +0.184 C 
BRANCH  21  23
ATOM     22  N   UNL     1      32.057 -10.911 -22.372  0.00  0.00    +0.388 N 
ATOM     23  C   UNL     1      31.988 -12.378 -22.459  0.00  0.00    -0.017 C 
ATOM     24  C   UNL     1      32.037 -12.813 -21.002  0.00  0.00    -0.020 C 
ATOM     25  C   UNL     1      31.271 -11.724 -20.266  0.00  0.00    -0.025 C 
ATOM     26  C   UNL     1      31.179 -10.565 -21.250  0.00  0.00    -0.082 C 
ATOM     27  H   UNL     1      31.722 -10.485 -23.236  0.00  0.00    -0.084 HD
ATOM     28  H   UNL     1      33.011 -10.577 -22.235  0.00  0.00    -0.084 HD
ENDBRANCH  21  23
ENDBRANCH  20  21
ENDBRANCH   1  20
TORSDOF 6
ENDMDL
MODEL 6
REMARK VINA RESULT:     -10.5      4.675      9.984
REMARK  Name = 44129624
REMARK  6 active torsions:
REMARK  status: ('A' for Active; 'I' for Inactive)
REMARK    1  A    between atoms: C_1  and  O_20
REMARK    2  A    between atoms: C_4  and  C_8
REMARK    3  A    between atoms: C_8  and  C_9
REMARK    4  A    between atoms: C_10  and  C_16
REMARK    5  A    between atoms: O_20  and  C_21
REMARK    6  A    between atoms: C_21  and  C_23
REMARK                            x       y       z     vdW  Elec       q    Type
REMARK                         _______ _______ _______ _____ _____    ______ ____
ROOT
ATOM      1  C   UNL     1      34.111 -14.568 -22.809  0.00  0.00    +0.138 C 
ATOM      2  C   UNL     1      34.556 -15.234 -21.668  0.00  0.00    +0.037 C 
ATOM      3  C   UNL     1      33.877 -15.280 -23.986  0.00  0.00    +0.037 C 
ATOM      4  C   UNL     1      34.531 -17.325 -22.878  0.00  0.00    +0.039 C 
ATOM      5  C   UNL     1      34.766 -16.612 -21.701  0.00  0.00    +0.006 C 
ATOM      6  C   UNL     1      34.087 -16.659 -24.019  0.00  0.00    +0.006 C 
ENDROOT
BRANCH   4   8
ATOM      7  O   UNL     1      35.155 -19.308 -23.948  0.00  0.00    -0.287 OA
ATOM      8  C   UNL     1      34.747 -18.762 -22.912  0.00  0.00    +0.196 C 
BRANCH   8   9
ATOM      9  C   UNL     1      34.497 -19.639 -21.727  0.00  0.00    +0.039 C 
ATOM     10  C   UNL     1      34.029 -21.275 -19.517  0.00  0.00    +0.001 C 
ATOM     11  C   UNL     1      35.569 -20.217 -21.049  0.00  0.00    +0.003 C 
ATOM     12  C   UNL     1      33.190 -19.880 -21.302  0.00  0.00    +0.003 C 
ATOM     13  C   UNL     1      35.335 -21.034 -19.943  0.00  0.00    +0.000 C 
ATOM     14  C   UNL     1      32.956 -20.698 -20.197  0.00  0.00    +0.000 C 
BRANCH  10  16
ATOM     15  S   UNL     1      34.282 -23.460 -16.244  0.00  0.00    -0.086 S 
ATOM     16  C   UNL     1      33.790 -22.116 -18.378  0.00  0.00    +0.007 C 
ATOM     17  C   UNL     1      32.551 -22.697 -17.983  0.00  0.00    +0.007 C 
ATOM     18  C   UNL     1      34.815 -22.450 -17.520  0.00  0.00    +0.035 C 
ATOM     19  C   UNL     1      32.676 -23.453 -16.837  0.00  0.00    +0.035 C 
ENDBRANCH  10  16
ENDBRANCH   8   9
ENDBRANCH   4   8
BRANCH   1  20
ATOM     20  O   UNL     1      33.905 -13.212 -22.777  0.00  0.00    -0.478 OA
BRANCH  20  21
ATOM     21  C   UNL     1      32.789 -12.715 -23.497  0.00  0.00    +0.184 C 
BRANCH  21  23
ATOM     22  N   UNL     1      34.649 -11.247 -24.229  0.00  0.00    +0.388 N 
ATOM     23  C   UNL     1      33.189 -11.425 -24.195  0.00  0.00    -0.017 C 
ATOM     24  C   UNL     1      32.705 -10.181 -23.467  0.00  0.00    -0.020 C 
ATOM     25  C   UNL     1      33.663  -9.091 -23.924  0.00  0.00    -0.025 C 
ATOM     26  C   UNL     1      34.841  -9.827 -24.547  0.00  0.00    -0.082 C 
ATOM     27  H   UNL     1      35.066 -11.836 -24.949  0.00  0.00    -0.084 HD
ATOM     28  H   UNL     1      35.090 -11.508 -23.348  0.00  0.00    -0.084 HD
ENDBRANCH  21  23
ENDBRANCH  20  21
ENDBRANCH   1  20
TORSDOF 6
ENDMDL
MODEL 7
REMARK VINA RESULT:     -10.5      4.244      9.713
REMARK  Name = 44129624
REMARK  6 active torsions:
REMARK  status: ('A' for Active; 'I' for Inactive)
REMARK    1  A    between atoms: C_1  and  O_20
REMARK    2  A    between atoms: C_4  and  C_8
REMARK    3  A    between atoms: C_8  and  C_9
REMARK    4  A    between atoms: C_10  and  C_16
REMARK    5  A    between atoms: O_20  and  C_21
REMARK    6  A    between atoms: C_21  and  C_23
REMARK                            x       y       z     vdW  Elec       q    Type
REMARK                         _______ _______ _______ _____ _____    ______ ____
ROOT
ATOM      1  C   UNL     1      34.326 -18.479 -22.189  0.00  0.00    +0.138 C 
ATOM      2  C   UNL     1      35.659 -18.511 -21.782  0.00  0.00    +0.037 C 
ATOM      3  C   UNL     1      33.420 -19.413 -21.686  0.00  0.00    +0.037 C 
ATOM      4  C   UNL     1      35.183 -20.412 -20.370  0.00  0.00    +0.039 C 
ATOM      5  C   UNL     1      36.088 -19.477 -20.873  0.00  0.00    +0.006 C 
ATOM      6  C   UNL     1      33.850 -20.380 -20.776  0.00  0.00    +0.006 C 
ENDROOT
BRANCH   4   8
ATOM      7  O   UNL     1      36.813 -21.791 -19.416  0.00  0.00    -0.287 OA
ATOM      8  C   UNL     1      35.630 -21.418 -19.420  0.00  0.00    +0.196 C 
BRANCH   8   9
ATOM      9  C   UNL     1      34.711 -22.041 -18.420  0.00  0.00    +0.039 C 
ATOM     10  C   UNL     1      32.994 -23.204 -16.554  0.00  0.00    +0.001 C 
ATOM     11  C   UNL     1      35.195 -22.418 -17.168  0.00  0.00    +0.003 C 
ATOM     12  C   UNL     1      33.368 -22.247 -18.740  0.00  0.00    +0.003 C 
ATOM     13  C   UNL     1      34.336 -22.999 -16.235  0.00  0.00    +0.000 C 
ATOM     14  C   UNL     1      32.510 -22.828 -17.807  0.00  0.00    +0.000 C 
BRANCH  10  16
ATOM     15  S   UNL     1      29.914 -24.585 -14.516  0.00  0.00    -0.086 S 
ATOM     16  C   UNL     1      32.111 -23.802 -15.592  0.00  0.00    +0.007 C 
ATOM     17  C   UNL     1      32.474 -24.423 -14.362  0.00  0.00    +0.007 C 
ATOM     18  C   UNL     1      30.750 -23.820 -15.800  0.00  0.00    +0.035 C 
ATOM     19  C   UNL     1      31.375 -24.894 -13.677  0.00  0.00    +0.035 C 
ENDBRANCH  10  16
ENDBRANCH   8   9
ENDBRANCH   4   8
BRANCH   1  20
ATOM     20  O   UNL     1      33.903 -17.528 -23.084  0.00  0.00    -0.478 OA
BRANCH  20  21
ATOM     21  C   UNL     1      34.673 -17.371 -24.264  0.00  0.00    +0.184 C 
BRANCH  21  23
ATOM     22  N   UNL     1      32.516 -16.666 -25.266  0.00  0.00    +0.388 N 
ATOM     23  C   UNL     1      33.747 -17.445 -25.468  0.00  0.00    -0.017 C 
ATOM     24  C   UNL     1      33.227 -18.850 -25.732  0.00  0.00    -0.020 C 
ATOM     25  C   UNL     1      31.935 -18.626 -26.504  0.00  0.00    -0.025 C 
ATOM     26  C   UNL     1      31.593 -17.158 -26.295  0.00  0.00    -0.082 C 
ATOM     27  H   UNL     1      32.697 -15.670 -25.390  0.00  0.00    -0.084 HD
ATOM     28  H   UNL     1      32.140 -16.777 -24.324  0.00  0.00    -0.084 HD
ENDBRANCH  21  23
ENDBRANCH  20  21
ENDBRANCH   1  20
TORSDOF 6
ENDMDL
MODEL 8
REMARK VINA RESULT:     -10.2      3.420      6.291
REMARK  Name = 44129624
REMARK  6 active torsions:
REMARK  status: ('A' for Active; 'I' for Inactive)
REMARK    1  A    between atoms: C_1  and  O_20
REMARK    2  A    between atoms: C_4  and  C_8
REMARK    3  A    between atoms: C_8  and  C_9
REMARK    4  A    between atoms: C_10  and  C_16
REMARK    5  A    between atoms: O_20  and  C_21
REMARK    6  A    between atoms: C_21  and  C_23
REMARK                            x       y       z     vdW  Elec       q    Type
REMARK                         _______ _______ _______ _____ _____    ______ ____
ROOT
ATOM      1  C   UNL     1      34.137 -18.599 -24.039  0.00  0.00    +0.138 C 
ATOM      2  C   UNL     1      33.200 -18.912 -25.024  0.00  0.00    +0.037 C 
ATOM      3  C   UNL     1      34.712 -17.329 -24.002  0.00  0.00    +0.037 C 
ATOM      4  C   UNL     1      33.413 -16.686 -25.935  0.00  0.00    +0.039 C 
ATOM      5  C   UNL     1      32.838 -17.956 -25.971  0.00  0.00    +0.006 C 
ATOM      6  C   UNL     1      34.350 -16.372 -24.951  0.00  0.00    +0.006 C 
ENDROOT
BRANCH   4   8
ATOM      7  O   UNL     1      32.525 -16.036 -27.998  0.00  0.00    -0.287 OA
ATOM      8  C   UNL     1      33.034 -15.688 -26.923  0.00  0.00    +0.196 C 
BRANCH   8   9
ATOM      9  C   UNL     1      33.232 -14.224 -26.700  0.00  0.00    +0.039 C 
ATOM     10  C   UNL     1      33.603 -11.490 -26.284  0.00  0.00    +0.001 C 
ATOM     11  C   UNL     1      32.909 -13.656 -25.467  0.00  0.00    +0.003 C 
ATOM     12  C   UNL     1      33.740 -13.424 -27.724  0.00  0.00    +0.003 C 
ATOM     13  C   UNL     1      33.095 -12.289 -25.260  0.00  0.00    +0.000 C 
ATOM     14  C   UNL     1      33.925 -12.058 -27.516  0.00  0.00    +0.000 C 
BRANCH  10  16
ATOM     15  S   UNL     1      33.208  -7.595 -25.816  0.00  0.00    -0.086 S 
ATOM     16  C   UNL     1      33.794 -10.084 -26.067  0.00  0.00    +0.007 C 
ATOM     17  C   UNL     1      35.023  -9.413 -25.804  0.00  0.00    +0.007 C 
ATOM     18  C   UNL     1      32.727  -9.213 -26.102  0.00  0.00    +0.035 C 
ATOM     19  C   UNL     1      34.848  -8.056 -25.646  0.00  0.00    +0.035 C 
ENDBRANCH  10  16
ENDBRANCH   8   9
ENDBRANCH   4   8
BRANCH   1  20
ATOM     20  O   UNL     1      34.494 -19.540 -23.106  0.00  0.00    -0.478 OA
BRANCH  20  21
ATOM     21  C   UNL     1      35.246 -19.086 -21.993  0.00  0.00    +0.184 C 
BRANCH  21  23
ATOM     22  N   UNL     1      35.274 -20.994 -20.408  0.00  0.00    +0.388 N 
ATOM     23  C   UNL     1      34.664 -19.694 -20.726  0.00  0.00    -0.017 C 
ATOM     24  C   UNL     1      33.186 -20.028 -20.852  0.00  0.00    -0.020 C 
ATOM     25  C   UNL     1      32.963 -21.114 -19.811  0.00  0.00    -0.025 C 
ATOM     26  C   UNL     1      34.355 -21.608 -19.443  0.00  0.00    -0.082 C 
ATOM     27  H   UNL     1      36.197 -20.865 -19.994  0.00  0.00    -0.084 HD
ATOM     28  H   UNL     1      35.407 -21.572 -21.237  0.00  0.00    -0.084 HD
ENDBRANCH  21  23
ENDBRANCH  20  21
ENDBRANCH   1  20
TORSDOF 6
ENDMDL
MODEL 9
REMARK VINA RESULT:     -10.2      2.098      3.961
REMARK  Name = 44129624
REMARK  6 active torsions:
REMARK  status: ('A' for Active; 'I' for Inactive)
REMARK    1  A    between atoms: C_1  and  O_20
REMARK    2  A    between atoms: C_4  and  C_8
REMARK    3  A    between atoms: C_8  and  C_9
REMARK    4  A    between atoms: C_10  and  C_16
REMARK    5  A    between atoms: O_20  and  C_21
REMARK    6  A    between atoms: C_21  and  C_23
REMARK                            x       y       z     vdW  Elec       q    Type
REMARK                         _______ _______ _______ _____ _____    ______ ____
ROOT
ATOM      1  C   UNL     1      32.596 -23.530 -15.836  0.00  0.00    +0.138 C 
ATOM      2  C   UNL     1      33.867 -23.280 -15.320  0.00  0.00    +0.037 C 
ATOM      3  C   UNL     1      32.318 -23.251 -17.174  0.00  0.00    +0.037 C 
ATOM      4  C   UNL     1      34.584 -22.471 -17.480  0.00  0.00    +0.039 C 
ATOM      5  C   UNL     1      34.861 -22.750 -16.141  0.00  0.00    +0.006 C 
ATOM      6  C   UNL     1      33.313 -22.721 -17.996  0.00  0.00    +0.006 C 
ENDROOT
BRANCH   4   8
ATOM      7  O   UNL     1      36.811 -22.222 -18.151  0.00  0.00    -0.287 OA
ATOM      8  C   UNL     1      35.622 -21.921 -18.337  0.00  0.00    +0.196 C 
BRANCH   8   9
ATOM      9  C   UNL     1      35.320 -20.986 -19.463  0.00  0.00    +0.039 C 
ATOM     10  C   UNL     1      34.756 -19.242 -21.566  0.00  0.00    +0.001 C 
ATOM     11  C   UNL     1      36.337 -20.208 -20.015  0.00  0.00    +0.003 C 
ATOM     12  C   UNL     1      34.021 -20.892 -19.962  0.00  0.00    +0.003 C 
ATOM     13  C   UNL     1      36.055 -19.335 -21.066  0.00  0.00    +0.000 C 
ATOM     14  C   UNL     1      33.739 -20.020 -21.013  0.00  0.00    +0.000 C 
BRANCH  10  16
ATOM     15  S   UNL     1      34.382 -16.154 -23.990  0.00  0.00    -0.086 S 
ATOM     16  C   UNL     1      34.468 -18.344 -22.648  0.00  0.00    +0.007 C 
ATOM     17  C   UNL     1      33.807 -18.655 -23.871  0.00  0.00    +0.007 C 
ATOM     18  C   UNL     1      34.835 -17.017 -22.581  0.00  0.00    +0.035 C 
ATOM     19  C   UNL     1      33.694 -17.555 -24.693  0.00  0.00    +0.035 C 
ENDBRANCH  10  16
ENDBRANCH   8   9
ENDBRANCH   4   8
BRANCH   1  20
ATOM     20  O   UNL     1      31.616 -24.051 -15.028  0.00  0.00    -0.478 OA
BRANCH  20  21
ATOM     21  C   UNL     1      30.678 -23.136 -14.486  0.00  0.00    +0.184 C 
BRANCH  21  23
ATOM     22  N   UNL     1      29.292 -24.704 -15.818  0.00  0.00    +0.388 N 
ATOM     23  C   UNL     1      29.305 -23.439 -15.067  0.00  0.00    -0.017 C 
ATOM     24  C   UNL     1      28.859 -22.418 -16.102  0.00  0.00    -0.020 C 
ATOM     25  C   UNL     1      27.849 -23.173 -16.953  0.00  0.00    -0.025 C 
ATOM     26  C   UNL     1      28.067 -24.643 -16.623  0.00  0.00    -0.082 C 
ATOM     27  H   UNL     1      29.265 -25.500 -15.181  0.00  0.00    -0.084 HD
ATOM     28  H   UNL     1      30.126 -24.821 -16.392  0.00  0.00    -0.084 HD
ENDBRANCH  21  23
ENDBRANCH  20  21
ENDBRANCH   1  20
TORSDOF 6
ENDMDL
