MODEL 1
REMARK VINA RESULT:     -13.1      0.000      0.000
REMARK  Name = 25145656
REMARK  4 active torsions:
REMARK  status: ('A' for Active; 'I' for Inactive)
REMARK    1  A    between atoms: C_5  and  C_22
REMARK    2  A    between atoms: C_8  and  C_11
REMARK    3  A    between atoms: C_14  and  C_19
REMARK    4  A    between atoms: C_22  and  C_24
REMARK                            x       y       z     vdW  Elec       q    Type
REMARK                         _______ _______ _______ _____ _____    ______ ____
ROOT
ATOM      1  N   UNL     1      34.120 -17.667 -24.570  0.00  0.00    -0.134 N 
ATOM      2  N   UNL     1      33.992 -16.406 -24.102  0.00  0.00    -0.168 NA
ATOM      3  N   UNL     1      34.039 -19.401 -25.952  0.00  0.00    -0.178 NA
ATOM      4  N   UNL     1      33.205 -17.263 -26.721  0.00  0.00    -0.200 NA
ATOM      5  C   UNL     1      34.640 -18.729 -23.880  0.00  0.00    +0.086 C 
ATOM      6  C   UNL     1      33.764 -18.115 -25.827  0.00  0.00    +0.114 C 
ATOM      7  C   UNL     1      34.580 -19.785 -24.753  0.00  0.00    +0.124 C 
ATOM      8  C   UNL     1      33.479 -15.569 -24.952  0.00  0.00    +0.103 C 
ATOM      9  C   UNL     1      33.054 -16.043 -26.321  0.00  0.00    +0.184 C 
ENDROOT
BRANCH   8  11
ATOM     10  F   UNL     1      32.776 -10.928 -26.186  0.00  0.00    -0.204 F 
ATOM     11  C   UNL     1      33.299 -14.146 -24.580  0.00  0.00    +0.019 C 
ATOM     12  C   UNL     1      33.119 -13.184 -25.573  0.00  0.00    +0.031 C 
ATOM     13  C   UNL     1      33.310 -13.770 -23.237  0.00  0.00    +0.002 C 
ATOM     14  C   UNL     1      32.960 -11.467 -23.881  0.00  0.00    +0.081 C 
ATOM     15  C   UNL     1      32.949 -11.845 -25.223  0.00  0.00    +0.144 C 
ATOM     16  C   UNL     1      33.140 -12.431 -22.888  0.00  0.00    +0.007 C 
BRANCH  14  19
ATOM     17  O   UNL     1      33.611  -9.215 -23.865  0.00  0.00    -0.270 OA
ATOM     18  N   UNL     1      31.639  -9.752 -22.770  0.00  0.00    -0.299 N 
ATOM     19  C   UNL     1      32.783 -10.072 -23.511  0.00  0.00    +0.248 C 
ATOM     20  C   UNL     1      31.310  -8.409 -22.349  0.00  0.00    +0.111 C 
ATOM     21  H   UNL     1      31.025 -10.481 -22.523  0.00  0.00    +0.150 HD
ENDBRANCH  14  19
ENDBRANCH   8  11
BRANCH   5  22
ATOM     22  C   UNL     1      35.144 -18.631 -22.454  0.00  0.00    +0.068 C 
BRANCH  22  24
ATOM     23  N   UNL     1      32.370 -21.977 -18.831  0.00  0.00    -0.248 NA
ATOM     24  C   UNL     1      34.422 -19.516 -21.495  0.00  0.00    -0.038 C 
ATOM     25  C   UNL     1      35.135 -20.303 -20.596  0.00  0.00    +0.050 C 
ATOM     26  C   UNL     1      34.459 -21.138 -19.691  0.00  0.00    -0.004 C 
ATOM     27  C   UNL     1      33.033 -19.560 -21.494  0.00  0.00    -0.028 C 
ATOM     28  C   UNL     1      33.048 -21.188 -19.684  0.00  0.00    +0.060 C 
ATOM     29  C   UNL     1      32.361 -20.390 -20.595  0.00  0.00    +0.071 C 
ATOM     30  C   UNL     1      35.151 -21.940 -18.774  0.00  0.00    -0.001 C 
ATOM     31  C   UNL     1      34.454 -22.755 -17.893  0.00  0.00    +0.020 C 
ATOM     32  C   UNL     1      33.076 -22.736 -17.961  0.00  0.00    +0.098 C 
ENDBRANCH  22  24
ENDBRANCH   5  22
TORSDOF 4
ENDMDL
MODEL 2
REMARK VINA RESULT:     -13.1      1.839      2.489
REMARK  Name = 25145656
REMARK  4 active torsions:
REMARK  status: ('A' for Active; 'I' for Inactive)
REMARK    1  A    between atoms: C_5  and  C_22
REMARK    2  A    between atoms: C_8  and  C_11
REMARK    3  A    between atoms: C_14  and  C_19
REMARK    4  A    between atoms: C_22  and  C_24
REMARK                            x       y       z     vdW  Elec       q    Type
REMARK                         _______ _______ _______ _____ _____    ______ ____
ROOT
ATOM      1  N   UNL     1      33.671 -16.586 -25.107  0.00  0.00    -0.134 N 
ATOM      2  N   UNL     1      33.617 -15.250 -24.914  0.00  0.00    -0.168 NA
ATOM      3  N   UNL     1      33.475 -18.564 -26.092  0.00  0.00    -0.178 NA
ATOM      4  N   UNL     1      32.746 -16.592 -27.291  0.00  0.00    -0.200 NA
ATOM      5  C   UNL     1      34.143 -17.506 -24.210  0.00  0.00    +0.086 C 
ATOM      6  C   UNL     1      33.271 -17.268 -26.240  0.00  0.00    +0.114 C 
ATOM      7  C   UNL     1      34.012 -18.718 -24.841  0.00  0.00    +0.124 C 
ATOM      8  C   UNL     1      33.138 -14.583 -25.920  0.00  0.00    +0.103 C 
ATOM      9  C   UNL     1      32.667 -15.309 -27.157  0.00  0.00    +0.184 C 
ENDROOT
BRANCH   8  11
ATOM     10  F   UNL     1      33.758 -10.402 -23.536  0.00  0.00    -0.204 F 
ATOM     11  C   UNL     1      33.040 -13.106 -25.855  0.00  0.00    +0.019 C 
ATOM     12  C   UNL     1      33.451 -12.431 -24.706  0.00  0.00    +0.031 C 
ATOM     13  C   UNL     1      32.539 -12.392 -26.943  0.00  0.00    +0.002 C 
ATOM     14  C   UNL     1      32.858 -10.325 -25.732  0.00  0.00    +0.081 C 
ATOM     15  C   UNL     1      33.360 -11.040 -24.645  0.00  0.00    +0.144 C 
ATOM     16  C   UNL     1      32.447 -11.001 -26.881  0.00  0.00    +0.007 C 
BRANCH  14  19
ATOM     17  O   UNL     1      31.871  -8.328 -25.000  0.00  0.00    -0.270 OA
ATOM     18  N   UNL     1      33.723  -8.146 -26.382  0.00  0.00    -0.299 N 
ATOM     19  C   UNL     1      32.762  -8.876 -25.673  0.00  0.00    +0.248 C 
ATOM     20  C   UNL     1      33.776  -6.702 -26.402  0.00  0.00    +0.111 C 
ATOM     21  H   UNL     1      34.401  -8.643 -26.896  0.00  0.00    +0.150 HD
ENDBRANCH  14  19
ENDBRANCH   8  11
BRANCH   5  22
ATOM     22  C   UNL     1      34.673 -17.139 -22.839  0.00  0.00    +0.068 C 
BRANCH  22  24
ATOM     23  N   UNL     1      35.482 -21.572 -19.415  0.00  0.00    -0.248 NA
ATOM     24  C   UNL     1      34.876 -18.309 -21.936  0.00  0.00    -0.038 C 
ATOM     25  C   UNL     1      33.780 -19.005 -21.436  0.00  0.00    +0.050 C 
ATOM     26  C   UNL     1      33.967 -20.108 -20.585  0.00  0.00    -0.004 C 
ATOM     27  C   UNL     1      36.160 -18.709 -21.589  0.00  0.00    -0.028 C 
ATOM     28  C   UNL     1      35.268 -20.521 -20.228  0.00  0.00    +0.060 C 
ATOM     29  C   UNL     1      36.346 -19.806 -20.743  0.00  0.00    +0.071 C 
ATOM     30  C   UNL     1      32.881 -20.828 -20.068  0.00  0.00    -0.001 C 
ATOM     31  C   UNL     1      33.099 -21.912 -19.229  0.00  0.00    +0.020 C 
ATOM     32  C   UNL     1      34.407 -22.240 -18.937  0.00  0.00    +0.098 C 
ENDBRANCH  22  24
ENDBRANCH   5  22
TORSDOF 4
ENDMDL
MODEL 3
REMARK VINA RESULT:     -12.6      3.096      8.425
REMARK  Name = 25145656
REMARK  4 active torsions:
REMARK  status: ('A' for Active; 'I' for Inactive)
REMARK    1  A    between atoms: C_5  and  C_22
REMARK    2  A    between atoms: C_8  and  C_11
REMARK    3  A    between atoms: C_14  and  C_19
REMARK    4  A    between atoms: C_22  and  C_24
REMARK                            x       y       z     vdW  Elec       q    Type
REMARK                         _______ _______ _______ _____ _____    ______ ____
ROOT
ATOM      1  N   UNL     1      33.022 -14.562 -26.279  0.00  0.00    -0.134 N 
ATOM      2  N   UNL     1      33.653 -15.183 -25.258  0.00  0.00    -0.168 NA
ATOM      3  N   UNL     1      31.730 -14.249 -28.055  0.00  0.00    -0.178 NA
ATOM      4  N   UNL     1      31.944 -16.485 -27.155  0.00  0.00    -0.200 NA
ATOM      5  C   UNL     1      33.095 -13.227 -26.571  0.00  0.00    +0.086 C 
ATOM      6  C   UNL     1      32.184 -15.152 -27.205  0.00  0.00    +0.114 C 
ATOM      7  C   UNL     1      32.290 -13.059 -27.670  0.00  0.00    +0.124 C 
ATOM      8  C   UNL     1      33.418 -16.458 -25.180  0.00  0.00    +0.103 C 
ATOM      9  C   UNL     1      32.529 -17.130 -26.199  0.00  0.00    +0.184 C 
ENDROOT
BRANCH   8  11
ATOM     10  F   UNL     1      35.256 -16.824 -20.704  0.00  0.00    -0.204 F 
ATOM     11  C   UNL     1      34.028 -17.263 -24.096  0.00  0.00    +0.019 C 
ATOM     12  C   UNL     1      34.364 -16.659 -22.885  0.00  0.00    +0.031 C 
ATOM     13  C   UNL     1      34.265 -18.624 -24.287  0.00  0.00    +0.002 C 
ATOM     14  C   UNL     1      35.176 -18.777 -22.054  0.00  0.00    +0.081 C 
ATOM     15  C   UNL     1      34.938 -17.416 -21.864  0.00  0.00    +0.144 C 
ATOM     16  C   UNL     1      34.840 -19.381 -23.266  0.00  0.00    +0.007 C 
BRANCH  14  19
ATOM     17  O   UNL     1      36.925 -19.325 -20.591  0.00  0.00    -0.270 OA
ATOM     18  N   UNL     1      34.988 -20.589 -20.442  0.00  0.00    -0.299 N 
ATOM     19  C   UNL     1      35.774 -19.570 -20.992  0.00  0.00    +0.248 C 
ATOM     20  C   UNL     1      35.430 -21.447 -19.365  0.00  0.00    +0.111 C 
ATOM     21  H   UNL     1      34.084 -20.730 -20.807  0.00  0.00    +0.150 HD
ENDBRANCH  14  19
ENDBRANCH   8  11
BRANCH   5  22
ATOM     22  C   UNL     1      33.925 -12.242 -25.773  0.00  0.00    +0.068 C 
BRANCH  22  24
ATOM     23  N   UNL     1      31.186  -9.934 -21.392  0.00  0.00    -0.248 NA
ATOM     24  C   UNL     1      33.203 -11.643 -24.614  0.00  0.00    -0.038 C 
ATOM     25  C   UNL     1      32.883 -12.425 -23.508  0.00  0.00    +0.050 C 
ATOM     26  C   UNL     1      32.204 -11.865 -22.414  0.00  0.00    -0.004 C 
ATOM     27  C   UNL     1      32.846 -10.300 -24.631  0.00  0.00    -0.028 C 
ATOM     28  C   UNL     1      31.838 -10.502 -22.424  0.00  0.00    +0.060 C 
ATOM     29  C   UNL     1      32.170  -9.743 -23.543  0.00  0.00    +0.071 C 
ATOM     30  C   UNL     1      31.870 -12.629 -21.288  0.00  0.00    -0.001 C 
ATOM     31  C   UNL     1      31.198 -12.045 -20.222  0.00  0.00    +0.020 C 
ATOM     32  C   UNL     1      30.882 -10.707 -20.324  0.00  0.00    +0.098 C 
ENDBRANCH  22  24
ENDBRANCH   5  22
TORSDOF 4
ENDMDL
MODEL 4
REMARK VINA RESULT:     -12.5      3.561     10.256
REMARK  Name = 25145656
REMARK  4 active torsions:
REMARK  status: ('A' for Active; 'I' for Inactive)
REMARK    1  A    between atoms: C_5  and  C_22
REMARK    2  A    between atoms: C_8  and  C_11
REMARK    3  A    between atoms: C_14  and  C_19
REMARK    4  A    between atoms: C_22  and  C_24
REMARK                            x       y       z     vdW  Elec       q    Type
REMARK                         _______ _______ _______ _____ _____    ______ ____
ROOT
ATOM      1  N   UNL     1      33.145 -14.429 -25.806  0.00  0.00    -0.134 N 
ATOM      2  N   UNL     1      33.625 -15.102 -24.737  0.00  0.00    -0.168 NA
ATOM      3  N   UNL     1      32.324 -14.032 -27.828  0.00  0.00    -0.178 NA
ATOM      4  N   UNL     1      32.856 -16.313 -27.218  0.00  0.00    -0.200 NA
ATOM      5  C   UNL     1      32.950 -13.076 -25.878  0.00  0.00    +0.086 C 
ATOM      6  C   UNL     1      32.754 -14.977 -27.012  0.00  0.00    +0.114 C 
ATOM      7  C   UNL     1      32.443 -12.856 -27.134  0.00  0.00    +0.124 C 
ATOM      8  C   UNL     1      33.708 -16.387 -24.907  0.00  0.00    +0.103 C 
ATOM      9  C   UNL     1      33.316 -17.004 -26.227  0.00  0.00    +0.184 C 
ENDROOT
BRANCH   8  11
ATOM     10  F   UNL     1      35.253 -16.967 -20.343  0.00  0.00    -0.204 F 
ATOM     11  C   UNL     1      34.199 -17.253 -23.809  0.00  0.00    +0.019 C 
ATOM     12  C   UNL     1      34.503 -16.697 -22.567  0.00  0.00    +0.031 C 
ATOM     13  C   UNL     1      34.356 -18.623 -24.019  0.00  0.00    +0.002 C 
ATOM     14  C   UNL     1      35.122 -18.882 -21.742  0.00  0.00    +0.081 C 
ATOM     15  C   UNL     1      34.964 -17.512 -21.534  0.00  0.00    +0.144 C 
ATOM     16  C   UNL     1      34.818 -19.437 -22.985  0.00  0.00    +0.007 C 
BRANCH  14  19
ATOM     17  O   UNL     1      36.710 -19.528 -20.142  0.00  0.00    -0.270 OA
ATOM     18  N   UNL     1      34.755 -20.768 -20.249  0.00  0.00    -0.299 N 
ATOM     19  C   UNL     1      35.602 -19.735 -20.667  0.00  0.00    +0.248 C 
ATOM     20  C   UNL     1      35.078 -21.683 -19.179  0.00  0.00    +0.111 C 
ATOM     21  H   UNL     1      33.891 -20.877 -20.709  0.00  0.00    +0.150 HD
ENDBRANCH  14  19
ENDBRANCH   8  11
BRANCH   5  22
ATOM     22  C   UNL     1      33.267 -12.125 -24.741  0.00  0.00    +0.068 C 
BRANCH  22  24
ATOM     23  N   UNL     1      34.761  -6.938 -26.442  0.00  0.00    -0.248 NA
ATOM     24  C   UNL     1      33.651 -10.755 -25.188  0.00  0.00    -0.038 C 
ATOM     25  C   UNL     1      32.692  -9.748 -25.263  0.00  0.00    +0.050 C 
ATOM     26  C   UNL     1      33.050  -8.457 -25.683  0.00  0.00    -0.004 C 
ATOM     27  C   UNL     1      34.967 -10.475 -25.533  0.00  0.00    -0.028 C 
ATOM     28  C   UNL     1      34.385  -8.165 -26.035  0.00  0.00    +0.060 C 
ATOM     29  C   UNL     1      35.322  -9.191 -25.951  0.00  0.00    +0.071 C 
ATOM     30  C   UNL     1      32.106  -7.424 -25.766  0.00  0.00    -0.001 C 
ATOM     31  C   UNL     1      32.490  -6.158 -26.186  0.00  0.00    +0.020 C 
ATOM     32  C   UNL     1      33.818  -5.970 -26.508  0.00  0.00    +0.098 C 
ENDBRANCH  22  24
ENDBRANCH   5  22
TORSDOF 4
ENDMDL
MODEL 5
REMARK VINA RESULT:     -12.4      3.708      9.814
REMARK  Name = 25145656
REMARK  4 active torsions:
REMARK  status: ('A' for Active; 'I' for Inactive)
REMARK    1  A    between atoms: C_5  and  C_22
REMARK    2  A    between atoms: C_8  and  C_11
REMARK    3  A    between atoms: C_14  and  C_19
REMARK    4  A    between atoms: C_22  and  C_24
REMARK                            x       y       z     vdW  Elec       q    Type
REMARK                         _______ _______ _______ _____ _____    ______ ____
ROOT
ATOM      1  N   UNL     1      33.705 -15.959 -24.513  0.00  0.00    -0.134 N 
ATOM      2  N   UNL     1      33.965 -16.670 -23.395  0.00  0.00    -0.168 NA
ATOM      3  N   UNL     1      33.392 -15.474 -26.656  0.00  0.00    -0.178 NA
ATOM      4  N   UNL     1      33.999 -17.738 -26.054  0.00  0.00    -0.200 NA
ATOM      5  C   UNL     1      33.386 -14.628 -24.560  0.00  0.00    +0.086 C 
ATOM      6  C   UNL     1      33.700 -16.439 -25.808  0.00  0.00    +0.114 C 
ATOM      7  C   UNL     1      33.198 -14.353 -25.891  0.00  0.00    +0.124 C 
ATOM      8  C   UNL     1      34.232 -17.924 -23.608  0.00  0.00    +0.103 C 
ATOM      9  C   UNL     1      34.262 -18.464 -25.017  0.00  0.00    +0.184 C 
ENDROOT
BRANCH   8  11
ATOM     10  F   UNL     1      32.725 -20.977 -20.149  0.00  0.00    -0.204 F 
ATOM     11  C   UNL     1      34.516 -18.828 -22.470  0.00  0.00    +0.019 C 
ATOM     12  C   UNL     1      33.471 -19.492 -21.829  0.00  0.00    +0.031 C 
ATOM     13  C   UNL     1      35.830 -19.016 -22.040  0.00  0.00    +0.002 C 
ATOM     14  C   UNL     1      35.051 -20.532 -20.327  0.00  0.00    +0.081 C 
ATOM     15  C   UNL     1      33.738 -20.344 -20.758  0.00  0.00    +0.144 C 
ATOM     16  C   UNL     1      36.097 -19.868 -20.968  0.00  0.00    +0.007 C 
BRANCH  14  19
ATOM     17  O   UNL     1      34.755 -22.515 -19.111  0.00  0.00    -0.270 OA
ATOM     18  N   UNL     1      36.295 -20.991 -18.287  0.00  0.00    -0.299 N 
ATOM     19  C   UNL     1      35.335 -21.420 -19.211  0.00  0.00    +0.248 C 
ATOM     20  C   UNL     1      36.704 -21.770 -17.139  0.00  0.00    +0.111 C 
ATOM     21  H   UNL     1      36.716 -20.112 -18.425  0.00  0.00    +0.150 HD
ENDBRANCH  14  19
ENDBRANCH   8  11
BRANCH   5  22
ATOM     22  C   UNL     1      33.293 -13.749 -23.329  0.00  0.00    +0.068 C 
BRANCH  22  24
ATOM     23  N   UNL     1      33.290  -8.200 -24.437  0.00  0.00    -0.248 NA
ATOM     24  C   UNL     1      33.300 -12.288 -23.627  0.00  0.00    -0.038 C 
ATOM     25  C   UNL     1      34.256 -11.753 -24.485  0.00  0.00    +0.050 C 
ATOM     26  C   UNL     1      34.266 -10.378 -24.769  0.00  0.00    -0.004 C 
ATOM     27  C   UNL     1      32.352 -11.452 -23.050  0.00  0.00    -0.028 C 
ATOM     28  C   UNL     1      33.307  -9.522 -24.187  0.00  0.00    +0.060 C 
ATOM     29  C   UNL     1      32.363 -10.084 -23.332  0.00  0.00    +0.071 C 
ATOM     30  C   UNL     1      35.217  -9.813 -25.631  0.00  0.00    -0.001 C 
ATOM     31  C   UNL     1      35.201  -8.450 -25.890  0.00  0.00    +0.020 C 
ATOM     32  C   UNL     1      34.225  -7.695 -25.275  0.00  0.00    +0.098 C 
ENDBRANCH  22  24
ENDBRANCH   5  22
TORSDOF 4
ENDMDL
MODEL 6
REMARK VINA RESULT:     -12.2      3.813      5.828
REMARK  Name = 25145656
REMARK  4 active torsions:
REMARK  status: ('A' for Active; 'I' for Inactive)
REMARK    1  A    between atoms: C_5  and  C_22
REMARK    2  A    between atoms: C_8  and  C_11
REMARK    3  A    between atoms: C_14  and  C_19
REMARK    4  A    between atoms: C_22  and  C_24
REMARK                            x       y       z     vdW  Elec       q    Type
REMARK                         _______ _______ _______ _____ _____    ______ ____
ROOT
ATOM      1  N   UNL     1      35.088 -20.304 -20.592  0.00  0.00    -0.134 N 
ATOM      2  N   UNL     1      34.360 -19.792 -21.608  0.00  0.00    -0.168 NA
ATOM      3  N   UNL     1      36.796 -20.676 -19.225  0.00  0.00    -0.178 NA
ATOM      4  N   UNL     1      37.096 -19.134 -21.066  0.00  0.00    -0.200 NA
ATOM      5  C   UNL     1      34.645 -21.210 -19.667  0.00  0.00    +0.086 C 
ATOM      6  C   UNL     1      36.403 -20.004 -20.292  0.00  0.00    +0.114 C 
ATOM      7  C   UNL     1      35.716 -21.423 -18.835  0.00  0.00    +0.124 C 
ATOM      8  C   UNL     1      35.001 -18.938 -22.348  0.00  0.00    +0.103 C 
ATOM      9  C   UNL     1      36.447 -18.618 -22.057  0.00  0.00    +0.184 C 
ENDROOT
BRANCH   8  11
ATOM     10  F   UNL     1      31.983 -19.112 -26.145  0.00  0.00    -0.204 F 
ATOM     11  C   UNL     1      34.319 -18.281 -23.487  0.00  0.00    +0.019 C 
ATOM     12  C   UNL     1      33.455 -19.015 -24.299  0.00  0.00    +0.031 C 
ATOM     13  C   UNL     1      34.540 -16.928 -23.747  0.00  0.00    +0.002 C 
ATOM     14  C   UNL     1      33.034 -17.044 -25.632  0.00  0.00    +0.081 C 
ATOM     15  C   UNL     1      32.812 -18.396 -25.371  0.00  0.00    +0.144 C 
ATOM     16  C   UNL     1      33.898 -16.310 -24.819  0.00  0.00    +0.007 C 
BRANCH  14  19
ATOM     17  O   UNL     1      31.995 -17.056 -27.734  0.00  0.00    -0.270 OA
ATOM     18  N   UNL     1      32.144 -15.017 -26.642  0.00  0.00    -0.299 N 
ATOM     19  C   UNL     1      32.365 -16.395 -26.748  0.00  0.00    +0.248 C 
ATOM     20  C   UNL     1      31.472 -14.235 -27.655  0.00  0.00    +0.111 C 
ATOM     21  H   UNL     1      32.463 -14.555 -25.833  0.00  0.00    +0.150 HD
ENDBRANCH  14  19
ENDBRANCH   8  11
BRANCH   5  22
ATOM     22  C   UNL     1      33.242 -21.784 -19.666  0.00  0.00    +0.068 C 
BRANCH  22  24
ATOM     23  N   UNL     1      31.726 -24.058 -14.711  0.00  0.00    -0.248 NA
ATOM     24  C   UNL     1      32.833 -22.380 -18.362  0.00  0.00    -0.038 C 
ATOM     25  C   UNL     1      31.511 -22.294 -17.937  0.00  0.00    +0.050 C 
ATOM     26  C   UNL     1      31.121 -22.855 -16.710  0.00  0.00    -0.004 C 
ATOM     27  C   UNL     1      33.770 -23.025 -17.564  0.00  0.00    -0.028 C 
ATOM     28  C   UNL     1      32.066 -23.511 -15.893  0.00  0.00    +0.060 C 
ATOM     29  C   UNL     1      33.382 -23.582 -16.343  0.00  0.00    +0.071 C 
ATOM     30  C   UNL     1      29.796 -22.784 -16.258  0.00  0.00    -0.001 C 
ATOM     31  C   UNL     1      29.443 -23.347 -15.039  0.00  0.00    +0.020 C 
ATOM     32  C   UNL     1      30.436 -23.968 -14.311  0.00  0.00    +0.098 C 
ENDBRANCH  22  24
ENDBRANCH   5  22
TORSDOF 4
ENDMDL
MODEL 7
REMARK VINA RESULT:     -12.1      3.302      9.326
REMARK  Name = 25145656
REMARK  4 active torsions:
REMARK  status: ('A' for Active; 'I' for Inactive)
REMARK    1  A    between atoms: C_5  and  C_22
REMARK    2  A    between atoms: C_8  and  C_11
REMARK    3  A    between atoms: C_14  and  C_19
REMARK    4  A    between atoms: C_22  and  C_24
REMARK                            x       y       z     vdW  Elec       q    Type
REMARK                         _______ _______ _______ _____ _____    ______ ____
ROOT
ATOM      1  N   UNL     1      33.231 -13.364 -25.871  0.00  0.00    -0.134 N 
ATOM      2  N   UNL     1      33.815 -14.149 -24.939  0.00  0.00    -0.168 NA
ATOM      3  N   UNL     1      32.000 -12.749 -27.611  0.00  0.00    -0.178 NA
ATOM      4  N   UNL     1      32.124 -15.100 -27.049  0.00  0.00    -0.200 NA
ATOM      5  C   UNL     1      33.350 -12.003 -25.960  0.00  0.00    +0.086 C 
ATOM      6  C   UNL     1      32.403 -13.782 -26.894  0.00  0.00    +0.114 C 
ATOM      7  C   UNL     1      32.582 -11.648 -27.040  0.00  0.00    +0.124 C 
ATOM      8  C   UNL     1      33.540 -15.413 -25.057  0.00  0.00    +0.103 C 
ATOM      9  C   UNL     1      32.663 -15.897 -26.185  0.00  0.00    +0.184 C 
ENDROOT
BRANCH   8  11
ATOM     10  F   UNL     1      34.854 -19.938 -23.892  0.00  0.00    -0.204 F 
ATOM     11  C   UNL     1      34.096 -16.388 -24.090  0.00  0.00    +0.019 C 
ATOM     12  C   UNL     1      34.218 -17.731 -24.447  0.00  0.00    +0.031 C 
ATOM     13  C   UNL     1      34.498 -15.964 -22.824  0.00  0.00    +0.002 C 
ATOM     14  C   UNL     1      35.143 -18.226 -22.271  0.00  0.00    +0.081 C 
ATOM     15  C   UNL     1      34.741 -18.649 -23.538  0.00  0.00    +0.144 C 
ATOM     16  C   UNL     1      35.021 -16.883 -21.914  0.00  0.00    +0.007 C 
BRANCH  14  19
ATOM     17  O   UNL     1      36.891 -19.137 -21.001  0.00  0.00    -0.270 OA
ATOM     18  N   UNL     1      34.802 -20.115 -20.776  0.00  0.00    -0.299 N 
ATOM     19  C   UNL     1      35.690 -19.180 -21.320  0.00  0.00    +0.248 C 
ATOM     20  C   UNL     1      35.187 -21.111 -19.802  0.00  0.00    +0.111 C 
ATOM     21  H   UNL     1      33.863 -20.094 -21.072  0.00  0.00    +0.150 HD
ENDBRANCH  14  19
ENDBRANCH   8  11
BRANCH   5  22
ATOM     22  C   UNL     1      34.185 -11.174 -25.004  0.00  0.00    +0.068 C 
BRANCH  22  24
ATOM     23  N   UNL     1      31.188  -8.830 -20.816  0.00  0.00    -0.248 NA
ATOM     24  C   UNL     1      33.400 -10.547 -23.902  0.00  0.00    -0.038 C 
ATOM     25  C   UNL     1      33.585  -9.205 -23.586  0.00  0.00    +0.050 C 
ATOM     26  C   UNL     1      32.848  -8.610 -22.549  0.00  0.00    -0.004 C 
ATOM     27  C   UNL     1      32.478 -11.300 -23.184  0.00  0.00    -0.028 C 
ATOM     28  C   UNL     1      31.910  -9.368 -21.815  0.00  0.00    +0.060 C 
ATOM     29  C   UNL     1      31.745 -10.709 -22.153  0.00  0.00    +0.071 C 
ATOM     30  C   UNL     1      33.014  -7.261 -22.210  0.00  0.00    -0.001 C 
ATOM     31  C   UNL     1      32.270  -6.703 -21.179  0.00  0.00    +0.020 C 
ATOM     32  C   UNL     1      31.378  -7.523 -20.520  0.00  0.00    +0.098 C 
ENDBRANCH  22  24
ENDBRANCH   5  22
TORSDOF 4
ENDMDL
MODEL 8
REMARK VINA RESULT:     -11.8      3.225     10.033
REMARK  Name = 25145656
REMARK  4 active torsions:
REMARK  status: ('A' for Active; 'I' for Inactive)
REMARK    1  A    between atoms: C_5  and  C_22
REMARK    2  A    between atoms: C_8  and  C_11
REMARK    3  A    between atoms: C_14  and  C_19
REMARK    4  A    between atoms: C_22  and  C_24
REMARK                            x       y       z     vdW  Elec       q    Type
REMARK                         _______ _______ _______ _____ _____    ______ ____
ROOT
ATOM      1  N   UNL     1      33.326 -13.426 -25.400  0.00  0.00    -0.134 N 
ATOM      2  N   UNL     1      33.844 -14.241 -24.456  0.00  0.00    -0.168 NA
ATOM      3  N   UNL     1      32.312 -12.760 -27.258  0.00  0.00    -0.178 NA
ATOM      4  N   UNL     1      32.602 -15.133 -26.879  0.00  0.00    -0.200 NA
ATOM      5  C   UNL     1      33.310 -12.058 -25.356  0.00  0.00    +0.086 C 
ATOM      6  C   UNL     1      32.711 -13.817 -26.574  0.00  0.00    +0.114 C 
ATOM      7  C   UNL     1      32.679 -11.671 -26.512  0.00  0.00    +0.124 C 
ATOM      8  C   UNL     1      33.729 -15.508 -24.720  0.00  0.00    +0.103 C 
ATOM      9  C   UNL     1      33.088 -15.958 -26.010  0.00  0.00    +0.184 C 
ENDROOT
BRANCH   8  11
ATOM     10  F   UNL     1      35.197 -16.749 -20.264  0.00  0.00    -0.204 F 
ATOM     11  C   UNL     1      34.235 -16.517 -23.761  0.00  0.00    +0.019 C 
ATOM     12  C   UNL     1      34.485 -16.157 -22.437  0.00  0.00    +0.031 C 
ATOM     13  C   UNL     1      34.460 -17.828 -24.182  0.00  0.00    +0.002 C 
ATOM     14  C   UNL     1      35.187 -18.418 -21.954  0.00  0.00    +0.081 C 
ATOM     15  C   UNL     1      34.961 -17.107 -21.534  0.00  0.00    +0.144 C 
ATOM     16  C   UNL     1      34.936 -18.778 -23.278  0.00  0.00    +0.007 C 
BRANCH  14  19
ATOM     17  O   UNL     1      36.859 -19.372 -20.616  0.00  0.00    -0.270 OA
ATOM     18  N   UNL     1      34.772 -20.381 -20.579  0.00  0.00    -0.299 N 
ATOM     19  C   UNL     1      35.682 -19.412 -21.016  0.00  0.00    +0.248 C 
ATOM     20  C   UNL     1      35.105 -21.420 -19.631  0.00  0.00    +0.111 C 
ATOM     21  H   UNL     1      33.855 -20.355 -20.936  0.00  0.00    +0.150 HD
ENDBRANCH  14  19
ENDBRANCH   8  11
BRANCH   5  22
ATOM     22  C   UNL     1      33.898 -11.253 -24.214  0.00  0.00    +0.068 C 
BRANCH  22  24
ATOM     23  N   UNL     1      30.624  -6.964 -22.510  0.00  0.00    -0.248 NA
ATOM     24  C   UNL     1      33.041 -10.116 -23.771  0.00  0.00    -0.038 C 
ATOM     25  C   UNL     1      33.267  -8.835 -24.264  0.00  0.00    +0.050 C 
ATOM     26  C   UNL     1      32.461  -7.761 -23.850  0.00  0.00    -0.004 C 
ATOM     27  C   UNL     1      32.011 -10.330 -22.863  0.00  0.00    -0.028 C 
ATOM     28  C   UNL     1      31.414  -7.970 -22.928  0.00  0.00    +0.060 C 
ATOM     29  C   UNL     1      31.210  -9.262 -22.451  0.00  0.00    +0.071 C 
ATOM     30  C   UNL     1      32.666  -6.461 -24.331  0.00  0.00    -0.001 C 
ATOM     31  C   UNL     1      31.853  -5.421 -23.901  0.00  0.00    +0.020 C 
ATOM     32  C   UNL     1      30.855  -5.724 -22.998  0.00  0.00    +0.098 C 
ENDBRANCH  22  24
ENDBRANCH   5  22
TORSDOF 4
ENDMDL
MODEL 9
REMARK VINA RESULT:     -11.7      3.698      5.701
REMARK  Name = 25145656
REMARK  4 active torsions:
REMARK  status: ('A' for Active; 'I' for Inactive)
REMARK    1  A    between atoms: C_5  and  C_22
REMARK    2  A    between atoms: C_8  and  C_11
REMARK    3  A    between atoms: C_14  and  C_19
REMARK    4  A    between atoms: C_22  and  C_24
REMARK                            x       y       z     vdW  Elec       q    Type
REMARK                         _______ _______ _______ _____ _____    ______ ____
ROOT
ATOM      1  N   UNL     1      35.094 -20.411 -20.416  0.00  0.00    -0.134 N 
ATOM      2  N   UNL     1      34.394 -19.883 -21.444  0.00  0.00    -0.168 NA
ATOM      3  N   UNL     1      36.767 -20.812 -19.015  0.00  0.00    -0.178 NA
ATOM      4  N   UNL     1      37.124 -19.258 -20.836  0.00  0.00    -0.200 NA
ATOM      5  C   UNL     1      34.621 -21.320 -19.508  0.00  0.00    +0.086 C 
ATOM      6  C   UNL     1      36.405 -20.128 -20.085  0.00  0.00    +0.114 C 
ATOM      7  C   UNL     1      35.671 -21.551 -18.655  0.00  0.00    +0.124 C 
ATOM      8  C   UNL     1      35.060 -19.030 -22.162  0.00  0.00    +0.103 C 
ATOM      9  C   UNL     1      36.503 -18.727 -21.837  0.00  0.00    +0.184 C 
ENDROOT
BRANCH   8  11
ATOM     10  F   UNL     1      33.774 -14.990 -24.524  0.00  0.00    -0.204 F 
ATOM     11  C   UNL     1      34.410 -18.356 -23.311  0.00  0.00    +0.019 C 
ATOM     12  C   UNL     1      34.394 -16.964 -23.383  0.00  0.00    +0.031 C 
ATOM     13  C   UNL     1      33.815 -19.115 -24.318  0.00  0.00    +0.002 C 
ATOM     14  C   UNL     1      33.187 -17.087 -25.472  0.00  0.00    +0.081 C 
ATOM     15  C   UNL     1      33.783 -16.330 -24.465  0.00  0.00    +0.144 C 
ATOM     16  C   UNL     1      33.203 -18.480 -25.399  0.00  0.00    +0.007 C 
BRANCH  14  19
ATOM     17  O   UNL     1      33.234 -15.907 -27.498  0.00  0.00    -0.270 OA
ATOM     18  N   UNL     1      31.150 -16.440 -26.635  0.00  0.00    -0.299 N 
ATOM     19  C   UNL     1      32.549 -16.430 -26.602  0.00  0.00    +0.248 C 
ATOM     20  C   UNL     1      30.372 -15.851 -27.701  0.00  0.00    +0.111 C 
ATOM     21  H   UNL     1      30.669 -16.871 -25.892  0.00  0.00    +0.150 HD
ENDBRANCH  14  19
ENDBRANCH   8  11
BRANCH   5  22
ATOM     22  C   UNL     1      33.213 -21.879 -19.543  0.00  0.00    +0.068 C 
BRANCH  22  24
ATOM     23  N   UNL     1      31.379 -23.875 -14.576  0.00  0.00    -0.248 NA
ATOM     24  C   UNL     1      32.739 -22.408 -18.232  0.00  0.00    -0.038 C 
ATOM     25  C   UNL     1      33.639 -22.997 -17.349  0.00  0.00    +0.050 C 
ATOM     26  C   UNL     1      33.197 -23.496 -16.112  0.00  0.00    -0.004 C 
ATOM     27  C   UNL     1      31.397 -22.316 -17.885  0.00  0.00    -0.028 C 
ATOM     28  C   UNL     1      31.836 -23.407 -15.752  0.00  0.00    +0.060 C 
ATOM     29  C   UNL     1      30.958 -22.813 -16.655  0.00  0.00    +0.071 C 
ATOM     30  C   UNL     1      34.081 -24.093 -15.203  0.00  0.00    -0.001 C 
ATOM     31  C   UNL     1      33.613 -24.578 -13.990  0.00  0.00    +0.020 C 
ATOM     32  C   UNL     1      32.266 -24.445 -13.727  0.00  0.00    +0.098 C 
ENDBRANCH  22  24
ENDBRANCH   5  22
TORSDOF 4
ENDMDL
