MODEL 1
REMARK VINA RESULT:     -11.7      0.000      0.000
REMARK  Name = 2765355
REMARK  2 active torsions:
REMARK  status: ('A' for Active; 'I' for Inactive)
REMARK    1  A    between atoms: C_4  and  C_20
REMARK    2  A    between atoms: C_6  and  C_13
REMARK                            x       y       z     vdW  Elec       q    Type
REMARK                         _______ _______ _______ _____ _____    ______ ____
ROOT
ATOM      1  O   UNL     1      31.430 -22.465 -17.985  0.00  0.00    -0.353 OA
ATOM      2  N   UNL     1      30.931 -23.174 -16.900  0.00  0.00    -0.077 NA
ATOM      3  C   UNL     1      33.182 -22.984 -16.751  0.00  0.00    +0.058 A 
ATOM      4  C   UNL     1      32.781 -22.354 -17.890  0.00  0.00    +0.177 A 
ATOM      5  C   UNL     1      31.987 -23.499 -16.134  0.00  0.00    +0.123 A 
ATOM      6  C   UNL     1      34.527 -23.813 -15.079  0.00  0.00    +0.031 C 
ATOM      7  C   UNL     1      34.485 -23.096 -16.291  0.00  0.00    +0.007 C 
ATOM      8  C   UNL     1      32.055 -24.212 -14.924  0.00  0.00    +0.023 C 
ATOM      9  C   UNL     1      33.371 -24.346 -14.425  0.00  0.00    +0.004 C 
ENDROOT
BRANCH   6  13
ATOM     10  N   UNL     1      36.743 -24.601 -15.246  0.00  0.00    -0.338 NA
ATOM     11  N   UNL     1      38.289 -24.476 -13.402  0.00  0.00    -0.170 NA
ATOM     12  N   UNL     1      38.939 -25.399 -15.460  0.00  0.00    -0.293 N 
ATOM     13  C   UNL     1      35.819 -24.024 -14.454  0.00  0.00    +0.146 C 
ATOM     14  C   UNL     1      36.043 -23.649 -13.149  0.00  0.00    +0.055 C 
ATOM     15  C   UNL     1      37.312 -23.902 -12.669  0.00  0.00    +0.114 C 
ATOM     16  C   UNL     1      37.941 -24.795 -14.663  0.00  0.00    +0.141 C 
ATOM     17  H   UNL     1      38.740 -25.653 -16.390  0.00  0.00    +0.155 HD
ATOM     18  H   UNL     1      39.833 -25.565 -15.085  0.00  0.00    +0.155 HD
ENDBRANCH   6  13
BRANCH   4  20
ATOM     19 CL   UNL     1      35.418 -19.381 -22.323  0.00  0.00    -0.082 Cl
ATOM     20  C   UNL     1      33.417 -21.639 -18.959  0.00  0.00    +0.037 C 
ATOM     21  C   UNL     1      34.792 -21.768 -19.173  0.00  0.00    +0.004 C 
ATOM     22  C   UNL     1      32.665 -20.806 -19.794  0.00  0.00    +0.004 C 
ATOM     23  C   UNL     1      35.411 -21.071 -20.213  0.00  0.00    +0.011 C 
ATOM     24  C   UNL     1      33.283 -20.109 -20.832  0.00  0.00    +0.011 C 
ATOM     25  C   UNL     1      34.655 -20.241 -21.042  0.00  0.00    +0.058 C 
ENDBRANCH   4  20
TORSDOF 2
ENDMDL
MODEL 2
REMARK VINA RESULT:     -11.6      2.038      5.221
REMARK  Name = 2765355
REMARK  2 active torsions:
REMARK  status: ('A' for Active; 'I' for Inactive)
REMARK    1  A    between atoms: C_4  and  C_20
REMARK    2  A    between atoms: C_6  and  C_13
REMARK                            x       y       z     vdW  Elec       q    Type
REMARK                         _______ _______ _______ _____ _____    ______ ____
ROOT
ATOM      1  O   UNL     1      36.026 -22.562 -17.183  0.00  0.00    -0.353 OA
ATOM      2  N   UNL     1      36.062 -23.313 -16.016  0.00  0.00    -0.077 NA
ATOM      3  C   UNL     1      33.927 -23.056 -16.724  0.00  0.00    +0.058 A 
ATOM      4  C   UNL     1      34.743 -22.411 -17.603  0.00  0.00    +0.177 A 
ATOM      5  C   UNL     1      34.788 -23.626 -15.720  0.00  0.00    +0.123 A 
ATOM      6  C   UNL     1      32.031 -23.887 -15.719  0.00  0.00    +0.031 C 
ATOM      7  C   UNL     1      32.545 -23.140 -16.798  0.00  0.00    +0.007 C 
ATOM      8  C   UNL     1      34.251 -24.366 -14.653  0.00  0.00    +0.023 C 
ATOM      9  C   UNL     1      32.842 -24.473 -14.695  0.00  0.00    +0.004 C 
ENDROOT
BRANCH   6  13
ATOM     10  N   UNL     1      29.873 -23.248 -16.420  0.00  0.00    -0.338 NA
ATOM     11  N   UNL     1      27.885 -24.323 -15.584  0.00  0.00    -0.170 NA
ATOM     12  N   UNL     1      27.745 -22.576 -17.146  0.00  0.00    -0.293 N 
ATOM     13  C   UNL     1      30.595 -24.074 -15.641  0.00  0.00    +0.146 C 
ATOM     14  C   UNL     1      30.053 -25.036 -14.819  0.00  0.00    +0.055 C 
ATOM     15  C   UNL     1      28.675 -25.116 -14.831  0.00  0.00    +0.114 C 
ATOM     16  C   UNL     1      28.541 -23.425 -16.343  0.00  0.00    +0.141 C 
ATOM     17  H   UNL     1      28.171 -21.900 -17.721  0.00  0.00    +0.155 HD
ATOM     18  H   UNL     1      26.765 -22.662 -17.129  0.00  0.00    +0.155 HD
ENDBRANCH   6  13
BRANCH   4  20
ATOM     19 CL   UNL     1      34.044 -19.241 -22.594  0.00  0.00    -0.082 Cl
ATOM     20  C   UNL     1      34.575 -21.648 -18.807  0.00  0.00    +0.037 C 
ATOM     21  C   UNL     1      35.690 -21.153 -19.490  0.00  0.00    +0.004 C 
ATOM     22  C   UNL     1      33.294 -21.391 -19.305  0.00  0.00    +0.004 C 
ATOM     23  C   UNL     1      35.527 -20.411 -20.660  0.00  0.00    +0.011 C 
ATOM     24  C   UNL     1      33.130 -20.649 -20.474  0.00  0.00    +0.011 C 
ATOM     25  C   UNL     1      34.246 -20.158 -21.151  0.00  0.00    +0.058 C 
ENDBRANCH   4  20
TORSDOF 2
ENDMDL
MODEL 3
REMARK VINA RESULT:     -11.3      1.575      2.302
REMARK  Name = 2765355
REMARK  2 active torsions:
REMARK  status: ('A' for Active; 'I' for Inactive)
REMARK    1  A    between atoms: C_4  and  C_20
REMARK    2  A    between atoms: C_6  and  C_13
REMARK                            x       y       z     vdW  Elec       q    Type
REMARK                         _______ _______ _______ _____ _____    ______ ____
ROOT
ATOM      1  O   UNL     1      30.796 -22.749 -17.546  0.00  0.00    -0.353 OA
ATOM      2  N   UNL     1      30.137 -23.395 -16.508  0.00  0.00    -0.077 NA
ATOM      3  C   UNL     1      32.369 -23.360 -16.128  0.00  0.00    +0.058 A 
ATOM      4  C   UNL     1      32.134 -22.731 -17.313  0.00  0.00    +0.177 A 
ATOM      5  C   UNL     1      31.083 -23.775 -15.630  0.00  0.00    +0.123 A 
ATOM      6  C   UNL     1      33.471 -24.239 -14.310  0.00  0.00    +0.031 C 
ATOM      7  C   UNL     1      33.606 -23.551 -15.532  0.00  0.00    +0.007 C 
ATOM      8  C   UNL     1      30.974 -24.461 -14.408  0.00  0.00    +0.023 C 
ATOM      9  C   UNL     1      32.218 -24.675 -13.772  0.00  0.00    +0.004 C 
ENDROOT
BRANCH   6  13
ATOM     10  N   UNL     1      34.630 -24.149 -12.259  0.00  0.00    -0.338 NA
ATOM     11  N   UNL     1      36.869 -25.006 -12.014  0.00  0.00    -0.170 NA
ATOM     12  N   UNL     1      35.744 -24.037 -10.196  0.00  0.00    -0.293 N 
ATOM     13  C   UNL     1      34.674 -24.525 -13.551  0.00  0.00    +0.146 C 
ATOM     14  C   UNL     1      35.755 -25.136 -14.144  0.00  0.00    +0.055 C 
ATOM     15  C   UNL     1      36.839 -25.354 -13.317  0.00  0.00    +0.114 C 
ATOM     16  C   UNL     1      35.748 -24.416 -11.558  0.00  0.00    +0.141 C 
ATOM     17  H   UNL     1      34.950 -23.602  -9.809  0.00  0.00    +0.155 HD
ATOM     18  H   UNL     1      36.535 -24.208  -9.637  0.00  0.00    +0.155 HD
ENDBRANCH   6  13
BRANCH   4  20
ATOM     19 CL   UNL     1      35.423 -20.066 -21.499  0.00  0.00    -0.082 Cl
ATOM     20  C   UNL     1      32.927 -22.087 -18.321  0.00  0.00    +0.037 C 
ATOM     21  C   UNL     1      32.325 -21.238 -19.255  0.00  0.00    +0.004 C 
ATOM     22  C   UNL     1      34.306 -22.307 -18.379  0.00  0.00    +0.004 C 
ATOM     23  C   UNL     1      33.096 -20.613 -20.236  0.00  0.00    +0.011 C 
ATOM     24  C   UNL     1      35.077 -21.682 -19.359  0.00  0.00    +0.011 C 
ATOM     25  C   UNL     1      34.472 -20.836 -20.288  0.00  0.00    +0.058 C 
ENDBRANCH   4  20
TORSDOF 2
ENDMDL
MODEL 4
REMARK VINA RESULT:     -11.0      2.307      5.072
REMARK  Name = 2765355
REMARK  2 active torsions:
REMARK  status: ('A' for Active; 'I' for Inactive)
REMARK    1  A    between atoms: C_4  and  C_20
REMARK    2  A    between atoms: C_6  and  C_13
REMARK                            x       y       z     vdW  Elec       q    Type
REMARK                         _______ _______ _______ _____ _____    ______ ____
ROOT
ATOM      1  O   UNL     1      36.161 -21.909 -18.154  0.00  0.00    -0.353 OA
ATOM      2  N   UNL     1      36.312 -22.649 -16.989  0.00  0.00    -0.077 NA
ATOM      3  C   UNL     1      34.120 -22.452 -17.522  0.00  0.00    +0.058 A 
ATOM      4  C   UNL     1      34.845 -21.794 -18.469  0.00  0.00    +0.177 A 
ATOM      5  C   UNL     1      35.074 -22.991 -16.587  0.00  0.00    +0.123 A 
ATOM      6  C   UNL     1      32.335 -23.322 -16.360  0.00  0.00    +0.031 C 
ATOM      7  C   UNL     1      32.739 -22.571 -17.482  0.00  0.00    +0.007 C 
ATOM      8  C   UNL     1      34.646 -23.736 -15.475  0.00  0.00    +0.023 C 
ATOM      9  C   UNL     1      33.241 -23.878 -15.402  0.00  0.00    +0.004 C 
ENDROOT
BRANCH   6  13
ATOM     10  N   UNL     1      30.608 -24.669 -15.489  0.00  0.00    -0.338 NA
ATOM     11  N   UNL     1      28.282 -24.081 -15.725  0.00  0.00    -0.170 NA
ATOM     12  N   UNL     1      28.922 -26.043 -14.606  0.00  0.00    -0.293 N 
ATOM     13  C   UNL     1      30.915 -23.545 -16.163  0.00  0.00    +0.146 C 
ATOM     14  C   UNL     1      29.986 -22.650 -16.644  0.00  0.00    +0.055 C 
ATOM     15  C   UNL     1      28.668 -22.974 -16.393  0.00  0.00    +0.114 C 
ATOM     16  C   UNL     1      29.289 -24.873 -15.308  0.00  0.00    +0.141 C 
ATOM     17  H   UNL     1      29.617 -26.658 -14.277  0.00  0.00    +0.155 HD
ATOM     18  H   UNL     1      27.972 -26.241 -14.445  0.00  0.00    +0.155 HD
ENDBRANCH   6  13
BRANCH   4  20
ATOM     19 CL   UNL     1      33.659 -18.685 -23.405  0.00  0.00    -0.082 Cl
ATOM     20  C   UNL     1      34.559 -21.045 -19.660  0.00  0.00    +0.037 C 
ATOM     21  C   UNL     1      35.602 -20.564 -20.456  0.00  0.00    +0.004 C 
ATOM     22  C   UNL     1      33.235 -20.791 -20.031  0.00  0.00    +0.004 C 
ATOM     23  C   UNL     1      35.325 -19.836 -21.614  0.00  0.00    +0.011 C 
ATOM     24  C   UNL     1      32.958 -20.063 -21.188  0.00  0.00    +0.011 C 
ATOM     25  C   UNL     1      34.002 -19.584 -21.979  0.00  0.00    +0.058 C 
ENDBRANCH   4  20
TORSDOF 2
ENDMDL
MODEL 5
REMARK VINA RESULT:     -10.8      7.656     10.965
REMARK  Name = 2765355
REMARK  2 active torsions:
REMARK  status: ('A' for Active; 'I' for Inactive)
REMARK    1  A    between atoms: C_4  and  C_20
REMARK    2  A    between atoms: C_6  and  C_13
REMARK                            x       y       z     vdW  Elec       q    Type
REMARK                         _______ _______ _______ _____ _____    ______ ____
ROOT
ATOM      1  O   UNL     1      32.347 -14.788 -27.424  0.00  0.00    -0.353 OA
ATOM      2  N   UNL     1      32.061 -16.111 -27.730  0.00  0.00    -0.077 NA
ATOM      3  C   UNL     1      33.115 -15.974 -25.732  0.00  0.00    +0.058 A 
ATOM      4  C   UNL     1      32.979 -14.711 -26.224  0.00  0.00    +0.177 A 
ATOM      5  C   UNL     1      32.522 -16.852 -26.707  0.00  0.00    +0.123 A 
ATOM      6  C   UNL     1      33.669 -17.722 -24.342  0.00  0.00    +0.031 C 
ATOM      7  C   UNL     1      33.708 -16.326 -24.528  0.00  0.00    +0.007 C 
ATOM      8  C   UNL     1      32.498 -18.242 -26.499  0.00  0.00    +0.023 C 
ATOM      9  C   UNL     1      33.094 -18.637 -25.280  0.00  0.00    +0.004 C 
ENDROOT
BRANCH   6  13
ATOM     10  N   UNL     1      33.418 -19.036 -22.401  0.00  0.00    -0.338 NA
ATOM     11  N   UNL     1      35.214 -19.347 -20.824  0.00  0.00    -0.170 NA
ATOM     12  N   UNL     1      33.121 -20.353 -20.482  0.00  0.00    -0.293 N 
ATOM     13  C   UNL     1      34.249 -18.265 -23.128  0.00  0.00    +0.146 C 
ATOM     14  C   UNL     1      35.552 -17.989 -22.782  0.00  0.00    +0.055 C 
ATOM     15  C   UNL     1      35.986 -18.564 -21.605  0.00  0.00    +0.114 C 
ATOM     16  C   UNL     1      33.959 -19.538 -21.275  0.00  0.00    +0.141 C 
ATOM     17  H   UNL     1      32.194 -20.528 -20.764  0.00  0.00    +0.155 HD
ATOM     18  H   UNL     1      33.465 -20.747 -19.648  0.00  0.00    +0.155 HD
ENDBRANCH   6  13
BRANCH   4  20
ATOM     19 CL   UNL     1      34.437  -9.220 -24.444  0.00  0.00    -0.082 Cl
ATOM     20  C   UNL     1      33.330 -13.387 -25.795  0.00  0.00    +0.037 C 
ATOM     21  C   UNL     1      33.688 -12.414 -26.734  0.00  0.00    +0.004 C 
ATOM     22  C   UNL     1      33.318 -13.060 -24.436  0.00  0.00    +0.004 C 
ATOM     23  C   UNL     1      34.029 -11.127 -26.317  0.00  0.00    +0.011 C 
ATOM     24  C   UNL     1      33.659 -11.774 -24.019  0.00  0.00    +0.011 C 
ATOM     25  C   UNL     1      34.015 -10.807 -24.959  0.00  0.00    +0.058 C 
ENDBRANCH   4  20
TORSDOF 2
ENDMDL
MODEL 6
REMARK VINA RESULT:     -10.7      3.574      6.822
REMARK  Name = 2765355
REMARK  2 active torsions:
REMARK  status: ('A' for Active; 'I' for Inactive)
REMARK    1  A    between atoms: C_4  and  C_20
REMARK    2  A    between atoms: C_6  and  C_13
REMARK                            x       y       z     vdW  Elec       q    Type
REMARK                         _______ _______ _______ _____ _____    ______ ____
ROOT
ATOM      1  O   UNL     1      33.266 -25.018 -14.022  0.00  0.00    -0.353 OA
ATOM      2  N   UNL     1      31.981 -24.601 -14.342  0.00  0.00    -0.077 NA
ATOM      3  C   UNL     1      33.468 -23.807 -15.852  0.00  0.00    +0.058 A 
ATOM      4  C   UNL     1      34.154 -24.538 -14.931  0.00  0.00    +0.177 A 
ATOM      5  C   UNL     1      32.084 -23.860 -15.459  0.00  0.00    +0.123 A 
ATOM      6  C   UNL     1      33.005 -22.494 -17.685  0.00  0.00    +0.031 C 
ATOM      7  C   UNL     1      34.011 -23.149 -16.947  0.00  0.00    +0.007 C 
ATOM      8  C   UNL     1      31.099 -23.197 -16.212  0.00  0.00    +0.023 C 
ATOM      9  C   UNL     1      31.617 -22.515 -17.336  0.00  0.00    +0.004 C 
ENDROOT
BRANCH   6  13
ATOM     10  N   UNL     1      32.382 -21.186 -19.544  0.00  0.00    -0.338 NA
ATOM     11  N   UNL     1      34.003 -20.335 -21.111  0.00  0.00    -0.170 NA
ATOM     12  N   UNL     1      31.715 -19.889 -21.383  0.00  0.00    -0.293 N 
ATOM     13  C   UNL     1      33.399 -21.754 -18.868  0.00  0.00    +0.146 C 
ATOM     14  C   UNL     1      34.722 -21.663 -19.237  0.00  0.00    +0.055 C 
ATOM     15  C   UNL     1      34.968 -20.932 -20.381  0.00  0.00    +0.114 C 
ATOM     16  C   UNL     1      32.752 -20.500 -20.643  0.00  0.00    +0.141 C 
ATOM     17  H   UNL     1      30.780 -19.977 -21.085  0.00  0.00    +0.155 HD
ATOM     18  H   UNL     1      31.928 -19.374 -22.194  0.00  0.00    +0.155 HD
ENDBRANCH   6  13
BRANCH   4  20
ATOM     19 CL   UNL     1      39.837 -26.050 -14.003  0.00  0.00    -0.082 Cl
ATOM     20  C   UNL     1      35.524 -24.903 -14.706  0.00  0.00    +0.037 C 
ATOM     21  C   UNL     1      36.387 -24.025 -14.043  0.00  0.00    +0.004 C 
ATOM     22  C   UNL     1      36.006 -26.138 -15.150  0.00  0.00    +0.004 C 
ATOM     23  C   UNL     1      37.719 -24.379 -13.824  0.00  0.00    +0.011 C 
ATOM     24  C   UNL     1      37.338 -26.492 -14.933  0.00  0.00    +0.011 C 
ATOM     25  C   UNL     1      38.194 -25.613 -14.271  0.00  0.00    +0.058 C 
ENDBRANCH   4  20
TORSDOF 2
ENDMDL
MODEL 7
REMARK VINA RESULT:     -10.6      9.771     13.428
REMARK  Name = 2765355
REMARK  2 active torsions:
REMARK  status: ('A' for Active; 'I' for Inactive)
REMARK    1  A    between atoms: C_4  and  C_20
REMARK    2  A    between atoms: C_6  and  C_13
REMARK                            x       y       z     vdW  Elec       q    Type
REMARK                         _______ _______ _______ _____ _____    ______ ____
ROOT
ATOM      1  O   UNL     1      33.337 -16.538 -26.777  0.00  0.00    -0.353 OA
ATOM      2  N   UNL     1      32.949 -15.644 -27.765  0.00  0.00    -0.077 NA
ATOM      3  C   UNL     1      33.275 -14.561 -25.804  0.00  0.00    +0.058 A 
ATOM      4  C   UNL     1      33.531 -15.883 -25.602  0.00  0.00    +0.177 A 
ATOM      5  C   UNL     1      32.906 -14.429 -27.190  0.00  0.00    +0.123 A 
ATOM      6  C   UNL     1      33.025 -12.307 -25.416  0.00  0.00    +0.031 C 
ATOM      7  C   UNL     1      33.359 -13.555 -24.853  0.00  0.00    +0.007 C 
ATOM      8  C   UNL     1      32.575 -13.173 -27.727  0.00  0.00    +0.023 C 
ATOM      9  C   UNL     1      32.650 -12.122 -26.785  0.00  0.00    +0.004 C 
ENDROOT
BRANCH   6  13
ATOM     10  N   UNL     1      32.271 -11.211 -23.470  0.00  0.00    -0.338 NA
ATOM     11  N   UNL     1      33.037  -9.009 -22.861  0.00  0.00    -0.170 NA
ATOM     12  N   UNL     1      31.491 -10.159 -21.522  0.00  0.00    -0.293 N 
ATOM     13  C   UNL     1      33.061 -11.139 -24.557  0.00  0.00    +0.146 C 
ATOM     14  C   UNL     1      33.857 -10.059 -24.866  0.00  0.00    +0.055 C 
ATOM     15  C   UNL     1      33.804  -9.009 -23.971  0.00  0.00    +0.114 C 
ATOM     16  C   UNL     1      32.306 -10.125 -22.675  0.00  0.00    +0.141 C 
ATOM     17  H   UNL     1      30.935 -10.951 -21.335  0.00  0.00    +0.155 HD
ATOM     18  H   UNL     1      31.478  -9.393 -20.906  0.00  0.00    +0.155 HD
ENDBRANCH   6  13
BRANCH   4  20
ATOM     19 CL   UNL     1      35.215 -19.295 -21.024  0.00  0.00    -0.082 Cl
ATOM     20  C   UNL     1      33.936 -16.705 -24.498  0.00  0.00    +0.037 C 
ATOM     21  C   UNL     1      34.617 -16.143 -23.414  0.00  0.00    +0.004 C 
ATOM     22  C   UNL     1      33.655 -18.075 -24.499  0.00  0.00    +0.004 C 
ATOM     23  C   UNL     1      35.011 -16.943 -22.340  0.00  0.00    +0.011 C 
ATOM     24  C   UNL     1      34.050 -18.874 -23.426  0.00  0.00    +0.011 C 
ATOM     25  C   UNL     1      34.728 -18.309 -22.347  0.00  0.00    +0.058 C 
ENDBRANCH   4  20
TORSDOF 2
ENDMDL
MODEL 8
REMARK VINA RESULT:     -10.6      9.655     13.376
REMARK  Name = 2765355
REMARK  2 active torsions:
REMARK  status: ('A' for Active; 'I' for Inactive)
REMARK    1  A    between atoms: C_4  and  C_20
REMARK    2  A    between atoms: C_6  and  C_13
REMARK                            x       y       z     vdW  Elec       q    Type
REMARK                         _______ _______ _______ _____ _____    ______ ____
ROOT
ATOM      1  O   UNL     1      33.270 -16.761 -26.694  0.00  0.00    -0.353 OA
ATOM      2  N   UNL     1      32.833 -15.883 -27.677  0.00  0.00    -0.077 NA
ATOM      3  C   UNL     1      33.276 -14.764 -25.760  0.00  0.00    +0.058 A 
ATOM      4  C   UNL     1      33.534 -16.084 -25.546  0.00  0.00    +0.177 A 
ATOM      5  C   UNL     1      32.832 -14.657 -27.125  0.00  0.00    +0.123 A 
ATOM      6  C   UNL     1      33.065 -12.501 -25.404  0.00  0.00    +0.031 C 
ATOM      7  C   UNL     1      33.421 -13.740 -24.836  0.00  0.00    +0.007 C 
ATOM      8  C   UNL     1      32.480 -13.409 -27.669  0.00  0.00    +0.023 C 
ATOM      9  C   UNL     1      32.616 -12.340 -26.754  0.00  0.00    +0.004 C 
ENDROOT
BRANCH   6  13
ATOM     10  N   UNL     1      34.212 -10.522 -24.834  0.00  0.00    -0.338 NA
ATOM     11  N   UNL     1      33.447  -9.058 -23.079  0.00  0.00    -0.170 NA
ATOM     12  N   UNL     1      35.389  -8.563 -24.301  0.00  0.00    -0.293 N 
ATOM     13  C   UNL     1      33.157 -11.316 -24.572  0.00  0.00    +0.146 C 
ATOM     14  C   UNL     1      32.217 -11.060 -23.600  0.00  0.00    +0.055 C 
ATOM     15  C   UNL     1      32.415  -9.903 -22.875  0.00  0.00    +0.114 C 
ATOM     16  C   UNL     1      34.295  -9.424 -24.059  0.00  0.00    +0.141 C 
ATOM     17  H   UNL     1      36.041  -8.781 -25.006  0.00  0.00    +0.155 HD
ATOM     18  H   UNL     1      35.499  -7.746 -23.764  0.00  0.00    +0.155 HD
ENDBRANCH   6  13
BRANCH   4  20
ATOM     19 CL   UNL     1      35.441 -19.414 -20.994  0.00  0.00    -0.082 Cl
ATOM     20  C   UNL     1      33.994 -16.888 -24.450  0.00  0.00    +0.037 C 
ATOM     21  C   UNL     1      33.811 -18.273 -24.465  0.00  0.00    +0.004 C 
ATOM     22  C   UNL     1      34.629 -16.290 -23.356  0.00  0.00    +0.004 C 
ATOM     23  C   UNL     1      34.258 -19.054 -23.399  0.00  0.00    +0.011 C 
ATOM     24  C   UNL     1      35.076 -17.070 -22.290  0.00  0.00    +0.011 C 
ATOM     25  C   UNL     1      34.890 -18.452 -22.310  0.00  0.00    +0.058 C 
ENDBRANCH   4  20
TORSDOF 2
ENDMDL
MODEL 9
REMARK VINA RESULT:     -10.4      8.046     11.729
REMARK  Name = 2765355
REMARK  2 active torsions:
REMARK  status: ('A' for Active; 'I' for Inactive)
REMARK    1  A    between atoms: C_4  and  C_20
REMARK    2  A    between atoms: C_6  and  C_13
REMARK                            x       y       z     vdW  Elec       q    Type
REMARK                         _______ _______ _______ _____ _____    ______ ____
ROOT
ATOM      1  O   UNL     1      34.447 -18.291 -25.517  0.00  0.00    -0.353 OA
ATOM      2  N   UNL     1      34.070 -17.498 -26.592  0.00  0.00    -0.077 NA
ATOM      3  C   UNL     1      33.863 -16.349 -24.652  0.00  0.00    +0.058 A 
ATOM      4  C   UNL     1      34.321 -17.597 -24.356  0.00  0.00    +0.177 A 
ATOM      5  C   UNL     1      33.710 -16.306 -26.084  0.00  0.00    +0.123 A 
ATOM      6  C   UNL     1      33.142 -14.178 -24.405  0.00  0.00    +0.031 C 
ATOM      7  C   UNL     1      33.602 -15.334 -23.744  0.00  0.00    +0.007 C 
ATOM      8  C   UNL     1      33.247 -15.141 -26.720  0.00  0.00    +0.023 C 
ATOM      9  C   UNL     1      32.972 -14.084 -25.824  0.00  0.00    +0.004 C 
ENDROOT
BRANCH   6  13
ATOM     10  N   UNL     1      32.322 -13.288 -22.382  0.00  0.00    -0.338 NA
ATOM     11  N   UNL     1      32.175 -10.915 -21.994  0.00  0.00    -0.170 NA
ATOM     12  N   UNL     1      31.497 -12.449 -20.352  0.00  0.00    -0.293 N 
ATOM     13  C   UNL     1      32.821 -13.014 -23.602  0.00  0.00    +0.146 C 
ATOM     14  C   UNL     1      33.025 -11.742 -24.088  0.00  0.00    +0.055 C 
ATOM     15  C   UNL     1      32.680 -10.718 -23.229  0.00  0.00    +0.114 C 
ATOM     16  C   UNL     1      32.024 -12.205 -21.640  0.00  0.00    +0.141 C 
ATOM     17  H   UNL     1      31.366 -13.374 -20.041  0.00  0.00    +0.155 HD
ATOM     18  H   UNL     1      31.262 -11.694 -19.767  0.00  0.00    +0.155 HD
ENDBRANCH   6  13
BRANCH   4  20
ATOM     19 CL   UNL     1      35.819 -20.579 -19.426  0.00  0.00    -0.082 Cl
ATOM     20  C   UNL     1      34.682 -18.315 -23.167  0.00  0.00    +0.037 C 
ATOM     21  C   UNL     1      35.993 -18.264 -22.684  0.00  0.00    +0.004 C 
ATOM     22  C   UNL     1      33.726 -19.072 -22.484  0.00  0.00    +0.004 C 
ATOM     23  C   UNL     1      36.345 -18.962 -21.528  0.00  0.00    +0.011 C 
ATOM     24  C   UNL     1      34.077 -19.771 -21.328  0.00  0.00    +0.011 C 
ATOM     25  C   UNL     1      35.386 -19.716 -20.851  0.00  0.00    +0.058 C 
ENDBRANCH   4  20
TORSDOF 2
ENDMDL
