MODEL 1
REMARK VINA RESULT:     -12.7      0.000      0.000
REMARK  Name = 9998128
REMARK  2 active torsions:
REMARK  status: ('A' for Active; 'I' for Inactive)
REMARK    1  A    between atoms: N_1  and  C_15
REMARK    2  A    between atoms: C_7  and  C_24
REMARK                            x       y       z     vdW  Elec       q    Type
REMARK                         _______ _______ _______ _____ _____    ______ ____
ROOT
ATOM      1  N   UNL     1      34.962 -22.578 -15.470  0.00  0.00    -0.290 N 
ATOM      2  N   UNL     1      32.618 -22.756 -15.562  0.00  0.00    -0.327 NA
ATOM      3  N   UNL     1      31.398 -21.947 -17.475  0.00  0.00    -0.342 NA
ATOM      4  C   UNL     1      33.786 -21.745 -17.421  0.00  0.00    +0.143 C 
ATOM      5  C   UNL     1      33.750 -22.354 -16.169  0.00  0.00    +0.184 C 
ATOM      6  C   UNL     1      32.548 -21.557 -18.054  0.00  0.00    +0.133 C 
ATOM      7  C   UNL     1      31.495 -22.524 -16.261  0.00  0.00    +0.165 C 
ATOM      8  C   UNL     1      34.982 -21.334 -18.035  0.00  0.00    -0.011 C 
ATOM      9  C   UNL     1      32.543 -20.951 -19.308  0.00  0.00    +0.029 C 
ATOM     10  C   UNL     1      34.950 -20.731 -19.288  0.00  0.00    -0.004 C 
ATOM     11  C   UNL     1      33.728 -20.539 -19.925  0.00  0.00    +0.002 C 
ATOM     12  H   UNL     1      35.662 -21.913 -15.665  0.00  0.00    +0.154 HD
ENDROOT
BRANCH   1  15
ATOM     13  N   UNL     1      36.635 -26.235 -11.707  0.00  0.00    -0.236 N 
ATOM     14  N   UNL     1      37.254 -25.487 -10.778  0.00  0.00    -0.180 NA
ATOM     15  C   UNL     1      35.358 -23.563 -14.551  0.00  0.00    +0.050 C 
ATOM     16  C   UNL     1      36.449 -24.194 -12.486  0.00  0.00    +0.037 C 
ATOM     17  C   UNL     1      36.130 -25.520 -12.758  0.00  0.00    +0.067 C 
ATOM     18  C   UNL     1      36.061 -23.193 -13.392  0.00  0.00    +0.018 C 
ATOM     19  C   UNL     1      35.053 -24.908 -14.794  0.00  0.00    +0.016 C 
ATOM     20  C   UNL     1      35.432 -25.916 -13.902  0.00  0.00    +0.017 C 
ATOM     21  C   UNL     1      37.139 -24.245 -11.256  0.00  0.00    +0.119 C 
ATOM     22  H   UNL     1      36.552 -27.214 -11.636  0.00  0.00    +0.174 HD
ENDBRANCH   1  15
BRANCH   7  24
ATOM     23  N   UNL     1      29.142 -22.397 -16.184  0.00  0.00    -0.398 NA
ATOM     24  C   UNL     1      30.260 -22.939 -15.648  0.00  0.00    +0.197 C 
ATOM     25  C   UNL     1      30.251 -23.831 -14.585  0.00  0.00    +0.098 C 
ATOM     26  C   UNL     1      27.966 -22.766 -15.630  0.00  0.00    +0.110 C 
ATOM     27  C   UNL     1      29.022 -24.187 -14.041  0.00  0.00    -0.016 C 
ATOM     28  C   UNL     1      27.852 -23.649 -14.568  0.00  0.00    +0.023 C 
ATOM     29  C   UNL     1      26.732 -22.169 -16.219  0.00  0.00    +0.066 C 
ENDBRANCH   7  24
TORSDOF 2
ENDMDL
MODEL 2
REMARK VINA RESULT:     -12.6      1.309      4.797
REMARK  Name = 9998128
REMARK  2 active torsions:
REMARK  status: ('A' for Active; 'I' for Inactive)
REMARK    1  A    between atoms: N_1  and  C_15
REMARK    2  A    between atoms: C_7  and  C_24
REMARK                            x       y       z     vdW  Elec       q    Type
REMARK                         _______ _______ _______ _____ _____    ______ ____
ROOT
ATOM      1  N   UNL     1      32.923 -24.576 -13.817  0.00  0.00    -0.290 N 
ATOM      2  N   UNL     1      32.946 -23.189 -15.718  0.00  0.00    -0.327 NA
ATOM      3  N   UNL     1      30.894 -22.307 -16.621  0.00  0.00    -0.342 NA
ATOM      4  C   UNL     1      30.826 -23.717 -14.683  0.00  0.00    +0.143 C 
ATOM      5  C   UNL     1      32.213 -23.804 -14.770  0.00  0.00    +0.184 C 
ATOM      6  C   UNL     1      30.192 -22.934 -15.660  0.00  0.00    +0.133 C 
ATOM      7  C   UNL     1      32.232 -22.469 -16.598  0.00  0.00    +0.165 C 
ATOM      8  C   UNL     1      30.083 -24.369 -13.683  0.00  0.00    -0.011 C 
ATOM      9  C   UNL     1      28.804 -22.824 -15.606  0.00  0.00    +0.029 C 
ATOM     10  C   UNL     1      28.698 -24.242 -13.652  0.00  0.00    -0.004 C 
ATOM     11  C   UNL     1      28.058 -23.469 -14.616  0.00  0.00    +0.002 C 
ATOM     12  H   UNL     1      32.411 -25.340 -13.465  0.00  0.00    +0.154 HD
ENDROOT
BRANCH   1  15
ATOM     13  N   UNL     1      37.897 -23.911 -11.549  0.00  0.00    -0.236 N 
ATOM     14  N   UNL     1      37.738 -22.871 -10.713  0.00  0.00    -0.180 NA
ATOM     15  C   UNL     1      34.214 -24.464 -13.279  0.00  0.00    +0.050 C 
ATOM     16  C   UNL     1      35.788 -23.367 -11.804  0.00  0.00    +0.037 C 
ATOM     17  C   UNL     1      36.765 -24.259 -12.234  0.00  0.00    +0.067 C 
ATOM     18  C   UNL     1      34.489 -23.464 -12.330  0.00  0.00    +0.018 C 
ATOM     19  C   UNL     1      35.222 -25.345 -13.690  0.00  0.00    +0.016 C 
ATOM     20  C   UNL     1      36.520 -25.262 -13.175  0.00  0.00    +0.017 C 
ATOM     21  C   UNL     1      36.453 -22.543 -10.872  0.00  0.00    +0.119 C 
ATOM     22  H   UNL     1      38.755 -24.381 -11.658  0.00  0.00    +0.174 HD
ENDBRANCH   1  15
BRANCH   7  24
ATOM     23  N   UNL     1      32.228 -21.105 -18.521  0.00  0.00    -0.398 NA
ATOM     24  C   UNL     1      32.976 -21.794 -17.629  0.00  0.00    +0.197 C 
ATOM     25  C   UNL     1      34.361 -21.866 -17.678  0.00  0.00    +0.098 C 
ATOM     26  C   UNL     1      32.898 -20.461 -19.502  0.00  0.00    +0.110 C 
ATOM     27  C   UNL     1      35.015 -21.191 -18.702  0.00  0.00    -0.016 C 
ATOM     28  C   UNL     1      34.277 -20.472 -19.636  0.00  0.00    +0.023 C 
ATOM     29  C   UNL     1      32.075 -19.700 -20.487  0.00  0.00    +0.066 C 
ENDBRANCH   7  24
TORSDOF 2
ENDMDL
MODEL 3
REMARK VINA RESULT:     -12.5      1.870      6.947
REMARK  Name = 9998128
REMARK  2 active torsions:
REMARK  status: ('A' for Active; 'I' for Inactive)
REMARK    1  A    between atoms: N_1  and  C_15
REMARK    2  A    between atoms: C_7  and  C_24
REMARK                            x       y       z     vdW  Elec       q    Type
REMARK                         _______ _______ _______ _____ _____    ______ ____
ROOT
ATOM      1  N   UNL     1      32.232 -23.484 -13.286  0.00  0.00    -0.290 N 
ATOM      2  N   UNL     1      33.398 -22.662 -15.157  0.00  0.00    -0.327 NA
ATOM      3  N   UNL     1      35.796 -22.853 -15.293  0.00  0.00    -0.342 NA
ATOM      4  C   UNL     1      34.646 -23.702 -13.368  0.00  0.00    +0.143 C 
ATOM      5  C   UNL     1      33.460 -23.274 -13.960  0.00  0.00    +0.184 C 
ATOM      6  C   UNL     1      35.823 -23.462 -14.094  0.00  0.00    +0.133 C 
ATOM      7  C   UNL     1      34.585 -22.486 -15.759  0.00  0.00    +0.165 C 
ATOM      8  C   UNL     1      34.686 -24.340 -12.115  0.00  0.00    -0.011 C 
ATOM      9  C   UNL     1      37.029 -23.875 -13.534  0.00  0.00    +0.029 C 
ATOM     10  C   UNL     1      35.904 -24.743 -11.578  0.00  0.00    -0.004 C 
ATOM     11  C   UNL     1      37.078 -24.510 -12.289  0.00  0.00    +0.002 C 
ATOM     12  H   UNL     1      32.312 -23.480 -12.304  0.00  0.00    +0.154 HD
ENDROOT
BRANCH   1  15
ATOM     13  N   UNL     1      27.107 -24.052 -15.223  0.00  0.00    -0.236 N 
ATOM     14  N   UNL     1      26.900 -22.928 -15.930  0.00  0.00    -0.180 NA
ATOM     15  C   UNL     1      30.923 -23.694 -13.746  0.00  0.00    +0.050 C 
ATOM     16  C   UNL     1      28.991 -22.951 -15.000  0.00  0.00    +0.037 C 
ATOM     17  C   UNL     1      28.342 -24.127 -14.639  0.00  0.00    +0.067 C 
ATOM     18  C   UNL     1      30.302 -22.723 -14.550  0.00  0.00    +0.018 C 
ATOM     19  C   UNL     1      30.240 -24.867 -13.401  0.00  0.00    +0.016 C 
ATOM     20  C   UNL     1      28.935 -25.110 -13.841  0.00  0.00    +0.017 C 
ATOM     21  C   UNL     1      28.049 -22.261 -15.792  0.00  0.00    +0.119 C 
ATOM     22  H   UNL     1      26.429 -24.759 -15.134  0.00  0.00    +0.174 HD
ENDBRANCH   1  15
BRANCH   7  24
ATOM     23  N   UNL     1      33.333 -21.659 -17.577  0.00  0.00    -0.398 NA
ATOM     24  C   UNL     1      34.563 -21.835 -17.043  0.00  0.00    +0.197 C 
ATOM     25  C   UNL     1      35.738 -21.430 -17.661  0.00  0.00    +0.098 C 
ATOM     26  C   UNL     1      33.280 -21.050 -18.784  0.00  0.00    +0.110 C 
ATOM     27  C   UNL     1      35.643 -20.808 -18.900  0.00  0.00    -0.016 C 
ATOM     28  C   UNL     1      34.394 -20.610 -19.480  0.00  0.00    +0.023 C 
ATOM     29  C   UNL     1      31.924 -20.856 -19.375  0.00  0.00    +0.066 C 
ENDBRANCH   7  24
TORSDOF 2
ENDMDL
MODEL 4
REMARK VINA RESULT:     -11.1      2.074      7.360
REMARK  Name = 9998128
REMARK  2 active torsions:
REMARK  status: ('A' for Active; 'I' for Inactive)
REMARK    1  A    between atoms: N_1  and  C_15
REMARK    2  A    between atoms: C_7  and  C_24
REMARK                            x       y       z     vdW  Elec       q    Type
REMARK                         _______ _______ _______ _____ _____    ______ ____
ROOT
ATOM      1  N   UNL     1      31.246 -21.999 -16.640  0.00  0.00    -0.290 N 
ATOM      2  N   UNL     1      32.518 -22.761 -14.813  0.00  0.00    -0.327 NA
ATOM      3  N   UNL     1      31.570 -24.285 -13.205  0.00  0.00    -0.342 NA
ATOM      4  C   UNL     1      30.239 -23.531 -15.052  0.00  0.00    +0.143 C 
ATOM      5  C   UNL     1      31.341 -22.786 -15.466  0.00  0.00    +0.184 C 
ATOM      6  C   UNL     1      30.407 -24.287 -13.881  0.00  0.00    +0.133 C 
ATOM      7  C   UNL     1      32.562 -23.522 -13.708  0.00  0.00    +0.165 C 
ATOM      8  C   UNL     1      29.019 -23.540 -15.751  0.00  0.00    -0.011 C 
ATOM      9  C   UNL     1      29.327 -25.045 -13.436  0.00  0.00    +0.029 C 
ATOM     10  C   UNL     1      27.957 -24.306 -15.284  0.00  0.00    -0.004 C 
ATOM     11  C   UNL     1      28.111 -25.060 -14.125  0.00  0.00    +0.002 C 
ATOM     12  H   UNL     1      30.338 -21.662 -16.821  0.00  0.00    +0.154 HD
ENDROOT
BRANCH   1  15
ATOM     13  N   UNL     1      34.770 -20.295 -20.516  0.00  0.00    -0.236 N 
ATOM     14  N   UNL     1      34.033 -19.481 -21.290  0.00  0.00    -0.180 NA
ATOM     15  C   UNL     1      32.196 -21.605 -17.595  0.00  0.00    +0.050 C 
ATOM     16  C   UNL     1      32.791 -20.342 -19.572  0.00  0.00    +0.037 C 
ATOM     17  C   UNL     1      34.083 -20.844 -19.467  0.00  0.00    +0.067 C 
ATOM     18  C   UNL     1      31.826 -20.723 -18.625  0.00  0.00    +0.018 C 
ATOM     19  C   UNL     1      33.507 -22.092 -17.520  0.00  0.00    +0.016 C 
ATOM     20  C   UNL     1      34.480 -21.722 -18.455  0.00  0.00    +0.017 C 
ATOM     21  C   UNL     1      32.829 -19.512 -20.712  0.00  0.00    +0.119 C 
ATOM     22  H   UNL     1      35.721 -20.480 -20.689  0.00  0.00    +0.174 HD
ENDBRANCH   1  15
BRANCH   7  24
ATOM     23  N   UNL     1      33.701 -23.856 -11.671  0.00  0.00    -0.398 NA
ATOM     24  C   UNL     1      33.803 -23.525 -12.979  0.00  0.00    +0.197 C 
ATOM     25  C   UNL     1      35.002 -23.206 -13.602  0.00  0.00    +0.098 C 
ATOM     26  C   UNL     1      34.850 -23.867 -10.959  0.00  0.00    +0.110 C 
ATOM     27  C   UNL     1      36.162 -23.228 -12.838  0.00  0.00    -0.016 C 
ATOM     28  C   UNL     1      36.094 -23.564 -11.489  0.00  0.00    +0.023 C 
ATOM     29  C   UNL     1      34.740 -24.231  -9.517  0.00  0.00    +0.066 C 
ENDBRANCH   7  24
TORSDOF 2
ENDMDL
MODEL 5
REMARK VINA RESULT:     -10.2      2.122      7.223
REMARK  Name = 9998128
REMARK  2 active torsions:
REMARK  status: ('A' for Active; 'I' for Inactive)
REMARK    1  A    between atoms: N_1  and  C_15
REMARK    2  A    between atoms: C_7  and  C_24
REMARK                            x       y       z     vdW  Elec       q    Type
REMARK                         _______ _______ _______ _____ _____    ______ ____
ROOT
ATOM      1  N   UNL     1      33.084 -23.602 -12.716  0.00  0.00    -0.290 N 
ATOM      2  N   UNL     1      34.431 -22.681 -14.412  0.00  0.00    -0.327 NA
ATOM      3  N   UNL     1      36.780 -23.202 -14.534  0.00  0.00    -0.342 NA
ATOM      4  C   UNL     1      35.443 -24.160 -12.790  0.00  0.00    +0.143 C 
ATOM      5  C   UNL     1      34.356 -23.474 -13.327  0.00  0.00    +0.184 C 
ATOM      6  C   UNL     1      36.671 -23.987 -13.447  0.00  0.00    +0.133 C 
ATOM      7  C   UNL     1      35.654 -22.592 -14.957  0.00  0.00    +0.165 C 
ATOM      8  C   UNL     1      35.340 -24.983 -11.654  0.00  0.00    -0.011 C 
ATOM      9  C   UNL     1      37.781 -24.656 -12.939  0.00  0.00    +0.029 C 
ATOM     10  C   UNL     1      36.465 -25.641 -11.168  0.00  0.00    -0.004 C 
ATOM     11  C   UNL     1      37.688 -25.477 -11.811  0.00  0.00    +0.002 C 
ATOM     12  H   UNL     1      33.123 -23.763 -11.745  0.00  0.00    +0.154 HD
ENDROOT
BRANCH   1  15
ATOM     13  N   UNL     1      27.915 -23.631 -14.620  0.00  0.00    -0.236 N 
ATOM     14  N   UNL     1      27.440 -24.832 -14.251  0.00  0.00    -0.180 NA
ATOM     15  C   UNL     1      31.778 -23.541 -13.227  0.00  0.00    +0.050 C 
ATOM     16  C   UNL     1      29.608 -24.554 -13.574  0.00  0.00    +0.037 C 
ATOM     17  C   UNL     1      29.211 -23.402 -14.244  0.00  0.00    +0.067 C 
ATOM     18  C   UNL     1      30.910 -24.633 -13.054  0.00  0.00    +0.018 C 
ATOM     19  C   UNL     1      31.346 -22.396 -13.908  0.00  0.00    +0.016 C 
ATOM     20  C   UNL     1      30.052 -22.302 -14.431  0.00  0.00    +0.017 C 
ATOM     21  C   UNL     1      28.472 -25.390 -13.614  0.00  0.00    +0.119 C 
ATOM     22  H   UNL     1      27.378 -22.974 -15.118  0.00  0.00    +0.174 HD
ENDBRANCH   1  15
BRANCH   7  24
ATOM     23  N   UNL     1      34.944 -22.057 -17.140  0.00  0.00    -0.398 NA
ATOM     24  C   UNL     1      35.779 -21.753 -16.120  0.00  0.00    +0.197 C 
ATOM     25  C   UNL     1      36.701 -20.716 -16.161  0.00  0.00    +0.098 C 
ATOM     26  C   UNL     1      35.037 -21.288 -18.248  0.00  0.00    +0.110 C 
ATOM     27  C   UNL     1      36.768 -19.947 -17.317  0.00  0.00    -0.016 C 
ATOM     28  C   UNL     1      35.923 -20.231 -18.386  0.00  0.00    +0.023 C 
ATOM     29  C   UNL     1      34.117 -21.622 -19.374  0.00  0.00    +0.066 C 
ENDBRANCH   7  24
TORSDOF 2
ENDMDL
MODEL 6
REMARK VINA RESULT:     -10.2     13.342     16.760
REMARK  Name = 9998128
REMARK  2 active torsions:
REMARK  status: ('A' for Active; 'I' for Inactive)
REMARK    1  A    between atoms: N_1  and  C_15
REMARK    2  A    between atoms: C_7  and  C_24
REMARK                            x       y       z     vdW  Elec       q    Type
REMARK                         _______ _______ _______ _____ _____    ______ ____
ROOT
ATOM      1  N   UNL     1      33.894  -9.378 -24.332  0.00  0.00    -0.290 N 
ATOM      2  N   UNL     1      32.862  -8.218 -22.564  0.00  0.00    -0.327 NA
ATOM      3  N   UNL     1      32.505  -5.839 -22.697  0.00  0.00    -0.342 NA
ATOM      4  C   UNL     1      33.561  -6.983 -24.521  0.00  0.00    +0.143 C 
ATOM      5  C   UNL     1      33.424  -8.158 -23.786  0.00  0.00    +0.184 C 
ATOM      6  C   UNL     1      33.071  -5.814 -23.917  0.00  0.00    +0.133 C 
ATOM      7  C   UNL     1      32.431  -7.039 -22.087  0.00  0.00    +0.165 C 
ATOM      8  C   UNL     1      34.152  -6.946 -25.796  0.00  0.00    -0.011 C 
ATOM      9  C   UNL     1      33.191  -4.619 -24.622  0.00  0.00    +0.029 C 
ATOM     10  C   UNL     1      34.258  -5.739 -26.478  0.00  0.00    -0.004 C 
ATOM     11  C   UNL     1      33.777  -4.573 -25.890  0.00  0.00    +0.002 C 
ATOM     12  H   UNL     1      34.664  -9.272 -24.937  0.00  0.00    +0.154 HD
ENDROOT
BRANCH   1  15
ATOM     13  N   UNL     1      32.227 -14.618 -24.008  0.00  0.00    -0.236 N 
ATOM     14  N   UNL     1      32.034 -14.977 -25.288  0.00  0.00    -0.180 NA
ATOM     15  C   UNL     1      33.476 -10.709 -24.176  0.00  0.00    +0.050 C 
ATOM     16  C   UNL     1      32.742 -12.807 -25.132  0.00  0.00    +0.037 C 
ATOM     17  C   UNL     1      32.652 -13.327 -23.846  0.00  0.00    +0.067 C 
ATOM     18  C   UNL     1      33.160 -11.477 -25.309  0.00  0.00    +0.018 C 
ATOM     19  C   UNL     1      33.374 -11.265 -22.895  0.00  0.00    +0.016 C 
ATOM     20  C   UNL     1      32.960 -12.587 -22.702  0.00  0.00    +0.017 C 
ATOM     21  C   UNL     1      32.348 -13.873 -25.969  0.00  0.00    +0.119 C 
ATOM     22  H   UNL     1      32.076 -15.230 -23.252  0.00  0.00    +0.174 HD
ENDBRANCH   1  15
BRANCH   7  24
ATOM     23  N   UNL     1      31.542  -8.289 -20.297  0.00  0.00    -0.398 NA
ATOM     24  C   UNL     1      31.823  -7.058 -20.782  0.00  0.00    +0.197 C 
ATOM     25  C   UNL     1      31.557  -5.880 -20.098  0.00  0.00    +0.098 C 
ATOM     26  C   UNL     1      30.970  -8.340 -19.073  0.00  0.00    +0.110 C 
ATOM     27  C   UNL     1      30.968  -5.973 -18.843  0.00  0.00    -0.016 C 
ATOM     28  C   UNL     1      30.665  -7.223 -18.313  0.00  0.00    +0.023 C 
ATOM     29  C   UNL     1      30.659  -9.697 -18.536  0.00  0.00    +0.066 C 
ENDBRANCH   7  24
TORSDOF 2
ENDMDL
MODEL 7
REMARK VINA RESULT:      -9.8     11.510     15.448
REMARK  Name = 9998128
REMARK  2 active torsions:
REMARK  status: ('A' for Active; 'I' for Inactive)
REMARK    1  A    between atoms: N_1  and  C_15
REMARK    2  A    between atoms: C_7  and  C_24
REMARK                            x       y       z     vdW  Elec       q    Type
REMARK                         _______ _______ _______ _____ _____    ______ ____
ROOT
ATOM      1  N   UNL     1      31.468 -12.064 -21.129  0.00  0.00    -0.290 N 
ATOM      2  N   UNL     1      32.155 -10.166 -22.338  0.00  0.00    -0.327 NA
ATOM      3  N   UNL     1      31.853  -7.954 -21.430  0.00  0.00    -0.342 NA
ATOM      4  C   UNL     1      31.138  -9.862 -20.166  0.00  0.00    +0.143 C 
ATOM      5  C   UNL     1      31.592 -10.655 -21.217  0.00  0.00    +0.184 C 
ATOM      6  C   UNL     1      31.295  -8.476 -20.323  0.00  0.00    +0.133 C 
ATOM      7  C   UNL     1      32.252  -8.827 -22.377  0.00  0.00    +0.165 C 
ATOM      8  C   UNL     1      30.553 -10.397 -19.005  0.00  0.00    -0.011 C 
ATOM      9  C   UNL     1      30.852  -7.650 -19.293  0.00  0.00    +0.029 C 
ATOM     10  C   UNL     1      30.120  -9.549 -17.991  0.00  0.00    -0.004 C 
ATOM     11  C   UNL     1      30.270  -8.173 -18.135  0.00  0.00    +0.002 C 
ATOM     12  H   UNL     1      30.695 -12.362 -20.595  0.00  0.00    +0.154 HD
ENDROOT
BRANCH   1  15
ATOM     13  N   UNL     1      34.346 -16.146 -23.450  0.00  0.00    -0.236 N 
ATOM     14  N   UNL     1      33.959 -16.126 -24.737  0.00  0.00    -0.180 NA
ATOM     15  C   UNL     1      32.232 -13.117 -21.655  0.00  0.00    +0.050 C 
ATOM     16  C   UNL     1      32.896 -14.502 -23.524  0.00  0.00    +0.037 C 
ATOM     17  C   UNL     1      33.746 -15.196 -22.670  0.00  0.00    +0.067 C 
ATOM     18  C   UNL     1      32.124 -13.444 -23.017  0.00  0.00    +0.018 C 
ATOM     19  C   UNL     1      33.097 -13.837 -20.822  0.00  0.00    +0.016 C 
ATOM     20  C   UNL     1      33.873 -14.893 -21.312  0.00  0.00    +0.017 C 
ATOM     21  C   UNL     1      33.077 -15.125 -24.778  0.00  0.00    +0.119 C 
ATOM     22  H   UNL     1      35.005 -16.788 -23.101  0.00  0.00    +0.174 HD
ENDBRANCH   1  15
BRANCH   7  24
ATOM     23  N   UNL     1      32.145  -7.260 -24.135  0.00  0.00    -0.398 NA
ATOM     24  C   UNL     1      32.849  -8.261 -23.559  0.00  0.00    +0.197 C 
ATOM     25  C   UNL     1      34.059  -8.732 -24.047  0.00  0.00    +0.098 C 
ATOM     26  C   UNL     1      32.679  -6.708 -25.247  0.00  0.00    +0.110 C 
ATOM     27  C   UNL     1      34.577  -8.140 -25.193  0.00  0.00    -0.016 C 
ATOM     28  C   UNL     1      33.880  -7.107 -25.811  0.00  0.00    +0.023 C 
ATOM     29  C   UNL     1      31.904  -5.603 -25.884  0.00  0.00    +0.066 C 
ENDBRANCH   7  24
TORSDOF 2
ENDMDL
MODEL 8
REMARK VINA RESULT:      -9.8      1.498      6.845
REMARK  Name = 9998128
REMARK  2 active torsions:
REMARK  status: ('A' for Active; 'I' for Inactive)
REMARK    1  A    between atoms: N_1  and  C_15
REMARK    2  A    between atoms: C_7  and  C_24
REMARK                            x       y       z     vdW  Elec       q    Type
REMARK                         _______ _______ _______ _____ _____    ______ ____
ROOT
ATOM      1  N   UNL     1      31.448 -22.785 -16.810  0.00  0.00    -0.290 N 
ATOM      2  N   UNL     1      33.144 -23.203 -15.233  0.00  0.00    -0.327 NA
ATOM      3  N   UNL     1      35.401 -22.459 -15.630  0.00  0.00    -0.342 NA
ATOM      4  C   UNL     1      33.702 -22.014 -17.263  0.00  0.00    +0.143 C 
ATOM      5  C   UNL     1      32.805 -22.666 -16.420  0.00  0.00    +0.184 C 
ATOM      6  C   UNL     1      35.029 -21.934 -16.811  0.00  0.00    +0.133 C 
ATOM      7  C   UNL     1      34.438 -23.065 -14.905  0.00  0.00    +0.165 C 
ATOM      8  C   UNL     1      33.324 -21.462 -18.499  0.00  0.00    -0.011 C 
ATOM      9  C   UNL     1      35.956 -21.290 -17.626  0.00  0.00    +0.029 C 
ATOM     10  C   UNL     1      34.271 -20.824 -19.294  0.00  0.00    -0.004 C 
ATOM     11  C   UNL     1      35.589 -20.737 -18.857  0.00  0.00    +0.002 C 
ATOM     12  H   UNL     1      31.316 -22.830 -17.785  0.00  0.00    +0.154 HD
ENDROOT
BRANCH   1  15
ATOM     13  N   UNL     1      26.635 -22.902 -14.135  0.00  0.00    -0.236 N 
ATOM     14  N   UNL     1      25.796 -22.235 -14.945  0.00  0.00    -0.180 NA
ATOM     15  C   UNL     1      30.254 -22.854 -16.075  0.00  0.00    +0.050 C 
ATOM     16  C   UNL     1      27.903 -22.337 -15.832  0.00  0.00    +0.037 C 
ATOM     17  C   UNL     1      27.914 -22.998 -14.609  0.00  0.00    +0.067 C 
ATOM     18  C   UNL     1      29.087 -22.258 -16.584  0.00  0.00    +0.018 C 
ATOM     19  C   UNL     1      30.230 -23.512 -14.839  0.00  0.00    +0.016 C 
ATOM     20  C   UNL     1      29.059 -23.598 -14.079  0.00  0.00    +0.017 C 
ATOM     21  C   UNL     1      26.571 -21.893 -15.977  0.00  0.00    +0.119 C 
ATOM     22  H   UNL     1      26.352 -23.288 -13.274  0.00  0.00    +0.174 HD
ENDBRANCH   1  15
BRANCH   7  24
ATOM     23  N   UNL     1      36.110 -24.101 -13.605  0.00  0.00    -0.398 NA
ATOM     24  C   UNL     1      34.844 -23.625 -13.643  0.00  0.00    +0.197 C 
ATOM     25  C   UNL     1      33.975 -23.659 -12.561  0.00  0.00    +0.098 C 
ATOM     26  C   UNL     1      36.520 -24.634 -12.433  0.00  0.00    +0.110 C 
ATOM     27  C   UNL     1      34.433 -24.215 -11.372  0.00  0.00    -0.016 C 
ATOM     28  C   UNL     1      35.729 -24.714 -11.298  0.00  0.00    +0.023 C 
ATOM     29  C   UNL     1      37.916 -25.160 -12.389  0.00  0.00    +0.066 C 
ENDBRANCH   7  24
TORSDOF 2
ENDMDL
MODEL 9
REMARK VINA RESULT:      -9.8     12.774     16.244
REMARK  Name = 9998128
REMARK  2 active torsions:
REMARK  status: ('A' for Active; 'I' for Inactive)
REMARK    1  A    between atoms: N_1  and  C_15
REMARK    2  A    between atoms: C_7  and  C_24
REMARK                            x       y       z     vdW  Elec       q    Type
REMARK                         _______ _______ _______ _____ _____    ______ ____
ROOT
ATOM      1  N   UNL     1      33.713  -9.716 -24.461  0.00  0.00    -0.290 N 
ATOM      2  N   UNL     1      32.602  -8.887 -22.559  0.00  0.00    -0.327 NA
ATOM      3  N   UNL     1      32.183  -6.527 -22.312  0.00  0.00    -0.342 NA
ATOM      4  C   UNL     1      33.318  -7.331 -24.265  0.00  0.00    +0.143 C 
ATOM      5  C   UNL     1      33.195  -8.613 -23.737  0.00  0.00    +0.184 C 
ATOM      6  C   UNL     1      32.781  -6.289 -23.493  0.00  0.00    +0.133 C 
ATOM      7  C   UNL     1      32.126  -7.813 -21.910  0.00  0.00    +0.165 C 
ATOM      8  C   UNL     1      33.942  -7.070 -25.498  0.00  0.00    -0.011 C 
ATOM      9  C   UNL     1      32.885  -4.991 -23.988  0.00  0.00    +0.029 C 
ATOM     10  C   UNL     1      34.032  -5.765 -25.970  0.00  0.00    -0.004 C 
ATOM     11  C   UNL     1      33.503  -4.724 -25.214  0.00  0.00    +0.002 C 
ATOM     12  H   UNL     1      34.495  -9.494 -25.017  0.00  0.00    +0.154 HD
ENDROOT
BRANCH   1  15
ATOM     13  N   UNL     1      32.309 -15.042 -24.501  0.00  0.00    -0.236 N 
ATOM     14  N   UNL     1      32.712 -15.493 -23.302  0.00  0.00    -0.180 NA
ATOM     15  C   UNL     1      33.328 -11.063 -24.539  0.00  0.00    +0.050 C 
ATOM     16  C   UNL     1      33.183 -13.268 -23.552  0.00  0.00    +0.037 C 
ATOM     17  C   UNL     1      32.563 -13.714 -24.714  0.00  0.00    +0.067 C 
ATOM     18  C   UNL     1      33.575 -11.922 -23.455  0.00  0.00    +0.018 C 
ATOM     19  C   UNL     1      32.702 -11.546 -25.695  0.00  0.00    +0.016 C 
ATOM     20  C   UNL     1      32.305 -12.883 -25.807  0.00  0.00    +0.017 C 
ATOM     21  C   UNL     1      33.243 -14.411 -22.727  0.00  0.00    +0.119 C 
ATOM     22  H   UNL     1      31.870 -15.617 -25.169  0.00  0.00    +0.174 HD
ENDBRANCH   1  15
BRANCH   7  24
ATOM     23  N   UNL     1      31.316  -6.968 -19.863  0.00  0.00    -0.398 NA
ATOM     24  C   UNL     1      31.484  -8.060 -20.645  0.00  0.00    +0.197 C 
ATOM     25  C   UNL     1      31.080  -9.337 -20.283  0.00  0.00    +0.098 C 
ATOM     26  C   UNL     1      30.716  -7.168 -18.668  0.00  0.00    +0.110 C 
ATOM     27  C   UNL     1      30.468  -9.503 -19.047  0.00  0.00    -0.016 C 
ATOM     28  C   UNL     1      30.278  -8.403 -18.217  0.00  0.00    +0.023 C 
ATOM     29  C   UNL     1      30.529  -5.966 -17.804  0.00  0.00    +0.066 C 
ENDBRANCH   7  24
TORSDOF 2
ENDMDL
