MODEL 1
REMARK VINA RESULT:     -11.9      0.000      0.000
REMARK  Name = 24875320
REMARK  6 active torsions:
REMARK  status: ('A' for Active; 'I' for Inactive)
REMARK    1  A    between atoms: C_1  and  N_22
REMARK    2  A    between atoms: C_3  and  C_10
REMARK    3  A    between atoms: N_9  and  C_12
REMARK    4  A    between atoms: C_14  and  C_21
REMARK    5  A    between atoms: N_22  and  C_25
REMARK    6  A    between atoms: C_28  and  C_32
REMARK                            x       y       z     vdW  Elec       q    Type
REMARK                         _______ _______ _______ _____ _____    ______ ____
ROOT
ATOM      1  C   UNL     1      33.906 -22.560 -16.424  0.00  0.00    +0.044 C 
ATOM      2  C   UNL     1      35.239 -22.358 -16.067  0.00  0.00    -0.008 C 
ATOM      3  C   UNL     1      34.179 -21.060 -18.298  0.00  0.00    +0.055 C 
ATOM      4  C   UNL     1      33.376 -21.910 -17.539  0.00  0.00    +0.019 C 
ATOM      5  C   UNL     1      36.043 -21.507 -16.826  0.00  0.00    -0.003 C 
ATOM      6  C   UNL     1      35.513 -20.857 -17.941  0.00  0.00    +0.004 C 
ATOM      7  C   UNL     1      35.833 -23.041 -14.879  0.00  0.00    +0.032 C 
ENDROOT
BRANCH   3  10
ATOM      8  O   UNL     1      32.462 -20.635 -19.808  0.00  0.00    -0.270 OA
ATOM      9  N   UNL     1      34.488 -19.493 -20.117  0.00  0.00    -0.280 N 
ATOM     10  C   UNL     1      33.627 -20.382 -19.459  0.00  0.00    +0.250 C 
ATOM     11  H   UNL     1      35.385 -19.395 -19.722  0.00  0.00    +0.155 HD
BRANCH   9  12
ATOM     12  C   UNL     1      34.239 -18.718 -21.276  0.00  0.00    +0.050 C 
ATOM     13  C   UNL     1      34.136 -17.330 -21.179  0.00  0.00    +0.019 C 
ATOM     14  C   UNL     1      33.890 -16.567 -22.320  0.00  0.00    +0.073 C 
ATOM     15  C   UNL     1      34.096 -19.342 -22.515  0.00  0.00    +0.015 C 
ATOM     16  C   UNL     1      33.746 -17.192 -23.560  0.00  0.00    +0.004 C 
ATOM     17  C   UNL     1      33.850 -18.579 -23.656  0.00  0.00    +0.001 C 
BRANCH  14  21
ATOM     18  F   UNL     1      32.520 -14.610 -22.450  0.00  0.00    -0.166 F 
ATOM     19  F   UNL     1      34.122 -14.594 -20.989  0.00  0.00    -0.166 F 
ATOM     20  F   UNL     1      34.585 -14.434 -23.108  0.00  0.00    -0.166 F 
ATOM     21  C   UNL     1      33.779 -15.084 -22.217  0.00  0.00    +0.419 C 
ENDBRANCH  14  21
ENDBRANCH   9  12
ENDBRANCH   3  10
BRANCH   1  22
ATOM     22  N   UNL     1      33.078 -23.419 -15.667  0.00  0.00    -0.312 N 
ATOM     23  H   UNL     1      33.414 -24.343 -15.609  0.00  0.00    +0.152 HD
BRANCH  22  25
ATOM     24  N   UNL     1      30.713 -22.897 -12.880  0.00  0.00    -0.241 NA
ATOM     25  C   UNL     1      31.867 -23.212 -14.980  0.00  0.00    +0.068 C 
ATOM     26  C   UNL     1      30.661 -23.118 -15.666  0.00  0.00    +0.022 C 
ATOM     27  C   UNL     1      31.839 -23.096 -13.600  0.00  0.00    +0.113 C 
ATOM     28  C   UNL     1      29.481 -22.912 -14.960  0.00  0.00    +0.073 C 
ATOM     29  C   UNL     1      29.559 -22.810 -13.581  0.00  0.00    +0.103 C 
BRANCH  28  32
ATOM     30  O   UNL     1      27.818 -21.735 -16.142  0.00  0.00    -0.270 OA
ATOM     31  N   UNL     1      27.430 -23.961 -15.753  0.00  0.00    -0.325 N 
ATOM     32  C   UNL     1      28.206 -22.809 -15.647  0.00  0.00    +0.244 C 
ATOM     33  H   UNL     1      26.560 -23.929 -16.212  0.00  0.00    +0.145 HD
ATOM     34  H   UNL     1      27.753 -24.809 -15.369  0.00  0.00    +0.145 HD
ENDBRANCH  28  32
ENDBRANCH  22  25
ENDBRANCH   1  22
TORSDOF 6
ENDMDL
MODEL 2
REMARK VINA RESULT:     -11.8      3.500      5.423
REMARK  Name = 24875320
REMARK  6 active torsions:
REMARK  status: ('A' for Active; 'I' for Inactive)
REMARK    1  A    between atoms: C_1  and  N_22
REMARK    2  A    between atoms: C_3  and  C_10
REMARK    3  A    between atoms: N_9  and  C_12
REMARK    4  A    between atoms: C_14  and  C_21
REMARK    5  A    between atoms: N_22  and  C_25
REMARK    6  A    between atoms: C_28  and  C_32
REMARK                            x       y       z     vdW  Elec       q    Type
REMARK                         _______ _______ _______ _____ _____    ______ ____
ROOT
ATOM      1  C   UNL     1      33.778 -22.724 -14.708  0.00  0.00    +0.044 C 
ATOM      2  C   UNL     1      32.483 -23.168 -14.970  0.00  0.00    -0.008 C 
ATOM      3  C   UNL     1      33.994 -22.001 -17.004  0.00  0.00    +0.055 C 
ATOM      4  C   UNL     1      34.534 -22.140 -15.725  0.00  0.00    +0.019 C 
ATOM      5  C   UNL     1      31.942 -23.029 -16.248  0.00  0.00    -0.003 C 
ATOM      6  C   UNL     1      32.698 -22.446 -17.265  0.00  0.00    +0.004 C 
ATOM      7  C   UNL     1      31.650 -23.796 -13.900  0.00  0.00    +0.032 C 
ENDROOT
BRANCH   3  10
ATOM      8  O   UNL     1      35.988 -21.677 -18.157  0.00  0.00    -0.270 OA
ATOM      9  N   UNL     1      34.099 -20.498 -18.898  0.00  0.00    -0.280 N 
ATOM     10  C   UNL     1      34.782 -21.393 -18.063  0.00  0.00    +0.250 C 
ATOM     11  H   UNL     1      33.142 -20.374 -18.701  0.00  0.00    +0.155 HD
BRANCH   9  12
ATOM     12  C   UNL     1      34.605 -19.746 -19.987  0.00  0.00    +0.050 C 
ATOM     13  C   UNL     1      33.871 -19.649 -21.170  0.00  0.00    +0.019 C 
ATOM     14  C   UNL     1      34.369 -18.909 -22.242  0.00  0.00    +0.073 C 
ATOM     15  C   UNL     1      35.838 -19.103 -19.877  0.00  0.00    +0.015 C 
ATOM     16  C   UNL     1      35.603 -18.266 -22.131  0.00  0.00    +0.004 C 
ATOM     17  C   UNL     1      36.336 -18.363 -20.949  0.00  0.00    +0.001 C 
BRANCH  14  21
ATOM     18  F   UNL     1      32.234 -18.770 -23.311  0.00  0.00    -0.166 F 
ATOM     19  F   UNL     1      33.870 -17.685 -24.234  0.00  0.00    -0.166 F 
ATOM     20  F   UNL     1      33.807 -19.856 -24.348  0.00  0.00    -0.166 F 
ATOM     21  C   UNL     1      33.586 -18.805 -23.505  0.00  0.00    +0.419 C 
ENDBRANCH  14  21
ENDBRANCH   9  12
ENDBRANCH   3  10
BRANCH   1  22
ATOM     22  N   UNL     1      34.341 -22.856 -13.420  0.00  0.00    -0.312 N 
ATOM     23  H   UNL     1      34.055 -22.156 -12.789  0.00  0.00    +0.152 HD
BRANCH  22  25
ATOM     24  N   UNL     1      35.741 -25.352 -11.085  0.00  0.00    -0.241 NA
ATOM     25  C   UNL     1      35.231 -23.793 -12.860  0.00  0.00    +0.068 C 
ATOM     26  C   UNL     1      36.437 -24.094 -13.482  0.00  0.00    +0.022 C 
ATOM     27  C   UNL     1      34.932 -24.443 -11.674  0.00  0.00    +0.113 C 
ATOM     28  C   UNL     1      37.296 -25.025 -12.907  0.00  0.00    +0.073 C 
ATOM     29  C   UNL     1      36.905 -25.619 -11.718  0.00  0.00    +0.103 C 
BRANCH  28  32
ATOM     30  O   UNL     1      39.335 -26.197 -13.028  0.00  0.00    -0.270 OA
ATOM     31  N   UNL     1      38.885 -24.729 -14.730  0.00  0.00    -0.325 N 
ATOM     32  C   UNL     1      38.563 -25.361 -13.531  0.00  0.00    +0.244 C 
ATOM     33  H   UNL     1      39.736 -24.932 -15.182  0.00  0.00    +0.145 HD
ATOM     34  H   UNL     1      38.261 -24.079 -15.127  0.00  0.00    +0.145 HD
ENDBRANCH  28  32
ENDBRANCH  22  25
ENDBRANCH   1  22
TORSDOF 6
ENDMDL
MODEL 3
REMARK VINA RESULT:     -11.4      3.269      5.167
REMARK  Name = 24875320
REMARK  6 active torsions:
REMARK  status: ('A' for Active; 'I' for Inactive)
REMARK    1  A    between atoms: C_1  and  N_22
REMARK    2  A    between atoms: C_3  and  C_10
REMARK    3  A    between atoms: N_9  and  C_12
REMARK    4  A    between atoms: C_14  and  C_21
REMARK    5  A    between atoms: N_22  and  C_25
REMARK    6  A    between atoms: C_28  and  C_32
REMARK                            x       y       z     vdW  Elec       q    Type
REMARK                         _______ _______ _______ _____ _____    ______ ____
ROOT
ATOM      1  C   UNL     1      32.752 -23.325 -15.208  0.00  0.00    +0.044 C 
ATOM      2  C   UNL     1      31.380 -23.141 -15.375  0.00  0.00    -0.008 C 
ATOM      3  C   UNL     1      33.167 -22.070 -17.231  0.00  0.00    +0.055 C 
ATOM      4  C   UNL     1      33.645 -22.790 -16.136  0.00  0.00    +0.019 C 
ATOM      5  C   UNL     1      30.900 -22.422 -16.470  0.00  0.00    -0.003 C 
ATOM      6  C   UNL     1      31.794 -21.886 -17.398  0.00  0.00    +0.004 C 
ATOM      7  C   UNL     1      30.400 -23.703 -14.396  0.00  0.00    +0.032 C 
ENDROOT
BRANCH   3  10
ATOM      8  O   UNL     1      35.265 -21.934 -18.224  0.00  0.00    -0.270 OA
ATOM      9  N   UNL     1      33.588 -20.503 -19.027  0.00  0.00    -0.280 N 
ATOM     10  C   UNL     1      34.098 -21.512 -18.198  0.00  0.00    +0.250 C 
ATOM     11  H   UNL     1      32.640 -20.275 -18.890  0.00  0.00    +0.155 HD
BRANCH   9  12
ATOM     12  C   UNL     1      34.259 -19.768 -20.035  0.00  0.00    +0.050 C 
ATOM     13  C   UNL     1      33.650 -19.566 -21.274  0.00  0.00    +0.019 C 
ATOM     14  C   UNL     1      34.311 -18.842 -22.266  0.00  0.00    +0.073 C 
ATOM     15  C   UNL     1      35.528 -19.245 -19.788  0.00  0.00    +0.015 C 
ATOM     16  C   UNL     1      35.581 -18.319 -22.019  0.00  0.00    +0.004 C 
ATOM     17  C   UNL     1      36.188 -18.521 -20.781  0.00  0.00    +0.001 C 
BRANCH  14  21
ATOM     18  F   UNL     1      32.300 -18.542 -23.527  0.00  0.00    -0.166 F 
ATOM     19  F   UNL     1      34.060 -17.478 -24.214  0.00  0.00    -0.166 F 
ATOM     20  F   UNL     1      33.924 -19.633 -24.474  0.00  0.00    -0.166 F 
ATOM     21  C   UNL     1      33.661 -18.626 -23.590  0.00  0.00    +0.419 C 
ENDBRANCH  14  21
ENDBRANCH   9  12
ENDBRANCH   3  10
BRANCH   1  22
ATOM     22  N   UNL     1      33.255 -24.050 -14.105  0.00  0.00    -0.312 N 
ATOM     23  H   UNL     1      32.555 -24.478 -13.560  0.00  0.00    +0.152 HD
BRANCH  22  25
ATOM     24  N   UNL     1      36.673 -25.429 -13.879  0.00  0.00    -0.241 NA
ATOM     25  C   UNL     1      34.561 -24.280 -13.632  0.00  0.00    +0.068 C 
ATOM     26  C   UNL     1      35.038 -23.628 -12.501  0.00  0.00    +0.022 C 
ATOM     27  C   UNL     1      35.410 -25.163 -14.279  0.00  0.00    +0.113 C 
ATOM     28  C   UNL     1      36.333 -23.875 -12.058  0.00  0.00    +0.073 C 
ATOM     29  C   UNL     1      37.103 -24.777 -12.775  0.00  0.00    +0.103 C 
BRANCH  28  32
ATOM     30  O   UNL     1      38.031 -22.786 -10.842  0.00  0.00    -0.270 OA
ATOM     31  N   UNL     1      36.010 -23.044  -9.791  0.00  0.00    -0.325 N 
ATOM     32  C   UNL     1      36.862 -23.211 -10.881  0.00  0.00    +0.244 C 
ATOM     33  H   UNL     1      36.334 -22.598  -8.976  0.00  0.00    +0.145 HD
ATOM     34  H   UNL     1      35.082 -23.372  -9.837  0.00  0.00    +0.145 HD
ENDBRANCH  28  32
ENDBRANCH  22  25
ENDBRANCH   1  22
TORSDOF 6
ENDMDL
MODEL 4
REMARK VINA RESULT:     -11.4      4.484      8.227
REMARK  Name = 24875320
REMARK  6 active torsions:
REMARK  status: ('A' for Active; 'I' for Inactive)
REMARK    1  A    between atoms: C_1  and  N_22
REMARK    2  A    between atoms: C_3  and  C_10
REMARK    3  A    between atoms: N_9  and  C_12
REMARK    4  A    between atoms: C_14  and  C_21
REMARK    5  A    between atoms: N_22  and  C_25
REMARK    6  A    between atoms: C_28  and  C_32
REMARK                            x       y       z     vdW  Elec       q    Type
REMARK                         _______ _______ _______ _____ _____    ______ ____
ROOT
ATOM      1  C   UNL     1      34.331 -16.659 -22.575  0.00  0.00    +0.044 C 
ATOM      2  C   UNL     1      33.598 -17.144 -23.658  0.00  0.00    -0.008 C 
ATOM      3  C   UNL     1      33.317 -14.484 -22.864  0.00  0.00    +0.055 C 
ATOM      4  C   UNL     1      34.190 -15.329 -22.179  0.00  0.00    +0.019 C 
ATOM      5  C   UNL     1      32.724 -16.300 -24.344  0.00  0.00    -0.003 C 
ATOM      6  C   UNL     1      32.584 -14.970 -23.947  0.00  0.00    +0.004 C 
ATOM      7  C   UNL     1      33.728 -18.564 -24.104  0.00  0.00    +0.032 C 
ENDROOT
BRANCH   3  10
ATOM      8  O   UNL     1      32.839 -12.848 -21.281  0.00  0.00    -0.270 OA
ATOM      9  N   UNL     1      33.405 -12.136 -23.444  0.00  0.00    -0.280 N 
ATOM     10  C   UNL     1      33.171 -13.098 -22.451  0.00  0.00    +0.250 C 
ATOM     11  H   UNL     1      33.663 -12.486 -24.327  0.00  0.00    +0.155 HD
BRANCH   9  12
ATOM     12  C   UNL     1      33.317 -10.726 -23.343  0.00  0.00    +0.050 C 
ATOM     13  C   UNL     1      32.279 -10.141 -22.618  0.00  0.00    +0.019 C 
ATOM     14  C   UNL     1      32.192  -8.752 -22.519  0.00  0.00    +0.073 C 
ATOM     15  C   UNL     1      34.268  -9.921 -23.970  0.00  0.00    +0.015 C 
ATOM     16  C   UNL     1      33.145  -7.948 -23.147  0.00  0.00    +0.004 C 
ATOM     17  C   UNL     1      34.182  -8.533 -23.871  0.00  0.00    +0.001 C 
BRANCH  14  21
ATOM     18  F   UNL     1      31.469  -7.038 -21.016  0.00  0.00    -0.166 F 
ATOM     19  F   UNL     1      30.052  -7.686 -22.525  0.00  0.00    -0.166 F 
ATOM     20  F   UNL     1      30.520  -8.987 -20.846  0.00  0.00    -0.166 F 
ATOM     21  C   UNL     1      31.083  -8.127 -21.744  0.00  0.00    +0.419 C 
ENDBRANCH  14  21
ENDBRANCH   9  12
ENDBRANCH   3  10
BRANCH   1  22
ATOM     22  N   UNL     1      35.219 -17.499 -21.869  0.00  0.00    -0.312 N 
ATOM     23  H   UNL     1      36.168 -17.338 -22.078  0.00  0.00    +0.152 HD
BRANCH  22  25
ATOM     24  N   UNL     1      35.941 -20.023 -19.272  0.00  0.00    -0.241 NA
ATOM     25  C   UNL     1      35.014 -18.522 -20.924  0.00  0.00    +0.068 C 
ATOM     26  C   UNL     1      33.745 -19.042 -20.695  0.00  0.00    +0.022 C 
ATOM     27  C   UNL     1      36.070 -19.042 -20.194  0.00  0.00    +0.113 C 
ATOM     28  C   UNL     1      33.572 -20.051 -19.754  0.00  0.00    +0.073 C 
ATOM     29  C   UNL     1      34.693 -20.504 -19.076  0.00  0.00    +0.103 C 
BRANCH  28  32
ATOM     30  O   UNL     1      31.245 -20.202 -20.081  0.00  0.00    -0.270 OA
ATOM     31  N   UNL     1      32.172 -21.653 -18.567  0.00  0.00    -0.325 N 
ATOM     32  C   UNL     1      32.260 -20.615 -19.492  0.00  0.00    +0.244 C 
ATOM     33  H   UNL     1      31.299 -22.059 -18.364  0.00  0.00    +0.145 HD
ATOM     34  H   UNL     1      32.984 -21.981 -18.116  0.00  0.00    +0.145 HD
ENDBRANCH  28  32
ENDBRANCH  22  25
ENDBRANCH   1  22
TORSDOF 6
ENDMDL
MODEL 5
REMARK VINA RESULT:     -11.3      2.219      3.273
REMARK  Name = 24875320
REMARK  6 active torsions:
REMARK  status: ('A' for Active; 'I' for Inactive)
REMARK    1  A    between atoms: C_1  and  N_22
REMARK    2  A    between atoms: C_3  and  C_10
REMARK    3  A    between atoms: N_9  and  C_12
REMARK    4  A    between atoms: C_14  and  C_21
REMARK    5  A    between atoms: N_22  and  C_25
REMARK    6  A    between atoms: C_28  and  C_32
REMARK                            x       y       z     vdW  Elec       q    Type
REMARK                         _______ _______ _______ _____ _____    ______ ____
ROOT
ATOM      1  C   UNL     1      34.709 -23.967 -14.079  0.00  0.00    +0.044 C 
ATOM      2  C   UNL     1      35.990 -24.261 -13.611  0.00  0.00    -0.008 C 
ATOM      3  C   UNL     1      35.650 -22.410 -15.670  0.00  0.00    +0.055 C 
ATOM      4  C   UNL     1      34.539 -23.041 -15.108  0.00  0.00    +0.019 C 
ATOM      5  C   UNL     1      37.100 -23.631 -14.172  0.00  0.00    -0.003 C 
ATOM      6  C   UNL     1      36.930 -22.705 -15.201  0.00  0.00    +0.004 C 
ATOM      7  C   UNL     1      36.201 -25.250 -12.510  0.00  0.00    +0.032 C 
ENDROOT
BRANCH   3  10
ATOM      8  O   UNL     1      36.270 -20.497 -16.839  0.00  0.00    -0.270 OA
ATOM      9  N   UNL     1      34.372 -21.660 -17.584  0.00  0.00    -0.280 N 
ATOM     10  C   UNL     1      35.472 -21.444 -16.742  0.00  0.00    +0.250 C 
ATOM     11  H   UNL     1      33.829 -22.456 -17.383  0.00  0.00    +0.155 HD
BRANCH   9  12
ATOM     12  C   UNL     1      33.939 -20.881 -18.685  0.00  0.00    +0.050 C 
ATOM     13  C   UNL     1      34.863 -20.145 -19.427  0.00  0.00    +0.019 C 
ATOM     14  C   UNL     1      34.436 -19.379 -20.511  0.00  0.00    +0.073 C 
ATOM     15  C   UNL     1      32.587 -20.851 -19.028  0.00  0.00    +0.015 C 
ATOM     16  C   UNL     1      33.084 -19.348 -20.854  0.00  0.00    +0.004 C 
ATOM     17  C   UNL     1      32.160 -20.084 -20.112  0.00  0.00    +0.001 C 
BRANCH  14  21
ATOM     18  F   UNL     1      36.712 -18.743 -20.880  0.00  0.00    -0.166 F 
ATOM     19  F   UNL     1      35.444 -18.918 -22.630  0.00  0.00    -0.166 F 
ATOM     20  F   UNL     1      35.180 -17.249 -21.261  0.00  0.00    -0.166 F 
ATOM     21  C   UNL     1      35.423 -18.592 -21.303  0.00  0.00    +0.419 C 
ENDBRANCH  14  21
ENDBRANCH   9  12
ENDBRANCH   3  10
BRANCH   1  22
ATOM     22  N   UNL     1      33.574 -24.597 -13.523  0.00  0.00    -0.312 N 
ATOM     23  H   UNL     1      33.779 -25.434 -13.047  0.00  0.00    +0.152 HD
BRANCH  22  25
ATOM     24  N   UNL     1      30.074 -24.316 -12.381  0.00  0.00    -0.241 NA
ATOM     25  C   UNL     1      32.207 -24.262 -13.516  0.00  0.00    +0.068 C 
ATOM     26  C   UNL     1      31.633 -23.573 -14.579  0.00  0.00    +0.022 C 
ATOM     27  C   UNL     1      31.392 -24.607 -12.451  0.00  0.00    +0.113 C 
ATOM     28  C   UNL     1      30.280 -23.255 -14.544  0.00  0.00    +0.073 C 
ATOM     29  C   UNL     1      29.550 -23.646 -13.433  0.00  0.00    +0.103 C 
BRANCH  28  32
ATOM     30  O   UNL     1      30.318 -22.064 -16.576  0.00  0.00    -0.270 OA
ATOM     31  N   UNL     1      28.263 -22.408 -15.617  0.00  0.00    -0.325 N 
ATOM     32  C   UNL     1      29.650 -22.537 -15.638  0.00  0.00    +0.244 C 
ATOM     33  H   UNL     1      27.802 -21.928 -16.343  0.00  0.00    +0.145 HD
ATOM     34  H   UNL     1      27.743 -22.798 -14.878  0.00  0.00    +0.145 HD
ENDBRANCH  28  32
ENDBRANCH  22  25
ENDBRANCH   1  22
TORSDOF 6
ENDMDL
MODEL 6
REMARK VINA RESULT:     -11.3      4.450      8.134
REMARK  Name = 24875320
REMARK  6 active torsions:
REMARK  status: ('A' for Active; 'I' for Inactive)
REMARK    1  A    between atoms: C_1  and  N_22
REMARK    2  A    between atoms: C_3  and  C_10
REMARK    3  A    between atoms: N_9  and  C_12
REMARK    4  A    between atoms: C_14  and  C_21
REMARK    5  A    between atoms: N_22  and  C_25
REMARK    6  A    between atoms: C_28  and  C_32
REMARK                            x       y       z     vdW  Elec       q    Type
REMARK                         _______ _______ _______ _____ _____    ______ ____
ROOT
ATOM      1  C   UNL     1      34.304 -16.615 -22.540  0.00  0.00    +0.044 C 
ATOM      2  C   UNL     1      33.665 -17.154 -23.656  0.00  0.00    -0.008 C 
ATOM      3  C   UNL     1      33.171 -14.512 -22.908  0.00  0.00    +0.055 C 
ATOM      4  C   UNL     1      34.058 -15.293 -22.167  0.00  0.00    +0.019 C 
ATOM      5  C   UNL     1      32.778 -16.374 -24.398  0.00  0.00    -0.003 C 
ATOM      6  C   UNL     1      32.532 -15.052 -24.025  0.00  0.00    +0.004 C 
ATOM      7  C   UNL     1      33.909 -18.567 -24.078  0.00  0.00    +0.032 C 
ENDROOT
BRANCH   3  10
ATOM      8  O   UNL     1      33.567 -12.225 -23.057  0.00  0.00    -0.270 OA
ATOM      9  N   UNL     1      31.942 -12.950 -21.528  0.00  0.00    -0.280 N 
ATOM     10  C   UNL     1      32.915 -13.135 -22.520  0.00  0.00    +0.250 C 
ATOM     11  H   UNL     1      31.507 -13.769 -21.197  0.00  0.00    +0.155 HD
BRANCH   9  12
ATOM     12  C   UNL     1      31.502 -11.739 -20.939  0.00  0.00    +0.050 C 
ATOM     13  C   UNL     1      31.509 -10.558 -21.682  0.00  0.00    +0.019 C 
ATOM     14  C   UNL     1      31.076  -9.366 -21.102  0.00  0.00    +0.073 C 
ATOM     15  C   UNL     1      31.062 -11.727 -19.615  0.00  0.00    +0.015 C 
ATOM     16  C   UNL     1      30.636  -9.354 -19.777  0.00  0.00    +0.004 C 
ATOM     17  C   UNL     1      30.629 -10.535 -19.035  0.00  0.00    +0.001 C 
BRANCH  14  21
ATOM     18  F   UNL     1      29.939  -7.369 -21.768  0.00  0.00    -0.166 F 
ATOM     19  F   UNL     1      32.094  -7.250 -21.554  0.00  0.00    -0.166 F 
ATOM     20  F   UNL     1      31.228  -8.326 -23.234  0.00  0.00    -0.166 F 
ATOM     21  C   UNL     1      31.083  -8.104 -21.895  0.00  0.00    +0.419 C 
ENDBRANCH  14  21
ENDBRANCH   9  12
ENDBRANCH   3  10
BRANCH   1  22
ATOM     22  N   UNL     1      35.204 -17.391 -21.777  0.00  0.00    -0.312 N 
ATOM     23  H   UNL     1      36.148 -17.139 -21.900  0.00  0.00    +0.152 HD
BRANCH  22  25
ATOM     24  N   UNL     1      35.969 -20.015 -19.294  0.00  0.00    -0.241 NA
ATOM     25  C   UNL     1      35.015 -18.454 -20.874  0.00  0.00    +0.068 C 
ATOM     26  C   UNL     1      33.753 -18.995 -20.657  0.00  0.00    +0.022 C 
ATOM     27  C   UNL     1      36.081 -18.995 -20.174  0.00  0.00    +0.113 C 
ATOM     28  C   UNL     1      33.597 -20.044 -19.758  0.00  0.00    +0.073 C 
ATOM     29  C   UNL     1      34.727 -20.515 -19.109  0.00  0.00    +0.103 C 
BRANCH  28  32
ATOM     30  O   UNL     1      31.255 -20.139 -19.992  0.00  0.00    -0.270 OA
ATOM     31  N   UNL     1      32.235 -21.779 -18.724  0.00  0.00    -0.325 N 
ATOM     32  C   UNL     1      32.292 -20.630 -19.510  0.00  0.00    +0.244 C 
ATOM     33  H   UNL     1      31.367 -22.204 -18.535  0.00  0.00    +0.145 HD
ATOM     34  H   UNL     1      33.063 -22.167 -18.358  0.00  0.00    +0.145 HD
ENDBRANCH  28  32
ENDBRANCH  22  25
ENDBRANCH   1  22
TORSDOF 6
ENDMDL
MODEL 7
REMARK VINA RESULT:     -11.2      5.041      9.413
REMARK  Name = 24875320
REMARK  6 active torsions:
REMARK  status: ('A' for Active; 'I' for Inactive)
REMARK    1  A    between atoms: C_1  and  N_22
REMARK    2  A    between atoms: C_3  and  C_10
REMARK    3  A    between atoms: N_9  and  C_12
REMARK    4  A    between atoms: C_14  and  C_21
REMARK    5  A    between atoms: N_22  and  C_25
REMARK    6  A    between atoms: C_28  and  C_32
REMARK                            x       y       z     vdW  Elec       q    Type
REMARK                         _______ _______ _______ _____ _____    ______ ____
ROOT
ATOM      1  C   UNL     1      30.838 -22.637 -15.815  0.00  0.00    +0.044 C 
ATOM      2  C   UNL     1      29.539 -22.747 -15.320  0.00  0.00    -0.008 C 
ATOM      3  C   UNL     1      31.708 -23.438 -13.708  0.00  0.00    +0.055 C 
ATOM      4  C   UNL     1      31.923 -22.982 -15.008  0.00  0.00    +0.019 C 
ATOM      5  C   UNL     1      29.324 -23.203 -14.020  0.00  0.00    -0.003 C 
ATOM      6  C   UNL     1      30.408 -23.548 -13.213  0.00  0.00    +0.004 C 
ATOM      7  C   UNL     1      28.358 -22.385 -16.162  0.00  0.00    +0.032 C 
ENDROOT
BRANCH   3  10
ATOM      8  O   UNL     1      32.627 -24.339 -11.770  0.00  0.00    -0.270 OA
ATOM      9  N   UNL     1      34.105 -23.470 -13.373  0.00  0.00    -0.280 N 
ATOM     10  C   UNL     1      32.839 -23.797 -12.867  0.00  0.00    +0.250 C 
ATOM     11  H   UNL     1      34.115 -23.043 -14.260  0.00  0.00    +0.155 HD
BRANCH   9  12
ATOM     12  C   UNL     1      35.373 -23.674 -12.774  0.00  0.00    +0.050 C 
ATOM     13  C   UNL     1      36.362 -24.382 -13.457  0.00  0.00    +0.019 C 
ATOM     14  C   UNL     1      37.610 -24.582 -12.867  0.00  0.00    +0.073 C 
ATOM     15  C   UNL     1      35.632 -23.167 -11.501  0.00  0.00    +0.015 C 
ATOM     16  C   UNL     1      37.868 -24.075 -11.593  0.00  0.00    +0.004 C 
ATOM     17  C   UNL     1      36.879 -23.367 -10.911  0.00  0.00    +0.001 C 
BRANCH  14  21
ATOM     18  F   UNL     1      39.691 -25.759 -12.797  0.00  0.00    -0.166 F 
ATOM     19  F   UNL     1      38.206 -26.470 -14.209  0.00  0.00    -0.166 F 
ATOM     20  F   UNL     1      39.253 -24.601 -14.584  0.00  0.00    -0.166 F 
ATOM     21  C   UNL     1      38.667 -25.339 -13.596  0.00  0.00    +0.419 C 
ENDBRANCH  14  21
ENDBRANCH   9  12
ENDBRANCH   3  10
BRANCH   1  22
ATOM     22  N   UNL     1      31.074 -22.178 -17.129  0.00  0.00    -0.312 N 
ATOM     23  H   UNL     1      30.262 -22.128 -17.684  0.00  0.00    +0.152 HD
BRANCH  22  25
ATOM     24  N   UNL     1      34.631 -22.004 -18.107  0.00  0.00    -0.241 NA
ATOM     25  C   UNL     1      32.244 -21.778 -17.803  0.00  0.00    +0.068 C 
ATOM     26  C   UNL     1      32.202 -20.804 -18.794  0.00  0.00    +0.022 C 
ATOM     27  C   UNL     1      33.472 -22.342 -17.499  0.00  0.00    +0.113 C 
ATOM     28  C   UNL     1      33.374 -20.430 -19.443  0.00  0.00    +0.073 C 
ATOM     29  C   UNL     1      34.552 -21.054 -19.066  0.00  0.00    +0.103 C 
BRANCH  28  32
ATOM     30  O   UNL     1      32.512 -19.422 -21.390  0.00  0.00    -0.270 OA
ATOM     31  N   UNL     1      34.332 -18.416 -20.424  0.00  0.00    -0.325 N 
ATOM     32  C   UNL     1      33.364 -19.416 -20.482  0.00  0.00    +0.244 C 
ATOM     33  H   UNL     1      34.356 -17.712 -21.111  0.00  0.00    +0.145 HD
ATOM     34  H   UNL     1      34.993 -18.413 -19.694  0.00  0.00    +0.145 HD
ENDBRANCH  28  32
ENDBRANCH  22  25
ENDBRANCH   1  22
TORSDOF 6
ENDMDL
MODEL 8
REMARK VINA RESULT:     -11.0      4.547      9.576
REMARK  Name = 24875320
REMARK  6 active torsions:
REMARK  status: ('A' for Active; 'I' for Inactive)
REMARK    1  A    between atoms: C_1  and  N_22
REMARK    2  A    between atoms: C_3  and  C_10
REMARK    3  A    between atoms: N_9  and  C_12
REMARK    4  A    between atoms: C_14  and  C_21
REMARK    5  A    between atoms: N_22  and  C_25
REMARK    6  A    between atoms: C_28  and  C_32
REMARK                            x       y       z     vdW  Elec       q    Type
REMARK                         _______ _______ _______ _____ _____    ______ ____
ROOT
ATOM      1  C   UNL     1      34.188 -19.528 -20.886  0.00  0.00    +0.044 C 
ATOM      2  C   UNL     1      35.532 -19.331 -20.570  0.00  0.00    -0.008 C 
ATOM      3  C   UNL     1      33.924 -20.897 -18.912  0.00  0.00    +0.055 C 
ATOM      4  C   UNL     1      33.384 -20.312 -20.058  0.00  0.00    +0.019 C 
ATOM      5  C   UNL     1      36.072 -19.916 -19.425  0.00  0.00    -0.003 C 
ATOM      6  C   UNL     1      35.269 -20.700 -18.597  0.00  0.00    +0.004 C 
ATOM      7  C   UNL     1      36.415 -18.496 -21.439  0.00  0.00    +0.032 C 
ENDROOT
BRANCH   3  10
ATOM      8  O   UNL     1      31.972 -22.076 -18.458  0.00  0.00    -0.270 OA
ATOM      9  N   UNL     1      33.618 -22.014 -16.787  0.00  0.00    -0.280 N 
ATOM     10  C   UNL     1      33.087 -21.714 -18.049  0.00  0.00    +0.250 C 
ATOM     11  H   UNL     1      34.518 -21.658 -16.606  0.00  0.00    +0.155 HD
BRANCH   9  12
ATOM     12  C   UNL     1      33.029 -22.761 -15.737  0.00  0.00    +0.050 C 
ATOM     13  C   UNL     1      31.645 -22.753 -15.566  0.00  0.00    +0.019 C 
ATOM     14  C   UNL     1      31.065 -23.489 -14.532  0.00  0.00    +0.073 C 
ATOM     15  C   UNL     1      33.834 -23.505 -14.875  0.00  0.00    +0.015 C 
ATOM     16  C   UNL     1      31.871 -24.233 -13.669  0.00  0.00    +0.004 C 
ATOM     17  C   UNL     1      33.255 -24.241 -13.841  0.00  0.00    +0.001 C 
BRANCH  14  21
ATOM     18  F   UNL     1      29.174 -24.083 -13.195  0.00  0.00    -0.166 F 
ATOM     19  F   UNL     1      29.048 -22.226 -14.307  0.00  0.00    -0.166 F 
ATOM     20  F   UNL     1      28.928 -24.128 -15.354  0.00  0.00    -0.166 F 
ATOM     21  C   UNL     1      29.586 -23.481 -14.348  0.00  0.00    +0.419 C 
ENDBRANCH  14  21
ENDBRANCH   9  12
ENDBRANCH   3  10
BRANCH   1  22
ATOM     22  N   UNL     1      33.623 -18.943 -22.041  0.00  0.00    -0.312 N 
ATOM     23  H   UNL     1      33.062 -19.560 -22.564  0.00  0.00    +0.152 HD
BRANCH  22  25
ATOM     24  N   UNL     1      33.917 -16.247 -24.548  0.00  0.00    -0.241 NA
ATOM     25  C   UNL     1      33.706 -17.649 -22.590  0.00  0.00    +0.068 C 
ATOM     26  C   UNL     1      33.663 -16.522 -21.778  0.00  0.00    +0.022 C 
ATOM     27  C   UNL     1      33.833 -17.460 -23.956  0.00  0.00    +0.113 C 
ATOM     28  C   UNL     1      33.746 -15.256 -22.349  0.00  0.00    +0.073 C 
ATOM     29  C   UNL     1      33.872 -15.174 -23.726  0.00  0.00    +0.103 C 
BRANCH  28  32
ATOM     30  O   UNL     1      33.664 -14.123 -20.286  0.00  0.00    -0.270 OA
ATOM     31  N   UNL     1      33.729 -12.827 -22.176  0.00  0.00    -0.325 N 
ATOM     32  C   UNL     1      33.704 -14.060 -21.528  0.00  0.00    +0.244 C 
ATOM     33  H   UNL     1      33.702 -11.994 -21.651  0.00  0.00    +0.145 HD
ATOM     34  H   UNL     1      33.774 -12.787 -23.159  0.00  0.00    +0.145 HD
ENDBRANCH  28  32
ENDBRANCH  22  25
ENDBRANCH   1  22
TORSDOF 6
ENDMDL
MODEL 9
REMARK VINA RESULT:     -11.0      5.538     10.828
REMARK  Name = 24875320
REMARK  6 active torsions:
REMARK  status: ('A' for Active; 'I' for Inactive)
REMARK    1  A    between atoms: C_1  and  N_22
REMARK    2  A    between atoms: C_3  and  C_10
REMARK    3  A    between atoms: N_9  and  C_12
REMARK    4  A    between atoms: C_14  and  C_21
REMARK    5  A    between atoms: N_22  and  C_25
REMARK    6  A    between atoms: C_28  and  C_32
REMARK                            x       y       z     vdW  Elec       q    Type
REMARK                         _______ _______ _______ _____ _____    ______ ____
ROOT
ATOM      1  C   UNL     1      33.346 -12.949 -23.538  0.00  0.00    +0.044 C 
ATOM      2  C   UNL     1      32.868 -13.504 -24.725  0.00  0.00    -0.008 C 
ATOM      3  C   UNL     1      33.553 -15.161 -22.587  0.00  0.00    +0.055 C 
ATOM      4  C   UNL     1      33.688 -13.777 -22.469  0.00  0.00    +0.019 C 
ATOM      5  C   UNL     1      32.732 -14.887 -24.843  0.00  0.00    -0.003 C 
ATOM      6  C   UNL     1      33.074 -15.715 -23.774  0.00  0.00    +0.004 C 
ATOM      7  C   UNL     1      32.494 -12.641 -25.886  0.00  0.00    +0.032 C 
ENDROOT
BRANCH   3  10
ATOM      8  O   UNL     1      34.035 -15.527 -20.342  0.00  0.00    -0.270 OA
ATOM      9  N   UNL     1      34.105 -17.376 -21.785  0.00  0.00    -0.280 N 
ATOM     10  C   UNL     1      33.909 -16.023 -21.473  0.00  0.00    +0.250 C 
ATOM     11  H   UNL     1      33.967 -17.622 -22.728  0.00  0.00    +0.155 HD
BRANCH   9  12
ATOM     12  C   UNL     1      34.477 -18.435 -20.921  0.00  0.00    +0.050 C 
ATOM     13  C   UNL     1      33.507 -19.308 -20.428  0.00  0.00    +0.019 C 
ATOM     14  C   UNL     1      33.873 -20.351 -19.577  0.00  0.00    +0.073 C 
ATOM     15  C   UNL     1      35.814 -18.605 -20.562  0.00  0.00    +0.015 C 
ATOM     16  C   UNL     1      35.211 -20.521 -19.219  0.00  0.00    +0.004 C 
ATOM     17  C   UNL     1      36.181 -19.648 -19.711  0.00  0.00    +0.001 C 
BRANCH  14  21
ATOM     18  F   UNL     1      32.555 -21.100 -17.727  0.00  0.00    -0.166 F 
ATOM     19  F   UNL     1      31.633 -21.181 -19.689  0.00  0.00    -0.166 F 
ATOM     20  F   UNL     1      33.202 -22.594 -19.168  0.00  0.00    -0.166 F 
ATOM     21  C   UNL     1      32.837 -21.284 -19.051  0.00  0.00    +0.419 C 
ENDBRANCH  14  21
ENDBRANCH   9  12
ENDBRANCH   3  10
BRANCH   1  22
ATOM     22  N   UNL     1      33.490 -11.551 -23.401  0.00  0.00    -0.312 N 
ATOM     23  H   UNL     1      34.326 -11.199 -23.785  0.00  0.00    +0.152 HD
BRANCH  22  25
ATOM     24  N   UNL     1      31.790  -8.312 -22.894  0.00  0.00    -0.241 NA
ATOM     25  C   UNL     1      32.672 -10.561 -22.823  0.00  0.00    +0.068 C 
ATOM     26  C   UNL     1      31.956 -10.814 -21.659  0.00  0.00    +0.022 C 
ATOM     27  C   UNL     1      32.557  -9.305 -23.397  0.00  0.00    +0.113 C 
ATOM     28  C   UNL     1      31.155  -9.817 -21.112  0.00  0.00    +0.073 C 
ATOM     29  C   UNL     1      31.107  -8.594 -21.761  0.00  0.00    +0.103 C 
BRANCH  28  32
ATOM     30  O   UNL     1      29.265 -10.571 -19.926  0.00  0.00    -0.270 OA
ATOM     31  N   UNL     1      30.978  -9.686 -18.686  0.00  0.00    -0.325 N 
ATOM     32  C   UNL     1      30.394 -10.050 -19.897  0.00  0.00    +0.244 C 
ATOM     33  H   UNL     1      30.491  -9.829 -17.842  0.00  0.00    +0.145 HD
ATOM     34  H   UNL     1      31.878  -9.286 -18.673  0.00  0.00    +0.145 HD
ENDBRANCH  28  32
ENDBRANCH  22  25
ENDBRANCH   1  22
TORSDOF 6
ENDMDL
