MODEL 1
REMARK VINA RESULT:     -11.9      0.000      0.000
REMARK  Name = 46937091
REMARK  8 active torsions:
REMARK  status: ('A' for Active; 'I' for Inactive)
REMARK    1  A    between atoms: C_1  and  C_4
REMARK    2  A    between atoms: C_1  and  C_18
REMARK    3  A    between atoms: C_10  and  C_12
REMARK    4  A    between atoms: C_18  and  C_19
REMARK    5  A    between atoms: C_19  and  N_20
REMARK    6  A    between atoms: C_19  and  C_30
REMARK    7  A    between atoms: C_24  and  C_27
REMARK    8  A    between atoms: C_30  and  O_32
REMARK                            x       y       z     vdW  Elec       q    Type
REMARK                         _______ _______ _______ _____ _____    ______ ____
ROOT
ATOM      1  C   UNL     1      33.761 -24.329 -13.535  0.00  0.00    +0.031 C 
ENDROOT
BRANCH   1   4
ATOM      2  O   UNL     1      32.871 -22.768 -16.009  0.00  0.00    -0.425 OA
ATOM      3  N   UNL     1      30.755 -22.339 -16.696  0.00  0.00    -0.368 NA
ATOM      4  C   UNL     1      32.343 -24.059 -13.970  0.00  0.00    +0.014 C 
ATOM      5  C   UNL     1      32.015 -23.338 -15.112  0.00  0.00    +0.170 C 
ATOM      6  C   UNL     1      31.260 -24.535 -13.223  0.00  0.00    -0.005 C 
ATOM      7  C   UNL     1      30.720 -23.074 -15.535  0.00  0.00    +0.151 C 
ATOM      8  C   UNL     1      29.938 -24.290 -13.615  0.00  0.00    -0.019 C 
ATOM      9  C   UNL     1      29.646 -23.558 -14.775  0.00  0.00    +0.088 C 
ATOM     10  C   UNL     1      32.041 -22.192 -16.923  0.00  0.00    +0.282 C 
BRANCH  10  12
ATOM     11 CL   UNL     1      34.770 -19.362 -21.385  0.00  0.00    -0.082 Cl
ATOM     12  C   UNL     1      32.701 -21.509 -18.001  0.00  0.00    +0.066 C 
ATOM     13  C   UNL     1      31.963 -20.710 -18.875  0.00  0.00    +0.007 C 
ATOM     14  C   UNL     1      34.078 -21.642 -18.173  0.00  0.00    +0.007 C 
ATOM     15  C   UNL     1      32.603 -20.047 -19.922  0.00  0.00    +0.012 C 
ATOM     16  C   UNL     1      34.718 -20.979 -19.219  0.00  0.00    +0.012 C 
ATOM     17  C   UNL     1      33.980 -20.180 -20.094  0.00  0.00    +0.058 C 
ENDBRANCH  10  12
ENDBRANCH   1   4
BRANCH   1  18
ATOM     18  C   UNL     1      34.062 -23.946 -12.076  0.00  0.00    +0.023 C 
BRANCH  18  19
ATOM     19  C   UNL     1      35.401 -23.193 -11.856  0.00  0.00    +0.087 C 
BRANCH  19  20
ATOM     20  N   UNL     1      36.483 -23.616 -12.842  0.00  0.00    -0.246 NA
ATOM     21  N   UNL     1      37.760 -23.608 -14.659  0.00  0.00    -0.251 NA
ATOM     22  C   UNL     1      37.342 -24.668 -12.700  0.00  0.00    +0.125 C 
ATOM     23  C   UNL     1      36.771 -23.009 -14.033  0.00  0.00    +0.201 C 
ATOM     24  C   UNL     1      38.121 -24.643 -13.833  0.00  0.00    +0.124 C 
BRANCH  24  27
ATOM     25  O   UNL     1      39.595 -25.711 -15.328  0.00  0.00    -0.269 OA
ATOM     26  N   UNL     1      39.773 -26.282 -13.115  0.00  0.00    -0.324 N 
ATOM     27  C   UNL     1      39.176 -25.554 -14.154  0.00  0.00    +0.257 C 
ATOM     28  H   UNL     1      40.502 -26.915 -13.311  0.00  0.00    +0.145 HD
ATOM     29  H   UNL     1      39.464 -26.161 -12.188  0.00  0.00    +0.145 HD
ENDBRANCH  24  27
ENDBRANCH  19  20
BRANCH  19  30
ATOM     30  C   UNL     1      35.853 -23.309 -10.376  0.00  0.00    +0.125 C 
ATOM     31  C   UNL     1      34.843 -24.013  -9.476  0.00  0.00    +0.033 C 
BRANCH  30  32
ATOM     32  O   UNL     1      36.150 -22.024  -9.834  0.00  0.00    -0.383 OA
ATOM     33  H   UNL     1      36.757 -22.122  -9.084  0.00  0.00    +0.210 HD
ENDBRANCH  30  32
ENDBRANCH  19  30
ENDBRANCH  18  19
ENDBRANCH   1  18
TORSDOF 8
ENDMDL
MODEL 2
REMARK VINA RESULT:     -10.8      1.538      2.105
REMARK  Name = 46937091
REMARK  8 active torsions:
REMARK  status: ('A' for Active; 'I' for Inactive)
REMARK    1  A    between atoms: C_1  and  C_4
REMARK    2  A    between atoms: C_1  and  C_18
REMARK    3  A    between atoms: C_10  and  C_12
REMARK    4  A    between atoms: C_18  and  C_19
REMARK    5  A    between atoms: C_19  and  N_20
REMARK    6  A    between atoms: C_19  and  C_30
REMARK    7  A    between atoms: C_24  and  C_27
REMARK    8  A    between atoms: C_30  and  O_32
REMARK                            x       y       z     vdW  Elec       q    Type
REMARK                         _______ _______ _______ _____ _____    ______ ____
ROOT
ATOM      1  C   UNL     1      32.550 -23.859 -12.674  0.00  0.00    +0.031 C 
ENDROOT
BRANCH   1   4
ATOM      2  O   UNL     1      32.076 -22.750 -15.483  0.00  0.00    -0.425 OA
ATOM      3  N   UNL     1      30.145 -22.745 -16.668  0.00  0.00    -0.368 NA
ATOM      4  C   UNL     1      31.253 -23.870 -13.441  0.00  0.00    +0.014 C 
ATOM      5  C   UNL     1      31.113 -23.344 -14.720  0.00  0.00    +0.170 C 
ATOM      6  C   UNL     1      30.095 -24.425 -12.885  0.00  0.00    -0.005 C 
ATOM      7  C   UNL     1      29.932 -23.340 -15.448  0.00  0.00    +0.151 C 
ATOM      8  C   UNL     1      28.883 -24.442 -13.586  0.00  0.00    -0.019 C 
ATOM      9  C   UNL     1      28.782 -23.901 -14.877  0.00  0.00    +0.088 C 
ATOM     10  C   UNL     1      31.418 -22.421 -16.629  0.00  0.00    +0.282 C 
BRANCH  10  12
ATOM     11 CL   UNL     1      34.737 -19.713 -20.755  0.00  0.00    -0.082 Cl
ATOM     12  C   UNL     1      32.219 -21.766 -17.627  0.00  0.00    +0.066 C 
ATOM     13  C   UNL     1      33.598 -21.975 -17.659  0.00  0.00    +0.007 C 
ATOM     14  C   UNL     1      31.620 -20.924 -18.562  0.00  0.00    +0.007 C 
ATOM     15  C   UNL     1      34.377 -21.339 -18.626  0.00  0.00    +0.012 C 
ATOM     16  C   UNL     1      32.398 -20.289 -19.529  0.00  0.00    +0.012 C 
ATOM     17  C   UNL     1      33.777 -20.497 -19.561  0.00  0.00    +0.058 C 
ENDBRANCH  10  12
ENDBRANCH   1   4
BRANCH   1  18
ATOM     18  C   UNL     1      33.600 -24.861 -13.185  0.00  0.00    +0.023 C 
BRANCH  18  19
ATOM     19  C   UNL     1      34.709 -24.252 -14.083  0.00  0.00    +0.087 C 
BRANCH  19  20
ATOM     20  N   UNL     1      36.022 -25.020 -13.999  0.00  0.00    -0.246 NA
ATOM     21  N   UNL     1      37.430 -26.738 -13.969  0.00  0.00    -0.251 NA
ATOM     22  C   UNL     1      37.266 -24.481 -13.836  0.00  0.00    +0.125 C 
ATOM     23  C   UNL     1      36.169 -26.377 -14.074  0.00  0.00    +0.201 C 
ATOM     24  C   UNL     1      38.119 -25.560 -13.821  0.00  0.00    +0.124 C 
BRANCH  24  27
ATOM     25  O   UNL     1      40.210 -24.482 -13.935  0.00  0.00    -0.269 OA
ATOM     26  N   UNL     1      40.205 -26.653 -13.197  0.00  0.00    -0.324 N 
ATOM     27  C   UNL     1      39.540 -25.512 -13.672  0.00  0.00    +0.257 C 
ATOM     28  H   UNL     1      41.183 -26.643 -13.086  0.00  0.00    +0.145 HD
ATOM     29  H   UNL     1      39.693 -27.463 -12.975  0.00  0.00    +0.145 HD
ENDBRANCH  24  27
ENDBRANCH  19  20
BRANCH  19  30
ATOM     30  C   UNL     1      34.875 -22.736 -13.789  0.00  0.00    +0.125 C 
ATOM     31  C   UNL     1      35.685 -21.989 -14.842  0.00  0.00    +0.033 C 
BRANCH  30  32
ATOM     32  O   UNL     1      35.466 -22.531 -12.508  0.00  0.00    -0.383 OA
ATOM     33  H   UNL     1      34.770 -22.492 -11.833  0.00  0.00    +0.210 HD
ENDBRANCH  30  32
ENDBRANCH  19  30
ENDBRANCH  18  19
ENDBRANCH   1  18
TORSDOF 8
ENDMDL
MODEL 3
REMARK VINA RESULT:     -10.7      3.492      6.995
REMARK  Name = 46937091
REMARK  8 active torsions:
REMARK  status: ('A' for Active; 'I' for Inactive)
REMARK    1  A    between atoms: C_1  and  C_4
REMARK    2  A    between atoms: C_1  and  C_18
REMARK    3  A    between atoms: C_10  and  C_12
REMARK    4  A    between atoms: C_18  and  C_19
REMARK    5  A    between atoms: C_19  and  N_20
REMARK    6  A    between atoms: C_19  and  C_30
REMARK    7  A    between atoms: C_24  and  C_27
REMARK    8  A    between atoms: C_30  and  O_32
REMARK                            x       y       z     vdW  Elec       q    Type
REMARK                         _______ _______ _______ _____ _____    ______ ____
ROOT
ATOM      1  C   UNL     1      32.667 -23.082 -16.275  0.00  0.00    +0.031 C 
ENDROOT
BRANCH   1   4
ATOM      2  O   UNL     1      34.103 -21.205 -18.216  0.00  0.00    -0.425 OA
ATOM      3  N   UNL     1      36.237 -20.451 -18.099  0.00  0.00    -0.368 NA
ATOM      4  C   UNL     1      34.090 -22.595 -16.172  0.00  0.00    +0.014 C 
ATOM      5  C   UNL     1      34.676 -21.739 -17.098  0.00  0.00    +0.170 C 
ATOM      6  C   UNL     1      34.911 -22.993 -15.112  0.00  0.00    -0.005 C 
ATOM      7  C   UNL     1      35.982 -21.275 -17.029  0.00  0.00    +0.151 C 
ATOM      8  C   UNL     1      36.235 -22.549 -15.006  0.00  0.00    -0.019 C 
ATOM      9  C   UNL     1      36.791 -21.684 -15.960  0.00  0.00    +0.088 C 
ATOM     10  C   UNL     1      35.099 -20.449 -18.756  0.00  0.00    +0.282 C 
BRANCH  10  12
ATOM     11 CL   UNL     1      33.661 -17.606 -23.779  0.00  0.00    -0.082 Cl
ATOM     12  C   UNL     1      34.752 -19.762 -19.970  0.00  0.00    +0.066 C 
ATOM     13  C   UNL     1      33.458 -19.860 -20.481  0.00  0.00    +0.007 C 
ATOM     14  C   UNL     1      35.708 -18.997 -20.636  0.00  0.00    +0.007 C 
ATOM     15  C   UNL     1      33.121 -19.194 -21.659  0.00  0.00    +0.012 C 
ATOM     16  C   UNL     1      35.371 -18.330 -21.814  0.00  0.00    +0.012 C 
ATOM     17  C   UNL     1      34.077 -18.428 -22.325  0.00  0.00    +0.058 C 
ENDBRANCH  10  12
ENDBRANCH   1   4
BRANCH   1  18
ATOM     18  C   UNL     1      31.773 -22.688 -15.086  0.00  0.00    +0.023 C 
BRANCH  18  19
ATOM     19  C   UNL     1      30.997 -23.860 -14.429  0.00  0.00    +0.087 C 
BRANCH  19  20
ATOM     20  N   UNL     1      29.497 -23.787 -14.680  0.00  0.00    -0.246 NA
ATOM     21  N   UNL     1      27.345 -24.333 -14.602  0.00  0.00    -0.251 NA
ATOM     22  C   UNL     1      28.843 -22.834 -15.407  0.00  0.00    +0.125 C 
ATOM     23  C   UNL     1      28.557 -24.665 -14.215  0.00  0.00    +0.201 C 
ATOM     24  C   UNL     1      27.516 -23.191 -15.345  0.00  0.00    +0.124 C 
BRANCH  24  27
ATOM     25  O   UNL     1      26.198 -22.560 -17.192  0.00  0.00    -0.269 OA
ATOM     26  N   UNL     1      25.569 -21.742 -15.144  0.00  0.00    -0.324 N 
ATOM     27  C   UNL     1      26.425 -22.499 -15.957  0.00  0.00    +0.257 C 
ATOM     28  H   UNL     1      24.811 -21.256 -15.544  0.00  0.00    +0.145 HD
ATOM     29  H   UNL     1      25.727 -21.695 -14.174  0.00  0.00    +0.145 HD
ENDBRANCH  24  27
ENDBRANCH  19  20
BRANCH  19  30
ATOM     30  C   UNL     1      31.355 -23.971 -12.922  0.00  0.00    +0.125 C 
ATOM     31  C   UNL     1      32.777 -23.532 -12.592  0.00  0.00    +0.033 C 
BRANCH  30  32
ATOM     32  O   UNL     1      31.152 -25.301 -12.450  0.00  0.00    -0.383 OA
ATOM     33  H   UNL     1      30.397 -25.697 -12.913  0.00  0.00    +0.210 HD
ENDBRANCH  30  32
ENDBRANCH  19  30
ENDBRANCH  18  19
ENDBRANCH   1  18
TORSDOF 8
ENDMDL
MODEL 4
REMARK VINA RESULT:     -10.3     11.142     15.013
REMARK  Name = 46937091
REMARK  8 active torsions:
REMARK  status: ('A' for Active; 'I' for Inactive)
REMARK    1  A    between atoms: C_1  and  C_4
REMARK    2  A    between atoms: C_1  and  C_18
REMARK    3  A    between atoms: C_10  and  C_12
REMARK    4  A    between atoms: C_18  and  C_19
REMARK    5  A    between atoms: C_19  and  N_20
REMARK    6  A    between atoms: C_19  and  C_30
REMARK    7  A    between atoms: C_24  and  C_27
REMARK    8  A    between atoms: C_30  and  O_32
REMARK                            x       y       z     vdW  Elec       q    Type
REMARK                         _______ _______ _______ _____ _____    ______ ____
ROOT
ATOM      1  C   UNL     1      31.183 -12.159 -21.430  0.00  0.00    +0.031 C 
ENDROOT
BRANCH   1   4
ATOM      2  O   UNL     1      31.867  -9.253 -22.092  0.00  0.00    -0.425 OA
ATOM      3  N   UNL     1      31.716  -7.445 -20.734  0.00  0.00    -0.368 NA
ATOM      4  C   UNL     1      31.072 -10.973 -20.506  0.00  0.00    +0.014 C 
ATOM      5  C   UNL     1      31.403  -9.675 -20.880  0.00  0.00    +0.170 C 
ATOM      6  C   UNL     1      30.618 -11.126 -19.192  0.00  0.00    -0.005 C 
ATOM      7  C   UNL     1      31.311  -8.567 -20.051  0.00  0.00    +0.151 C 
ATOM      8  C   UNL     1      30.511 -10.033 -18.323  0.00  0.00    -0.019 C 
ATOM      9  C   UNL     1      30.854  -8.738 -18.737  0.00  0.00    +0.088 C 
ATOM     10  C   UNL     1      32.028  -7.911 -21.923  0.00  0.00    +0.282 C 
BRANCH  10  12
ATOM     11 CL   UNL     1      34.058  -4.991 -26.690  0.00  0.00    -0.082 Cl
ATOM     12  C   UNL     1      32.518  -7.206 -23.075  0.00  0.00    +0.066 C 
ATOM     13  C   UNL     1      33.644  -6.390 -22.966  0.00  0.00    +0.007 C 
ATOM     14  C   UNL     1      31.869  -7.337 -24.302  0.00  0.00    +0.007 C 
ATOM     15  C   UNL     1      34.120  -5.705 -24.084  0.00  0.00    +0.012 C 
ATOM     16  C   UNL     1      32.345  -6.652 -25.420  0.00  0.00    +0.012 C 
ATOM     17  C   UNL     1      33.471  -5.836 -25.311  0.00  0.00    +0.058 C 
ENDBRANCH  10  12
ENDBRANCH   1   4
BRANCH   1  18
ATOM     18  C   UNL     1      32.545 -12.291 -22.133  0.00  0.00    +0.023 C 
BRANCH  18  19
ATOM     19  C   UNL     1      32.539 -13.154 -23.423  0.00  0.00    +0.087 C 
BRANCH  19  20
ATOM     20  N   UNL     1      33.199 -14.513 -23.225  0.00  0.00    -0.246 NA
ATOM     21  N   UNL     1      34.007 -16.523 -23.712  0.00  0.00    -0.251 NA
ATOM     22  C   UNL     1      33.679 -15.017 -22.051  0.00  0.00    +0.125 C 
ATOM     23  C   UNL     1      33.418 -15.452 -24.195  0.00  0.00    +0.201 C 
ATOM     24  C   UNL     1      34.174 -16.258 -22.375  0.00  0.00    +0.124 C 
BRANCH  24  27
ATOM     25  O   UNL     1      34.527 -17.202 -20.247  0.00  0.00    -0.269 OA
ATOM     26  N   UNL     1      35.696 -18.121 -21.992  0.00  0.00    -0.324 N 
ATOM     27  C   UNL     1      34.787 -17.186 -21.476  0.00  0.00    +0.257 C 
ATOM     28  H   UNL     1      36.130 -18.769 -21.392  0.00  0.00    +0.145 HD
ATOM     29  H   UNL     1      35.900 -18.129 -22.955  0.00  0.00    +0.145 HD
ENDBRANCH  24  27
ENDBRANCH  19  20
BRANCH  19  30
ATOM     30  C   UNL     1      33.140 -12.357 -24.612  0.00  0.00    +0.125 C 
ATOM     31  C   UNL     1      33.415 -10.890 -24.295  0.00  0.00    +0.033 C 
BRANCH  30  32
ATOM     32  O   UNL     1      32.293 -12.439 -25.756  0.00  0.00    -0.383 OA
ATOM     33  H   UNL     1      32.761 -12.899 -26.471  0.00  0.00    +0.210 HD
ENDBRANCH  30  32
ENDBRANCH  19  30
ENDBRANCH  18  19
ENDBRANCH   1  18
TORSDOF 8
ENDMDL
MODEL 5
REMARK VINA RESULT:     -10.2      3.662      7.688
REMARK  Name = 46937091
REMARK  8 active torsions:
REMARK  status: ('A' for Active; 'I' for Inactive)
REMARK    1  A    between atoms: C_1  and  C_4
REMARK    2  A    between atoms: C_1  and  C_18
REMARK    3  A    between atoms: C_10  and  C_12
REMARK    4  A    between atoms: C_18  and  C_19
REMARK    5  A    between atoms: C_19  and  N_20
REMARK    6  A    between atoms: C_19  and  C_30
REMARK    7  A    between atoms: C_24  and  C_27
REMARK    8  A    between atoms: C_30  and  O_32
REMARK                            x       y       z     vdW  Elec       q    Type
REMARK                         _______ _______ _______ _____ _____    ______ ____
ROOT
ATOM      1  C   UNL     1      36.115 -21.653 -16.472  0.00  0.00    +0.031 C 
ENDROOT
BRANCH   1   4
ATOM      2  O   UNL     1      33.607 -22.786 -15.139  0.00  0.00    -0.425 OA
ATOM      3  N   UNL     1      33.491 -24.283 -13.441  0.00  0.00    -0.368 NA
ATOM      4  C   UNL     1      36.066 -22.651 -15.343  0.00  0.00    +0.014 C 
ATOM      5  C   UNL     1      34.882 -23.121 -14.786  0.00  0.00    +0.170 C 
ATOM      6  C   UNL     1      37.242 -23.163 -14.787  0.00  0.00    -0.005 C 
ATOM      7  C   UNL     1      34.808 -24.037 -13.747  0.00  0.00    +0.151 C 
ATOM      8  C   UNL     1      37.211 -24.090 -13.737  0.00  0.00    -0.019 C 
ATOM      9  C   UNL     1      35.996 -24.542 -13.201  0.00  0.00    +0.088 C 
ATOM     10  C   UNL     1      32.837 -23.522 -14.290  0.00  0.00    +0.282 C 
BRANCH  10  12
ATOM     11 CL   UNL     1      26.968 -22.823 -14.959  0.00  0.00    -0.082 Cl
ATOM     12  C   UNL     1      31.418 -23.352 -14.452  0.00  0.00    +0.066 C 
ATOM     13  C   UNL     1      30.539 -23.918 -13.529  0.00  0.00    +0.007 C 
ATOM     14  C   UNL     1      30.922 -22.622 -15.531  0.00  0.00    +0.007 C 
ATOM     15  C   UNL     1      29.163 -23.755 -13.686  0.00  0.00    +0.012 C 
ATOM     16  C   UNL     1      29.545 -22.459 -15.688  0.00  0.00    +0.012 C 
ATOM     17  C   UNL     1      28.666 -23.025 -14.765  0.00  0.00    +0.058 C 
ENDBRANCH  10  12
ENDBRANCH   1   4
BRANCH   1  18
ATOM     18  C   UNL     1      34.739 -21.277 -17.049  0.00  0.00    +0.023 C 
BRANCH  18  19
ATOM     19  C   UNL     1      34.555 -21.572 -18.561  0.00  0.00    +0.087 C 
BRANCH  19  20
ATOM     20  N   UNL     1      34.856 -20.363 -19.438  0.00  0.00    -0.246 NA
ATOM     21  N   UNL     1      35.947 -18.617 -20.271  0.00  0.00    -0.251 NA
ATOM     22  C   UNL     1      34.053 -19.854 -20.418  0.00  0.00    +0.125 C 
ATOM     23  C   UNL     1      35.982 -19.589 -19.386  0.00  0.00    +0.201 C 
ATOM     24  C   UNL     1      34.747 -18.777 -20.918  0.00  0.00    +0.124 C 
BRANCH  24  27
ATOM     25  O   UNL     1      33.424 -18.239 -22.792  0.00  0.00    -0.269 OA
ATOM     26  N   UNL     1      34.902 -16.639 -22.075  0.00  0.00    -0.324 N 
ATOM     27  C   UNL     1      34.317 -17.909 -21.970  0.00  0.00    +0.257 C 
ATOM     28  H   UNL     1      34.622 -16.024 -22.791  0.00  0.00    +0.145 HD
ATOM     29  H   UNL     1      35.594 -16.362 -21.431  0.00  0.00    +0.145 HD
ENDBRANCH  24  27
ENDBRANCH  19  20
BRANCH  19  30
ATOM     30  C   UNL     1      33.152 -22.180 -18.830  0.00  0.00    +0.125 C 
ATOM     31  C   UNL     1      31.998 -21.265 -18.437  0.00  0.00    +0.033 C 
BRANCH  30  32
ATOM     32  O   UNL     1      33.007 -23.432 -18.163  0.00  0.00    -0.383 OA
ATOM     33  H   UNL     1      32.306 -23.948 -18.593  0.00  0.00    +0.210 HD
ENDBRANCH  30  32
ENDBRANCH  19  30
ENDBRANCH  18  19
ENDBRANCH   1  18
TORSDOF 8
ENDMDL
MODEL 6
REMARK VINA RESULT:      -9.8      2.968      5.850
REMARK  Name = 46937091
REMARK  8 active torsions:
REMARK  status: ('A' for Active; 'I' for Inactive)
REMARK    1  A    between atoms: C_1  and  C_4
REMARK    2  A    between atoms: C_1  and  C_18
REMARK    3  A    between atoms: C_10  and  C_12
REMARK    4  A    between atoms: C_18  and  C_19
REMARK    5  A    between atoms: C_19  and  N_20
REMARK    6  A    between atoms: C_19  and  C_30
REMARK    7  A    between atoms: C_24  and  C_27
REMARK    8  A    between atoms: C_30  and  O_32
REMARK                            x       y       z     vdW  Elec       q    Type
REMARK                         _______ _______ _______ _____ _____    ______ ____
ROOT
ATOM      1  C   UNL     1      31.850 -22.056 -17.593  0.00  0.00    +0.031 C 
ENDROOT
BRANCH   1   4
ATOM      2  O   UNL     1      33.504 -20.248 -19.422  0.00  0.00    -0.425 OA
ATOM      3  N   UNL     1      35.735 -19.862 -19.348  0.00  0.00    -0.368 NA
ATOM      4  C   UNL     1      33.337 -21.816 -17.520  0.00  0.00    +0.014 C 
ATOM      5  C   UNL     1      34.022 -20.977 -18.391  0.00  0.00    +0.170 C 
ATOM      6  C   UNL     1      34.119 -22.446 -16.546  0.00  0.00    -0.005 C 
ATOM      7  C   UNL     1      35.388 -20.738 -18.347  0.00  0.00    +0.151 C 
ATOM      8  C   UNL     1      35.501 -22.232 -16.468  0.00  0.00    -0.019 C 
ATOM      9  C   UNL     1      36.157 -21.376 -17.365  0.00  0.00    +0.088 C 
ATOM     10  C   UNL     1      34.590 -19.611 -19.942  0.00  0.00    +0.282 C 
BRANCH  10  12
ATOM     11 CL   UNL     1      33.460 -16.086 -24.597  0.00  0.00    -0.082 Cl
ATOM     12  C   UNL     1      34.317 -18.759 -21.066  0.00  0.00    +0.066 C 
ATOM     13  C   UNL     1      33.800 -19.302 -22.243  0.00  0.00    +0.007 C 
ATOM     14  C   UNL     1      34.568 -17.390 -20.982  0.00  0.00    +0.007 C 
ATOM     15  C   UNL     1      33.535 -18.475 -23.334  0.00  0.00    +0.012 C 
ATOM     16  C   UNL     1      34.304 -16.563 -22.073  0.00  0.00    +0.012 C 
ATOM     17  C   UNL     1      33.787 -17.106 -23.250  0.00  0.00    +0.058 C 
ENDBRANCH  10  12
ENDBRANCH   1   4
BRANCH   1  18
ATOM     18  C   UNL     1      31.325 -23.098 -16.590  0.00  0.00    +0.023 C 
BRANCH  18  19
ATOM     19  C   UNL     1      30.675 -22.511 -15.309  0.00  0.00    +0.087 C 
BRANCH  19  20
ATOM     20  N   UNL     1      31.374 -22.962 -14.034  0.00  0.00    -0.246 NA
ATOM     21  N   UNL     1      31.702 -23.383 -11.878  0.00  0.00    -0.251 NA
ATOM     22  C   UNL     1      32.635 -23.478 -13.941  0.00  0.00    +0.125 C 
ATOM     23  C   UNL     1      30.852 -22.924 -12.771  0.00  0.00    +0.201 C 
ATOM     24  C   UNL     1      32.815 -23.731 -12.601  0.00  0.00    +0.124 C 
BRANCH  24  27
ATOM     25  O   UNL     1      34.227 -24.164 -10.767  0.00  0.00    -0.269 OA
ATOM     26  N   UNL     1      34.891 -24.990 -12.800  0.00  0.00    -0.324 N 
ATOM     27  C   UNL     1      33.988 -24.281 -11.995  0.00  0.00    +0.257 C 
ATOM     28  H   UNL     1      35.706 -25.377 -12.405  0.00  0.00    +0.145 HD
ATOM     29  H   UNL     1      34.711 -25.100 -13.762  0.00  0.00    +0.145 HD
ENDBRANCH  24  27
ENDBRANCH  19  20
BRANCH  19  30
ATOM     30  C   UNL     1      29.149 -22.795 -15.296  0.00  0.00    +0.125 C 
ATOM     31  C   UNL     1      28.798 -24.279 -15.290  0.00  0.00    +0.033 C 
BRANCH  30  32
ATOM     32  O   UNL     1      28.506 -22.164 -16.401  0.00  0.00    -0.383 OA
ATOM     33  H   UNL     1      27.555 -22.354 -16.373  0.00  0.00    +0.210 HD
ENDBRANCH  30  32
ENDBRANCH  19  30
ENDBRANCH  18  19
ENDBRANCH   1  18
TORSDOF 8
ENDMDL
MODEL 7
REMARK VINA RESULT:      -9.8     10.422     14.348
REMARK  Name = 46937091
REMARK  8 active torsions:
REMARK  status: ('A' for Active; 'I' for Inactive)
REMARK    1  A    between atoms: C_1  and  C_4
REMARK    2  A    between atoms: C_1  and  C_18
REMARK    3  A    between atoms: C_10  and  C_12
REMARK    4  A    between atoms: C_18  and  C_19
REMARK    5  A    between atoms: C_19  and  N_20
REMARK    6  A    between atoms: C_19  and  C_30
REMARK    7  A    between atoms: C_24  and  C_27
REMARK    8  A    between atoms: C_30  and  O_32
REMARK                            x       y       z     vdW  Elec       q    Type
REMARK                         _______ _______ _______ _____ _____    ______ ____
ROOT
ATOM      1  C   UNL     1      32.645 -12.151 -23.070  0.00  0.00    +0.031 C 
ENDROOT
BRANCH   1   4
ATOM      2  O   UNL     1      31.577  -9.575 -21.814  0.00  0.00    -0.425 OA
ATOM      3  N   UNL     1      30.542  -9.330 -19.813  0.00  0.00    -0.368 NA
ATOM      4  C   UNL     1      31.958 -12.016 -21.735  0.00  0.00    +0.014 C 
ATOM      5  C   UNL     1      31.498 -10.806 -21.228  0.00  0.00    +0.170 C 
ATOM      6  C   UNL     1      31.746 -13.133 -20.920  0.00  0.00    -0.005 C 
ATOM      7  C   UNL     1      30.864 -10.652 -20.004  0.00  0.00    +0.151 C 
ATOM      8  C   UNL     1      31.110 -13.021 -19.677  0.00  0.00    -0.019 C 
ATOM      9  C   UNL     1      30.658 -11.782 -19.199  0.00  0.00    +0.088 C 
ATOM     10  C   UNL     1      30.985  -8.750 -20.907  0.00  0.00    +0.282 C 
BRANCH  10  12
ATOM     11 CL   UNL     1      30.775  -3.017 -22.474  0.00  0.00    -0.082 Cl
ATOM     12  C   UNL     1      30.935  -7.365 -21.285  0.00  0.00    +0.066 C 
ATOM     13  C   UNL     1      30.269  -6.984 -22.450  0.00  0.00    +0.007 C 
ATOM     14  C   UNL     1      31.550  -6.401 -20.488  0.00  0.00    +0.007 C 
ATOM     15  C   UNL     1      30.220  -5.640 -22.818  0.00  0.00    +0.012 C 
ATOM     16  C   UNL     1      31.501  -5.056 -20.855  0.00  0.00    +0.012 C 
ATOM     17  C   UNL     1      30.836  -4.676 -22.021  0.00  0.00    +0.058 C 
ENDBRANCH  10  12
ENDBRANCH   1   4
BRANCH   1  18
ATOM     18  C   UNL     1      33.535 -13.399 -23.203  0.00  0.00    +0.023 C 
BRANCH  18  19
ATOM     19  C   UNL     1      32.819 -14.665 -23.743  0.00  0.00    +0.087 C 
BRANCH  19  20
ATOM     20  N   UNL     1      33.466 -15.958 -23.263  0.00  0.00    -0.246 NA
ATOM     21  N   UNL     1      34.030 -18.105 -23.205  0.00  0.00    -0.251 NA
ATOM     22  C   UNL     1      34.259 -16.105 -22.162  0.00  0.00    +0.125 C 
ATOM     23  C   UNL     1      33.356 -17.184 -23.858  0.00  0.00    +0.201 C 
ATOM     24  C   UNL     1      34.596 -17.439 -22.146  0.00  0.00    +0.124 C 
BRANCH  24  27
ATOM     25  O   UNL     1      34.961 -18.548 -20.101  0.00  0.00    -0.269 OA
ATOM     26  N   UNL     1      36.789 -18.239 -21.450  0.00  0.00    -0.324 N 
ATOM     27  C   UNL     1      35.421 -18.091 -21.177  0.00  0.00    +0.257 C 
ATOM     28  H   UNL     1      37.377 -18.685 -20.798  0.00  0.00    +0.145 HD
ATOM     29  H   UNL     1      37.162 -17.897 -22.295  0.00  0.00    +0.145 HD
ENDBRANCH  24  27
ENDBRANCH  19  20
BRANCH  19  30
ATOM     30  C   UNL     1      32.683 -14.594 -25.288  0.00  0.00    +0.125 C 
ATOM     31  C   UNL     1      32.615 -13.172 -25.837  0.00  0.00    +0.033 C 
BRANCH  30  32
ATOM     32  O   UNL     1      31.540 -15.323 -25.730  0.00  0.00    -0.383 OA
ATOM     33  H   UNL     1      31.647 -15.555 -26.666  0.00  0.00    +0.210 HD
ENDBRANCH  30  32
ENDBRANCH  19  30
ENDBRANCH  18  19
ENDBRANCH   1  18
TORSDOF 8
ENDMDL
MODEL 8
REMARK VINA RESULT:      -9.8      3.998      8.000
REMARK  Name = 46937091
REMARK  8 active torsions:
REMARK  status: ('A' for Active; 'I' for Inactive)
REMARK    1  A    between atoms: C_1  and  C_4
REMARK    2  A    between atoms: C_1  and  C_18
REMARK    3  A    between atoms: C_10  and  C_12
REMARK    4  A    between atoms: C_18  and  C_19
REMARK    5  A    between atoms: C_19  and  N_20
REMARK    6  A    between atoms: C_19  and  C_30
REMARK    7  A    between atoms: C_24  and  C_27
REMARK    8  A    between atoms: C_30  and  O_32
REMARK                            x       y       z     vdW  Elec       q    Type
REMARK                         _______ _______ _______ _____ _____    ______ ____
ROOT
ATOM      1  C   UNL     1      32.529 -22.576 -18.218  0.00  0.00    +0.031 C 
ENDROOT
BRANCH   1   4
ATOM      2  O   UNL     1      34.043 -23.580 -15.758  0.00  0.00    -0.425 OA
ATOM      3  N   UNL     1      33.284 -23.743 -13.630  0.00  0.00    -0.368 NA
ATOM      4  C   UNL     1      31.999 -22.673 -16.810  0.00  0.00    +0.014 C 
ATOM      5  C   UNL     1      32.750 -23.143 -15.739  0.00  0.00    +0.170 C 
ATOM      6  C   UNL     1      30.689 -22.287 -16.508  0.00  0.00    -0.005 C 
ATOM      7  C   UNL     1      32.289 -23.243 -14.434  0.00  0.00    +0.151 C 
ATOM      8  C   UNL     1      30.184 -22.373 -15.204  0.00  0.00    -0.019 C 
ATOM      9  C   UNL     1      30.974 -22.851 -14.148  0.00  0.00    +0.088 C 
ATOM     10  C   UNL     1      34.286 -23.920 -14.462  0.00  0.00    +0.282 C 
BRANCH  10  12
ATOM     11 CL   UNL     1      39.750 -26.003 -13.379  0.00  0.00    -0.082 Cl
ATOM     12  C   UNL     1      35.607 -24.423 -14.201  0.00  0.00    +0.066 C 
ATOM     13  C   UNL     1      35.786 -25.762 -13.853  0.00  0.00    +0.007 C 
ATOM     14  C   UNL     1      36.708 -23.573 -14.295  0.00  0.00    +0.007 C 
ATOM     15  C   UNL     1      37.068 -26.250 -13.599  0.00  0.00    +0.012 C 
ATOM     16  C   UNL     1      37.990 -24.062 -14.041  0.00  0.00    +0.012 C 
ATOM     17  C   UNL     1      38.169 -25.401 -13.693  0.00  0.00    +0.058 C 
ENDBRANCH  10  12
ENDBRANCH   1   4
BRANCH   1  18
ATOM     18  C   UNL     1      32.592 -21.144 -18.776  0.00  0.00    +0.023 C 
BRANCH  18  19
ATOM     19  C   UNL     1      33.985 -20.465 -18.693  0.00  0.00    +0.087 C 
BRANCH  19  20
ATOM     20  N   UNL     1      34.301 -19.616 -19.917  0.00  0.00    -0.246 NA
ATOM     21  N   UNL     1      35.442 -18.313 -21.307  0.00  0.00    -0.251 NA
ATOM     22  C   UNL     1      33.463 -19.365 -20.966  0.00  0.00    +0.125 C 
ATOM     23  C   UNL     1      35.477 -18.964 -20.165  0.00  0.00    +0.201 C 
ATOM     24  C   UNL     1      34.189 -18.560 -21.812  0.00  0.00    +0.124 C 
BRANCH  24  27
ATOM     25  O   UNL     1      32.846 -18.577 -23.747  0.00  0.00    -0.269 OA
ATOM     26  N   UNL     1      34.314 -16.830 -23.522  0.00  0.00    -0.324 N 
ATOM     27  C   UNL     1      33.742 -18.024 -23.060  0.00  0.00    +0.257 C 
ATOM     28  H   UNL     1      34.021 -16.442 -24.379  0.00  0.00    +0.145 HD
ATOM     29  H   UNL     1      35.008 -16.379 -22.990  0.00  0.00    +0.145 HD
ENDBRANCH  24  27
ENDBRANCH  19  20
BRANCH  19  30
ATOM     30  C   UNL     1      35.085 -21.518 -18.387  0.00  0.00    +0.125 C 
ATOM     31  C   UNL     1      35.936 -21.184 -17.167  0.00  0.00    +0.033 C 
BRANCH  30  32
ATOM     32  O   UNL     1      35.935 -21.705 -19.517  0.00  0.00    -0.383 OA
ATOM     33  H   UNL     1      36.609 -22.370 -19.307  0.00  0.00    +0.210 HD
ENDBRANCH  30  32
ENDBRANCH  19  30
ENDBRANCH  18  19
ENDBRANCH   1  18
TORSDOF 8
ENDMDL
MODEL 9
REMARK VINA RESULT:      -9.8     12.939     16.500
REMARK  Name = 46937091
REMARK  8 active torsions:
REMARK  status: ('A' for Active; 'I' for Inactive)
REMARK    1  A    between atoms: C_1  and  C_4
REMARK    2  A    between atoms: C_1  and  C_18
REMARK    3  A    between atoms: C_10  and  C_12
REMARK    4  A    between atoms: C_18  and  C_19
REMARK    5  A    between atoms: C_19  and  N_20
REMARK    6  A    between atoms: C_19  and  C_30
REMARK    7  A    between atoms: C_24  and  C_27
REMARK    8  A    between atoms: C_30  and  O_32
REMARK                            x       y       z     vdW  Elec       q    Type
REMARK                         _______ _______ _______ _____ _____    ______ ____
ROOT
ATOM      1  C   UNL     1      30.267  -7.034 -22.875  0.00  0.00    +0.031 C 
ENDROOT
BRANCH   1   4
ATOM      2  O   UNL     1      32.129  -9.334 -23.647  0.00  0.00    -0.425 OA
ATOM      3  N   UNL     1      34.312  -9.214 -24.245  0.00  0.00    -0.368 NA
ATOM      4  C   UNL     1      31.717  -6.926 -23.271  0.00  0.00    +0.014 C 
ATOM      5  C   UNL     1      32.504  -8.021 -23.609  0.00  0.00    +0.170 C 
ATOM      6  C   UNL     1      32.359  -5.684 -23.315  0.00  0.00    -0.005 C 
ATOM      7  C   UNL     1      33.840  -7.951 -23.976  0.00  0.00    +0.151 C 
ATOM      8  C   UNL     1      33.706  -5.570 -23.680  0.00  0.00    -0.019 C 
ATOM      9  C   UNL     1      34.468  -6.699 -24.016  0.00  0.00    +0.088 C 
ATOM     10  C   UNL     1      33.264  -9.979 -24.035  0.00  0.00    +0.282 C 
BRANCH  10  12
ATOM     11 CL   UNL     1      32.759 -15.884 -24.537  0.00  0.00    -0.082 Cl
ATOM     12  C   UNL     1      33.142 -11.406 -24.155  0.00  0.00    +0.066 C 
ATOM     13  C   UNL     1      32.693 -11.969 -25.350  0.00  0.00    +0.007 C 
ATOM     14  C   UNL     1      33.473 -12.228 -23.079  0.00  0.00    +0.007 C 
ATOM     15  C   UNL     1      32.575 -13.353 -25.468  0.00  0.00    +0.012 C 
ATOM     16  C   UNL     1      33.354 -13.613 -23.197  0.00  0.00    +0.012 C 
ATOM     17  C   UNL     1      32.906 -14.175 -24.392  0.00  0.00    +0.058 C 
ENDBRANCH  10  12
ENDBRANCH   1   4
BRANCH   1  18
ATOM     18  C   UNL     1      30.011  -6.931 -21.362  0.00  0.00    +0.023 C 
BRANCH  18  19
ATOM     19  C   UNL     1      31.195  -7.376 -20.462  0.00  0.00    +0.087 C 
BRANCH  19  20
ATOM     20  N   UNL     1      31.048  -8.807 -19.960  0.00  0.00    -0.246 NA
ATOM     21  N   UNL     1      30.737 -10.496 -18.553  0.00  0.00    -0.251 NA
ATOM     22  C   UNL     1      31.125  -9.942 -20.716  0.00  0.00    +0.125 C 
ATOM     23  C   UNL     1      30.813  -9.189 -18.669  0.00  0.00    +0.201 C 
ATOM     24  C   UNL     1      30.930 -10.972 -19.826  0.00  0.00    +0.124 C 
BRANCH  24  27
ATOM     25  O   UNL     1      31.108 -13.252 -19.264  0.00  0.00    -0.269 OA
ATOM     26  N   UNL     1      30.679 -12.759 -21.462  0.00  0.00    -0.324 N 
ATOM     27  C   UNL     1      30.922 -12.368 -20.137  0.00  0.00    +0.257 C 
ATOM     28  H   UNL     1      30.669 -13.715 -21.699  0.00  0.00    +0.145 HD
ATOM     29  H   UNL     1      30.519 -12.079 -22.154  0.00  0.00    +0.145 HD
ENDBRANCH  24  27
ENDBRANCH  19  20
BRANCH  19  30
ATOM     30  C   UNL     1      31.421  -6.353 -19.317  0.00  0.00    +0.125 C 
ATOM     31  C   UNL     1      31.229  -4.901 -19.740  0.00  0.00    +0.033 C 
BRANCH  30  32
ATOM     32  O   UNL     1      32.719  -6.509 -18.747  0.00  0.00    -0.383 OA
ATOM     33  H   UNL     1      32.656  -7.052 -17.946  0.00  0.00    +0.210 HD
ENDBRANCH  30  32
ENDBRANCH  19  30
ENDBRANCH  18  19
ENDBRANCH   1  18
TORSDOF 8
ENDMDL
