MODEL 1
REMARK VINA RESULT:     -12.4      0.000      0.000
REMARK  Name = 44472635
REMARK  7 active torsions:
REMARK  status: ('A' for Active; 'I' for Inactive)
REMARK    1  A    between atoms: C_1  and  C_21
REMARK    2  A    between atoms: C_4  and  N_8
REMARK    3  A    between atoms: C_9  and  C_14
REMARK    4  A    between atoms: C_21  and  C_24
REMARK    5  A    between atoms: C_23  and  C_29
REMARK    6  A    between atoms: C_29  and  C_30
REMARK    7  A    between atoms: C_29  and  O_36
REMARK                            x       y       z     vdW  Elec       q    Type
REMARK                         _______ _______ _______ _____ _____    ______ ____
ROOT
ATOM      1  C   UNL     1      32.630 -14.741 -24.114  0.00  0.00    -0.024 C 
ATOM      2  C   UNL     1      33.105 -14.036 -23.008  0.00  0.00    -0.003 C 
ATOM      3  C   UNL     1      32.403 -14.075 -25.319  0.00  0.00    -0.003 C 
ATOM      4  C   UNL     1      33.127 -12.002 -24.312  0.00  0.00    +0.050 C 
ATOM      5  C   UNL     1      33.354 -12.667 -23.106  0.00  0.00    +0.014 C 
ATOM      6  C   UNL     1      32.652 -12.706 -25.418  0.00  0.00    +0.014 C 
ENDROOT
BRANCH   4   8
ATOM      7  O   UNL     1      31.990  -9.691 -22.753  0.00  0.00    -0.273 OA
ATOM      8  N   UNL     1      33.379 -10.613 -24.412  0.00  0.00    -0.283 N 
ATOM      9  C   UNL     1      32.814  -9.595 -23.657  0.00  0.00    +0.245 C 
ATOM     10  H   UNL     1      34.031 -10.338 -25.098  0.00  0.00    +0.155 HD
BRANCH   9  14
ATOM     11  O   UNL     1      31.007  -7.602 -25.773  0.00  0.00    -0.269 OA
ATOM     12  N   UNL     1      32.288  -7.292 -23.855  0.00  0.00    -0.237 N 
ATOM     13  N   UNL     1      31.694  -5.661 -22.220  0.00  0.00    -0.233 NA
ATOM     14  C   UNL     1      33.345  -8.256 -24.072  0.00  0.00    +0.158 C 
ATOM     15  C   UNL     1      34.458  -7.781 -23.149  0.00  0.00    +0.037 C 
ATOM     16  C   UNL     1      33.732  -7.063 -22.007  0.00  0.00    +0.064 C 
ATOM     17  C   UNL     1      32.479  -6.582 -22.673  0.00  0.00    +0.115 C 
ATOM     18  C   UNL     1      31.227  -7.045 -24.704  0.00  0.00    +0.256 C 
ATOM     19  C   UNL     1      30.318  -5.989 -24.187  0.00  0.00    +0.079 C 
ATOM     20  C   UNL     1      30.608  -5.395 -23.020  0.00  0.00    +0.105 C 
ENDBRANCH   9  14
ENDBRANCH   4   8
BRANCH   1  21
ATOM     21  C   UNL     1      32.362 -16.204 -24.009  0.00  0.00    +0.005 C 
BRANCH  21  24
ATOM     22  N   UNL     1      34.183 -16.764 -22.422  0.00  0.00    +0.388 N 
ATOM     23  C   UNL     1      35.130 -17.869 -22.210  0.00  0.00    -0.030 C 
ATOM     24  C   UNL     1      33.629 -17.007 -23.762  0.00  0.00    -0.057 C 
ATOM     25  C   UNL     1      34.502 -19.080 -22.902  0.00  0.00    -0.021 C 
ATOM     26  C   UNL     1      33.392 -18.510 -23.777  0.00  0.00    -0.023 C 
ATOM     27  H   UNL     1      34.664 -15.866 -22.389  0.00  0.00    -0.084 HD
ATOM     28  H   UNL     1      33.460 -16.730 -21.704  0.00  0.00    -0.084 HD
BRANCH  23  29
ATOM     29  C   UNL     1      35.400 -18.105 -20.730  0.00  0.00    +0.113 C 
BRANCH  29  30
ATOM     30  C   UNL     1      34.553 -19.223 -20.166  0.00  0.00    +0.002 C 
ATOM     31  C   UNL     1      33.164 -19.172 -20.277  0.00  0.00    -0.002 C 
ATOM     32  C   UNL     1      35.162 -20.307 -19.534  0.00  0.00    -0.002 C 
ATOM     33  C   UNL     1      32.384 -20.203 -19.757  0.00  0.00    -0.000 C 
ATOM     34  C   UNL     1      34.382 -21.339 -19.012  0.00  0.00    -0.000 C 
ATOM     35  C   UNL     1      32.993 -21.287 -19.124  0.00  0.00    -0.000 C 
ENDBRANCH  29  30
BRANCH  29  36
ATOM     36  O   UNL     1      36.778 -18.421 -20.537  0.00  0.00    -0.382 OA
ATOM     37  H   UNL     1      37.275 -17.606 -20.363  0.00  0.00    +0.211 HD
ENDBRANCH  29  36
ENDBRANCH  23  29
ENDBRANCH  21  24
ENDBRANCH   1  21
TORSDOF 7
ENDMDL
MODEL 2
REMARK VINA RESULT:     -12.4      5.100     13.342
REMARK  Name = 44472635
REMARK  7 active torsions:
REMARK  status: ('A' for Active; 'I' for Inactive)
REMARK    1  A    between atoms: C_1  and  C_21
REMARK    2  A    between atoms: C_4  and  N_8
REMARK    3  A    between atoms: C_9  and  C_14
REMARK    4  A    between atoms: C_21  and  C_24
REMARK    5  A    between atoms: C_23  and  C_29
REMARK    6  A    between atoms: C_29  and  C_30
REMARK    7  A    between atoms: C_29  and  O_36
REMARK                            x       y       z     vdW  Elec       q    Type
REMARK                         _______ _______ _______ _____ _____    ______ ____
ROOT
ATOM      1  C   UNL     1      34.492 -19.894 -19.950  0.00  0.00    -0.024 C 
ATOM      2  C   UNL     1      33.134 -20.167 -19.782  0.00  0.00    -0.003 C 
ATOM      3  C   UNL     1      35.437 -20.547 -19.158  0.00  0.00    -0.003 C 
ATOM      4  C   UNL     1      33.668 -21.748 -18.035  0.00  0.00    +0.050 C 
ATOM      5  C   UNL     1      32.722 -21.094 -18.825  0.00  0.00    +0.014 C 
ATOM      6  C   UNL     1      35.026 -21.475 -18.202  0.00  0.00    +0.014 C 
ENDROOT
BRANCH   4   8
ATOM      7  O   UNL     1      34.423 -22.029 -15.134  0.00  0.00    -0.273 OA
ATOM      8  N   UNL     1      33.251 -22.689 -17.064  0.00  0.00    -0.283 N 
ATOM      9  C   UNL     1      33.643 -22.762 -15.735  0.00  0.00    +0.245 C 
ATOM     10  H   UNL     1      32.607 -23.371 -17.367  0.00  0.00    +0.155 HD
BRANCH   9  14
ATOM     11  O   UNL     1      35.468 -25.474 -14.721  0.00  0.00    -0.269 OA
ATOM     12  N   UNL     1      33.741 -24.185 -13.841  0.00  0.00    -0.237 N 
ATOM     13  N   UNL     1      33.608 -23.720 -11.506  0.00  0.00    -0.233 NA
ATOM     14  C   UNL     1      32.972 -23.906 -15.035  0.00  0.00    +0.158 C 
ATOM     15  C   UNL     1      31.604 -23.512 -14.496  0.00  0.00    +0.037 C 
ATOM     16  C   UNL     1      31.890 -22.923 -13.112  0.00  0.00    +0.064 C 
ATOM     17  C   UNL     1      33.145 -23.636 -12.709  0.00  0.00    +0.115 C 
ATOM     18  C   UNL     1      34.901 -24.932 -13.779  0.00  0.00    +0.256 C 
ATOM     19  C   UNL     1      35.440 -25.031 -12.398  0.00  0.00    +0.079 C 
ATOM     20  C   UNL     1      34.777 -24.435 -11.396  0.00  0.00    +0.105 C 
ENDBRANCH   9  14
ENDBRANCH   4   8
BRANCH   1  21
ATOM     21  C   UNL     1      34.933 -18.901 -20.971  0.00  0.00    +0.005 C 
BRANCH  21  24
ATOM     22  N   UNL     1      33.976 -17.006 -22.252  0.00  0.00    +0.388 N 
ATOM     23  C   UNL     1      33.013 -16.818 -23.348  0.00  0.00    -0.030 C 
ATOM     24  C   UNL     1      33.780 -18.399 -21.824  0.00  0.00    -0.057 C 
ATOM     25  C   UNL     1      32.963 -18.161 -24.078  0.00  0.00    -0.021 C 
ATOM     26  C   UNL     1      33.640 -19.153 -23.139  0.00  0.00    -0.023 C 
ATOM     27  H   UNL     1      33.778 -16.363 -21.486  0.00  0.00    -0.084 HD
ATOM     28  H   UNL     1      34.935 -16.821 -22.543  0.00  0.00    -0.084 HD
BRANCH  23  29
ATOM     29  C   UNL     1      33.411 -15.664 -24.257  0.00  0.00    +0.113 C 
BRANCH  29  30
ATOM     30  C   UNL     1      33.135 -14.318 -23.625  0.00  0.00    +0.002 C 
ATOM     31  C   UNL     1      32.861 -14.231 -22.260  0.00  0.00    -0.002 C 
ATOM     32  C   UNL     1      33.155 -13.164 -24.407  0.00  0.00    -0.002 C 
ATOM     33  C   UNL     1      32.607 -12.990 -21.677  0.00  0.00    -0.000 C 
ATOM     34  C   UNL     1      32.899 -11.922 -23.825  0.00  0.00    -0.000 C 
ATOM     35  C   UNL     1      32.626 -11.835 -22.460  0.00  0.00    -0.000 C 
ENDBRANCH  29  30
BRANCH  29  36
ATOM     36  O   UNL     1      34.800 -15.755 -24.572  0.00  0.00    -0.382 OA
ATOM     37  H   UNL     1      35.162 -16.575 -24.201  0.00  0.00    +0.211 HD
ENDBRANCH  29  36
ENDBRANCH  23  29
ENDBRANCH  21  24
ENDBRANCH   1  21
TORSDOF 7
ENDMDL
MODEL 3
REMARK VINA RESULT:     -12.2      4.839     13.207
REMARK  Name = 44472635
REMARK  7 active torsions:
REMARK  status: ('A' for Active; 'I' for Inactive)
REMARK    1  A    between atoms: C_1  and  C_21
REMARK    2  A    between atoms: C_4  and  N_8
REMARK    3  A    between atoms: C_9  and  C_14
REMARK    4  A    between atoms: C_21  and  C_24
REMARK    5  A    between atoms: C_23  and  C_29
REMARK    6  A    between atoms: C_29  and  C_30
REMARK    7  A    between atoms: C_29  and  O_36
REMARK                            x       y       z     vdW  Elec       q    Type
REMARK                         _______ _______ _______ _____ _____    ______ ____
ROOT
ATOM      1  C   UNL     1      34.740 -19.590 -20.167  0.00  0.00    -0.024 C 
ATOM      2  C   UNL     1      35.607 -20.338 -19.370  0.00  0.00    -0.003 C 
ATOM      3  C   UNL     1      33.361 -19.782 -20.068  0.00  0.00    -0.003 C 
ATOM      4  C   UNL     1      33.717 -21.469 -18.375  0.00  0.00    +0.050 C 
ATOM      5  C   UNL     1      35.096 -21.278 -18.475  0.00  0.00    +0.014 C 
ATOM      6  C   UNL     1      32.850 -20.720 -19.172  0.00  0.00    +0.014 C 
ENDROOT
BRANCH   4   8
ATOM      7  O   UNL     1      34.427 -22.018 -15.501  0.00  0.00    -0.273 OA
ATOM      8  N   UNL     1      33.198 -22.421 -17.467  0.00  0.00    -0.283 N 
ATOM      9  C   UNL     1      33.575 -22.623 -16.147  0.00  0.00    +0.245 C 
ATOM     10  H   UNL     1      32.487 -23.009 -17.812  0.00  0.00    +0.155 HD
BRANCH   9  14
ATOM     11  O   UNL     1      35.169 -25.358 -14.847  0.00  0.00    -0.269 OA
ATOM     12  N   UNL     1      33.379 -24.005 -14.230  0.00  0.00    -0.237 N 
ATOM     13  N   UNL     1      32.951 -23.484 -11.943  0.00  0.00    -0.233 NA
ATOM     14  C   UNL     1      32.784 -23.732 -15.521  0.00  0.00    +0.158 C 
ATOM     15  C   UNL     1      31.369 -23.290 -15.177  0.00  0.00    +0.037 C 
ATOM     16  C   UNL     1      31.486 -22.677 -13.779  0.00  0.00    +0.064 C 
ATOM     17  C   UNL     1      32.655 -23.414 -13.199  0.00  0.00    +0.115 C 
ATOM     18  C   UNL     1      34.498 -24.781 -14.000  0.00  0.00    +0.256 C 
ATOM     19  C   UNL     1      34.846 -24.863 -12.558  0.00  0.00    +0.079 C 
ATOM     20  C   UNL     1      34.074 -24.227 -11.664  0.00  0.00    +0.105 C 
ENDBRANCH   9  14
ENDBRANCH   4   8
BRANCH   1  21
ATOM     21  C   UNL     1      35.286 -18.587 -21.126  0.00  0.00    +0.005 C 
BRANCH  21  24
ATOM     22  N   UNL     1      34.264 -16.334 -21.284  0.00  0.00    +0.388 N 
ATOM     23  C   UNL     1      33.434 -15.587 -22.241  0.00  0.00    -0.030 C 
ATOM     24  C   UNL     1      34.196 -17.728 -21.746  0.00  0.00    -0.057 C 
ATOM     25  C   UNL     1      33.651 -16.276 -23.589  0.00  0.00    -0.021 C 
ATOM     26  C   UNL     1      34.324 -17.603 -23.257  0.00  0.00    -0.023 C 
ATOM     27  H   UNL     1      33.889 -16.249 -20.339  0.00  0.00    -0.084 HD
ATOM     28  H   UNL     1      35.221 -15.984 -21.245  0.00  0.00    -0.084 HD
BRANCH  23  29
ATOM     29  C   UNL     1      33.793 -14.108 -22.266  0.00  0.00    +0.113 C 
BRANCH  29  30
ATOM     30  C   UNL     1      33.264 -13.413 -23.500  0.00  0.00    +0.002 C 
ATOM     31  C   UNL     1      32.644 -14.153 -24.507  0.00  0.00    -0.002 C 
ATOM     32  C   UNL     1      33.398 -12.031 -23.633  0.00  0.00    -0.002 C 
ATOM     33  C   UNL     1      32.157 -13.511 -25.645  0.00  0.00    -0.000 C 
ATOM     34  C   UNL     1      32.913 -11.388 -24.772  0.00  0.00    -0.000 C 
ATOM     35  C   UNL     1      32.291 -12.129 -25.778  0.00  0.00    -0.000 C 
ENDBRANCH  29  30
BRANCH  29  36
ATOM     36  O   UNL     1      33.264 -13.465 -21.107  0.00  0.00    -0.382 OA
ATOM     37  H   UNL     1      32.766 -14.108 -20.579  0.00  0.00    +0.211 HD
ENDBRANCH  29  36
ENDBRANCH  23  29
ENDBRANCH  21  24
ENDBRANCH   1  21
TORSDOF 7
ENDMDL
MODEL 4
REMARK VINA RESULT:     -11.7      1.934      2.901
REMARK  Name = 44472635
REMARK  7 active torsions:
REMARK  status: ('A' for Active; 'I' for Inactive)
REMARK    1  A    between atoms: C_1  and  C_21
REMARK    2  A    between atoms: C_4  and  N_8
REMARK    3  A    between atoms: C_9  and  C_14
REMARK    4  A    between atoms: C_21  and  C_24
REMARK    5  A    between atoms: C_23  and  C_29
REMARK    6  A    between atoms: C_29  and  C_30
REMARK    7  A    between atoms: C_29  and  O_36
REMARK                            x       y       z     vdW  Elec       q    Type
REMARK                         _______ _______ _______ _____ _____    ______ ____
ROOT
ATOM      1  C   UNL     1      33.705 -15.241 -23.326  0.00  0.00    -0.024 C 
ATOM      2  C   UNL     1      33.104 -14.710 -24.468  0.00  0.00    -0.003 C 
ATOM      3  C   UNL     1      33.826 -14.461 -22.176  0.00  0.00    -0.003 C 
ATOM      4  C   UNL     1      32.744 -12.621 -23.307  0.00  0.00    +0.050 C 
ATOM      5  C   UNL     1      32.624 -13.400 -24.459  0.00  0.00    +0.014 C 
ATOM      6  C   UNL     1      33.345 -13.152 -22.166  0.00  0.00    +0.014 C 
ENDROOT
BRANCH   4   8
ATOM      7  O   UNL     1      34.205 -10.000 -23.555  0.00  0.00    -0.273 OA
ATOM      8  N   UNL     1      32.256 -11.293 -23.297  0.00  0.00    -0.283 N 
ATOM      9  C   UNL     1      32.992 -10.122 -23.415  0.00  0.00    +0.245 C 
ATOM     10  H   UNL     1      31.282 -11.188 -23.195  0.00  0.00    +0.155 HD
BRANCH   9  14
ATOM     11  O   UNL     1      30.272 -10.082 -21.338  0.00  0.00    -0.269 OA
ATOM     12  N   UNL     1      31.934  -8.576 -21.961  0.00  0.00    -0.237 N 
ATOM     13  N   UNL     1      32.826  -7.003 -20.407  0.00  0.00    -0.233 NA
ATOM     14  C   UNL     1      32.102  -8.917 -23.358  0.00  0.00    +0.158 C 
ATOM     15  C   UNL     1      32.781  -7.688 -23.946  0.00  0.00    +0.037 C 
ATOM     16  C   UNL     1      33.562  -7.082 -22.778  0.00  0.00    +0.064 C 
ATOM     17  C   UNL     1      32.759  -7.518 -21.590  0.00  0.00    +0.115 C 
ATOM     18  C   UNL     1      31.051  -9.171 -21.082  0.00  0.00    +0.256 C 
ATOM     19  C   UNL     1      31.125  -8.586 -19.718  0.00  0.00    +0.079 C 
ATOM     20  C   UNL     1      31.981  -7.579 -19.487  0.00  0.00    +0.105 C 
ENDBRANCH   9  14
ENDBRANCH   4   8
BRANCH   1  21
ATOM     21  C   UNL     1      34.221 -16.639 -23.337  0.00  0.00    +0.005 C 
BRANCH  21  24
ATOM     22  N   UNL     1      33.448 -18.204 -21.575  0.00  0.00    +0.388 N 
ATOM     23  C   UNL     1      34.023 -18.882 -20.403  0.00  0.00    -0.030 C 
ATOM     24  C   UNL     1      34.444 -17.184 -21.935  0.00  0.00    -0.057 C 
ATOM     25  C   UNL     1      35.532 -18.903 -20.646  0.00  0.00    -0.021 C 
ATOM     26  C   UNL     1      35.769 -17.918 -21.785  0.00  0.00    -0.023 C 
ATOM     27  H   UNL     1      32.557 -17.770 -21.339  0.00  0.00    -0.084 HD
ATOM     28  H   UNL     1      33.259 -18.849 -22.342  0.00  0.00    -0.084 HD
BRANCH  23  29
ATOM     29  C   UNL     1      33.433 -20.272 -20.210  0.00  0.00    +0.113 C 
BRANCH  29  30
ATOM     30  C   UNL     1      33.926 -20.930 -18.941  0.00  0.00    +0.002 C 
ATOM     31  C   UNL     1      35.264 -20.806 -18.564  0.00  0.00    -0.002 C 
ATOM     32  C   UNL     1      33.043 -21.662 -18.147  0.00  0.00    -0.002 C 
ATOM     33  C   UNL     1      35.718 -21.413 -17.394  0.00  0.00    -0.000 C 
ATOM     34  C   UNL     1      33.497 -22.270 -16.977  0.00  0.00    -0.000 C 
ATOM     35  C   UNL     1      34.835 -22.145 -16.600  0.00  0.00    -0.000 C 
ENDBRANCH  29  30
BRANCH  29  36
ATOM     36  O   UNL     1      32.009 -20.190 -20.169  0.00  0.00    -0.382 OA
ATOM     37  H   UNL     1      31.668 -20.037 -21.064  0.00  0.00    +0.211 HD
ENDBRANCH  29  36
ENDBRANCH  23  29
ENDBRANCH  21  24
ENDBRANCH   1  21
TORSDOF 7
ENDMDL
MODEL 5
REMARK VINA RESULT:     -11.4      2.571     11.506
REMARK  Name = 44472635
REMARK  7 active torsions:
REMARK  status: ('A' for Active; 'I' for Inactive)
REMARK    1  A    between atoms: C_1  and  C_21
REMARK    2  A    between atoms: C_4  and  N_8
REMARK    3  A    between atoms: C_9  and  C_14
REMARK    4  A    between atoms: C_21  and  C_24
REMARK    5  A    between atoms: C_23  and  C_29
REMARK    6  A    between atoms: C_29  and  C_30
REMARK    7  A    between atoms: C_29  and  O_36
REMARK                            x       y       z     vdW  Elec       q    Type
REMARK                         _______ _______ _______ _____ _____    ______ ____
ROOT
ATOM      1  C   UNL     1      31.299 -11.971 -20.817  0.00  0.00    -0.024 C 
ATOM      2  C   UNL     1      31.505 -12.985 -19.881  0.00  0.00    -0.003 C 
ATOM      3  C   UNL     1      31.870 -12.068 -22.086  0.00  0.00    -0.003 C 
ATOM      4  C   UNL     1      32.852 -14.192 -21.484  0.00  0.00    +0.050 C 
ATOM      5  C   UNL     1      32.282 -14.095 -20.214  0.00  0.00    +0.014 C 
ATOM      6  C   UNL     1      32.646 -13.178 -22.420  0.00  0.00    +0.014 C 
ENDROOT
BRANCH   4   8
ATOM      7  O   UNL     1      34.198 -16.234 -19.729  0.00  0.00    -0.273 OA
ATOM      8  N   UNL     1      33.639 -15.318 -21.822  0.00  0.00    -0.283 N 
ATOM      9  C   UNL     1      34.235 -16.223 -20.956  0.00  0.00    +0.245 C 
ATOM     10  H   UNL     1      33.780 -15.476 -22.784  0.00  0.00    +0.155 HD
BRANCH   9  14
ATOM     11  O   UNL     1      36.814 -17.905 -19.460  0.00  0.00    -0.269 OA
ATOM     12  N   UNL     1      35.039 -18.452 -20.864  0.00  0.00    -0.237 N 
ATOM     13  N   UNL     1      33.899 -20.536 -20.663  0.00  0.00    -0.233 NA
ATOM     14  C   UNL     1      34.987 -17.279 -21.709  0.00  0.00    +0.158 C 
ATOM     15  C   UNL     1      34.216 -17.754 -22.933  0.00  0.00    +0.037 C 
ATOM     16  C   UNL     1      33.310 -18.871 -22.409  0.00  0.00    +0.064 C 
ATOM     17  C   UNL     1      34.087 -19.395 -21.239  0.00  0.00    +0.115 C 
ATOM     18  C   UNL     1      35.929 -18.668 -19.831  0.00  0.00    +0.256 C 
ATOM     19  C   UNL     1      35.717 -19.978 -19.161  0.00  0.00    +0.079 C 
ATOM     20  C   UNL     1      34.747 -20.789 -19.610  0.00  0.00    +0.105 C 
ENDBRANCH   9  14
ENDBRANCH   4   8
BRANCH   1  21
ATOM     21  C   UNL     1      30.471 -10.783 -20.461  0.00  0.00    +0.005 C 
BRANCH  21  24
ATOM     22  N   UNL     1      31.318  -8.543 -21.103  0.00  0.00    +0.388 N 
ATOM     23  C   UNL     1      31.831  -7.345 -20.422  0.00  0.00    -0.030 C 
ATOM     24  C   UNL     1      31.320  -9.585 -20.066  0.00  0.00    -0.057 C 
ATOM     25  C   UNL     1      31.293  -7.429 -18.993  0.00  0.00    -0.021 C 
ATOM     26  C   UNL     1      30.789  -8.859 -18.838  0.00  0.00    -0.023 C 
ATOM     27  H   UNL     1      31.926  -8.805 -21.878  0.00  0.00    -0.084 HD
ATOM     28  H   UNL     1      30.391  -8.395 -21.503  0.00  0.00    -0.084 HD
BRANCH  23  29
ATOM     29  C   UNL     1      31.416  -6.067 -21.138  0.00  0.00    +0.113 C 
BRANCH  29  30
ATOM     30  C   UNL     1      32.293  -5.772 -22.334  0.00  0.00    +0.002 C 
ATOM     31  C   UNL     1      33.510  -6.437 -22.489  0.00  0.00    -0.002 C 
ATOM     32  C   UNL     1      31.886  -4.833 -23.282  0.00  0.00    -0.002 C 
ATOM     33  C   UNL     1      34.318  -6.164 -23.591  0.00  0.00    -0.000 C 
ATOM     34  C   UNL     1      32.695  -4.559 -24.385  0.00  0.00    -0.000 C 
ATOM     35  C   UNL     1      33.911  -5.225 -24.540  0.00  0.00    -0.000 C 
ENDBRANCH  29  30
BRANCH  29  36
ATOM     36  O   UNL     1      30.060  -6.176 -21.571  0.00  0.00    -0.382 OA
ATOM     37  H   UNL     1      29.692  -7.021 -21.270  0.00  0.00    +0.211 HD
ENDBRANCH  29  36
ENDBRANCH  23  29
ENDBRANCH  21  24
ENDBRANCH   1  21
TORSDOF 7
ENDMDL
MODEL 6
REMARK VINA RESULT:     -11.3      5.598     13.937
REMARK  Name = 44472635
REMARK  7 active torsions:
REMARK  status: ('A' for Active; 'I' for Inactive)
REMARK    1  A    between atoms: C_1  and  C_21
REMARK    2  A    between atoms: C_4  and  N_8
REMARK    3  A    between atoms: C_9  and  C_14
REMARK    4  A    between atoms: C_21  and  C_24
REMARK    5  A    between atoms: C_23  and  C_29
REMARK    6  A    between atoms: C_29  and  C_30
REMARK    7  A    between atoms: C_29  and  O_36
REMARK                            x       y       z     vdW  Elec       q    Type
REMARK                         _______ _______ _______ _____ _____    ______ ____
ROOT
ATOM      1  C   UNL     1      35.227 -20.386 -19.141  0.00  0.00    -0.024 C 
ATOM      2  C   UNL     1      36.091 -20.785 -18.121  0.00  0.00    -0.003 C 
ATOM      3  C   UNL     1      33.911 -20.850 -19.161  0.00  0.00    -0.003 C 
ATOM      4  C   UNL     1      34.324 -22.111 -17.143  0.00  0.00    +0.050 C 
ATOM      5  C   UNL     1      35.640 -21.648 -17.122  0.00  0.00    +0.014 C 
ATOM      6  C   UNL     1      33.460 -21.712 -18.162  0.00  0.00    +0.014 C 
ENDROOT
BRANCH   4   8
ATOM      7  O   UNL     1      34.861 -22.123 -14.180  0.00  0.00    -0.273 OA
ATOM      8  N   UNL     1      33.866 -22.986 -16.129  0.00  0.00    -0.283 N 
ATOM      9  C   UNL     1      34.156 -22.934 -14.773  0.00  0.00    +0.245 C 
ATOM     10  H   UNL     1      33.272 -23.716 -16.421  0.00  0.00    +0.155 HD
BRANCH   9  14
ATOM     11  O   UNL     1      35.217 -26.167 -15.145  0.00  0.00    -0.269 OA
ATOM     12  N   UNL     1      34.507 -24.822 -13.383  0.00  0.00    -0.237 N 
ATOM     13  N   UNL     1      35.461 -25.027 -11.207  0.00  0.00    -0.233 NA
ATOM     14  C   UNL     1      33.474 -24.043 -14.031  0.00  0.00    +0.158 C 
ATOM     15  C   UNL     1      32.642 -23.517 -12.871  0.00  0.00    +0.037 C 
ATOM     16  C   UNL     1      33.624 -23.430 -11.700  0.00  0.00    +0.064 C 
ATOM     17  C   UNL     1      34.621 -24.497 -12.034  0.00  0.00    +0.115 C 
ATOM     18  C   UNL     1      35.279 -25.801 -13.977  0.00  0.00    +0.256 C 
ATOM     19  C   UNL     1      36.249 -26.412 -13.032  0.00  0.00    +0.079 C 
ATOM     20  C   UNL     1      36.270 -25.993 -11.758  0.00  0.00    +0.105 C 
ENDBRANCH   9  14
ENDBRANCH   4   8
BRANCH   1  21
ATOM     21  C   UNL     1      35.709 -19.466 -20.210  0.00  0.00    +0.005 C 
BRANCH  21  24
ATOM     22  N   UNL     1      34.643 -17.241 -20.462  0.00  0.00    +0.388 N 
ATOM     23  C   UNL     1      33.761 -16.568 -21.427  0.00  0.00    -0.030 C 
ATOM     24  C   UNL     1      34.580 -18.662 -20.834  0.00  0.00    -0.057 C 
ATOM     25  C   UNL     1      33.932 -17.336 -22.737  0.00  0.00    -0.021 C 
ATOM     26  C   UNL     1      34.642 -18.629 -22.354  0.00  0.00    -0.023 C 
ATOM     27  H   UNL     1      34.307 -17.104 -19.509  0.00  0.00    -0.084 HD
ATOM     28  H   UNL     1      35.595 -16.876 -20.486  0.00  0.00    -0.084 HD
BRANCH  23  29
ATOM     29  C   UNL     1      34.093 -15.088 -21.558  0.00  0.00    +0.113 C 
BRANCH  29  30
ATOM     30  C   UNL     1      33.494 -14.477 -22.804  0.00  0.00    +0.002 C 
ATOM     31  C   UNL     1      33.333 -13.094 -22.896  0.00  0.00    -0.002 C 
ATOM     32  C   UNL     1      33.101 -15.296 -23.863  0.00  0.00    -0.002 C 
ATOM     33  C   UNL     1      32.781 -12.531 -24.045  0.00  0.00    -0.000 C 
ATOM     34  C   UNL     1      32.548 -14.733 -25.013  0.00  0.00    -0.000 C 
ATOM     35  C   UNL     1      32.388 -13.350 -25.104  0.00  0.00    -0.000 C 
ENDBRANCH  29  30
BRANCH  29  36
ATOM     36  O   UNL     1      33.609 -14.383 -20.415  0.00  0.00    -0.382 OA
ATOM     37  H   UNL     1      34.323 -13.841 -20.044  0.00  0.00    +0.211 HD
ENDBRANCH  29  36
ENDBRANCH  23  29
ENDBRANCH  21  24
ENDBRANCH   1  21
TORSDOF 7
ENDMDL
MODEL 7
REMARK VINA RESULT:     -11.2      5.724     14.018
REMARK  Name = 44472635
REMARK  7 active torsions:
REMARK  status: ('A' for Active; 'I' for Inactive)
REMARK    1  A    between atoms: C_1  and  C_21
REMARK    2  A    between atoms: C_4  and  N_8
REMARK    3  A    between atoms: C_9  and  C_14
REMARK    4  A    between atoms: C_21  and  C_24
REMARK    5  A    between atoms: C_23  and  C_29
REMARK    6  A    between atoms: C_29  and  C_30
REMARK    7  A    between atoms: C_29  and  O_36
REMARK                            x       y       z     vdW  Elec       q    Type
REMARK                         _______ _______ _______ _____ _____    ______ ____
ROOT
ATOM      1  C   UNL     1      32.452 -21.292 -18.515  0.00  0.00    -0.024 C 
ATOM      2  C   UNL     1      31.467 -21.674 -17.603  0.00  0.00    -0.003 C 
ATOM      3  C   UNL     1      33.783 -21.645 -18.292  0.00  0.00    -0.003 C 
ATOM      4  C   UNL     1      33.145 -22.764 -16.249  0.00  0.00    +0.050 C 
ATOM      5  C   UNL     1      31.813 -22.410 -16.470  0.00  0.00    +0.014 C 
ATOM      6  C   UNL     1      34.129 -22.382 -17.160  0.00  0.00    +0.014 C 
ENDROOT
BRANCH   4   8
ATOM      7  O   UNL     1      34.807 -22.004 -13.856  0.00  0.00    -0.273 OA
ATOM      8  N   UNL     1      33.496 -23.511 -15.099  0.00  0.00    -0.283 N 
ATOM      9  C   UNL     1      34.274 -23.097 -14.027  0.00  0.00    +0.245 C 
ATOM     10  H   UNL     1      33.149 -24.432 -15.056  0.00  0.00    +0.155 HD
BRANCH   9  14
ATOM     11  O   UNL     1      35.489 -26.165 -14.935  0.00  0.00    -0.269 OA
ATOM     12  N   UNL     1      35.754 -24.717 -13.131  0.00  0.00    -0.237 N 
ATOM     13  N   UNL     1      37.851 -24.498 -12.017  0.00  0.00    -0.233 NA
ATOM     14  C   UNL     1      34.414 -24.186 -13.007  0.00  0.00    +0.158 C 
ATOM     15  C   UNL     1      34.376 -23.637 -11.588  0.00  0.00    +0.037 C 
ATOM     16  C   UNL     1      35.828 -23.259 -11.282  0.00  0.00    +0.064 C 
ATOM     17  C   UNL     1      36.599 -24.207 -12.150  0.00  0.00    +0.115 C 
ATOM     18  C   UNL     1      36.176 -25.645 -14.063  0.00  0.00    +0.256 C 
ATOM     19  C   UNL     1      37.616 -25.983 -13.917  0.00  0.00    +0.079 C 
ATOM     20  C   UNL     1      38.325 -25.402 -12.938  0.00  0.00    +0.105 C 
ENDBRANCH   9  14
ENDBRANCH   4   8
BRANCH   1  21
ATOM     21  C   UNL     1      32.082 -20.503 -19.725  0.00  0.00    +0.005 C 
BRANCH  21  24
ATOM     22  N   UNL     1      33.178 -18.608 -20.888  0.00  0.00    +0.388 N 
ATOM     23  C   UNL     1      34.546 -18.206 -21.250  0.00  0.00    -0.030 C 
ATOM     24  C   UNL     1      33.301 -20.018 -20.493  0.00  0.00    -0.057 C 
ATOM     25  C   UNL     1      35.460 -18.970 -20.291  0.00  0.00    -0.021 C 
ATOM     26  C   UNL     1      34.575 -20.040 -19.662  0.00  0.00    -0.023 C 
ATOM     27  H   UNL     1      32.552 -18.510 -21.687  0.00  0.00    -0.084 HD
ATOM     28  H   UNL     1      32.788 -18.029 -20.145  0.00  0.00    -0.084 HD
BRANCH  23  29
ATOM     29  C   UNL     1      34.731 -16.697 -21.171  0.00  0.00    +0.113 C 
BRANCH  29  30
ATOM     30  C   UNL     1      34.022 -15.976 -22.294  0.00  0.00    +0.002 C 
ATOM     31  C   UNL     1      33.484 -14.707 -22.079  0.00  0.00    -0.002 C 
ATOM     32  C   UNL     1      33.905 -16.579 -23.547  0.00  0.00    -0.002 C 
ATOM     33  C   UNL     1      32.829 -14.042 -23.115  0.00  0.00    -0.000 C 
ATOM     34  C   UNL     1      33.250 -15.915 -24.583  0.00  0.00    -0.000 C 
ATOM     35  C   UNL     1      32.713 -14.645 -24.368  0.00  0.00    -0.000 C 
ENDBRANCH  29  30
BRANCH  29  36
ATOM     36  O   UNL     1      34.236 -16.216 -19.922  0.00  0.00    -0.382 OA
ATOM     37  H   UNL     1      33.274 -16.333 -19.889  0.00  0.00    +0.211 HD
ENDBRANCH  29  36
ENDBRANCH  23  29
ENDBRANCH  21  24
ENDBRANCH   1  21
TORSDOF 7
ENDMDL
MODEL 8
REMARK VINA RESULT:     -11.1      1.087      1.586
REMARK  Name = 44472635
REMARK  7 active torsions:
REMARK  status: ('A' for Active; 'I' for Inactive)
REMARK    1  A    between atoms: C_1  and  C_21
REMARK    2  A    between atoms: C_4  and  N_8
REMARK    3  A    between atoms: C_9  and  C_14
REMARK    4  A    between atoms: C_21  and  C_24
REMARK    5  A    between atoms: C_23  and  C_29
REMARK    6  A    between atoms: C_29  and  C_30
REMARK    7  A    between atoms: C_29  and  O_36
REMARK                            x       y       z     vdW  Elec       q    Type
REMARK                         _______ _______ _______ _____ _____    ______ ____
ROOT
ATOM      1  C   UNL     1      32.635 -14.750 -23.870  0.00  0.00    -0.024 C 
ATOM      2  C   UNL     1      32.845 -14.328 -22.557  0.00  0.00    -0.003 C 
ATOM      3  C   UNL     1      32.561 -13.813 -24.900  0.00  0.00    -0.003 C 
ATOM      4  C   UNL     1      32.909 -12.031 -23.306  0.00  0.00    +0.050 C 
ATOM      5  C   UNL     1      32.982 -12.968 -22.275  0.00  0.00    +0.014 C 
ATOM      6  C   UNL     1      32.699 -12.454 -24.619  0.00  0.00    +0.014 C 
ENDROOT
BRANCH   4   8
ATOM      7  O   UNL     1      31.197 -10.197 -21.643  0.00  0.00    -0.273 OA
ATOM      8  N   UNL     1      33.048 -10.653 -23.021  0.00  0.00    -0.283 N 
ATOM      9  C   UNL     1      32.215  -9.863 -22.242  0.00  0.00    +0.245 C 
ATOM     10  H   UNL     1      33.827 -10.202 -23.422  0.00  0.00    +0.155 HD
BRANCH   9  14
ATOM     11  O   UNL     1      33.544  -8.385 -25.028  0.00  0.00    -0.269 OA
ATOM     12  N   UNL     1      32.118  -7.745 -23.304  0.00  0.00    -0.237 N 
ATOM     13  N   UNL     1      30.298  -6.253 -23.691  0.00  0.00    -0.233 NA
ATOM     14  C   UNL     1      32.708  -8.448 -22.185  0.00  0.00    +0.158 C 
ATOM     15  C   UNL     1      32.162  -7.710 -20.971  0.00  0.00    +0.037 C 
ATOM     16  C   UNL     1      30.815  -7.149 -21.433  0.00  0.00    +0.064 C 
ATOM     17  C   UNL     1      31.023  -6.981 -22.908  0.00  0.00    +0.115 C 
ATOM     18  C   UNL     1      32.573  -7.767 -24.607  0.00  0.00    +0.256 C 
ATOM     19  C   UNL     1      31.742  -6.934 -25.514  0.00  0.00    +0.079 C 
ATOM     20  C   UNL     1      30.698  -6.261 -25.007  0.00  0.00    +0.105 C 
ENDBRANCH   9  14
ENDBRANCH   4   8
BRANCH   1  21
ATOM     21  C   UNL     1      32.486 -16.203 -24.171  0.00  0.00    +0.005 C 
BRANCH  21  24
ATOM     22  N   UNL     1      34.207 -16.711 -22.460  0.00  0.00    +0.388 N 
ATOM     23  C   UNL     1      35.140 -17.808 -22.156  0.00  0.00    -0.030 C 
ATOM     24  C   UNL     1      33.735 -16.996 -23.823  0.00  0.00    -0.057 C 
ATOM     25  C   UNL     1      34.554 -19.040 -22.847  0.00  0.00    -0.021 C 
ATOM     26  C   UNL     1      33.500 -18.500 -23.805  0.00  0.00    -0.023 C 
ATOM     27  H   UNL     1      34.686 -15.812 -22.426  0.00  0.00    -0.084 HD
ATOM     28  H   UNL     1      33.443 -16.655 -21.788  0.00  0.00    -0.084 HD
BRANCH  23  29
ATOM     29  C   UNL     1      35.319 -17.996 -20.657  0.00  0.00    +0.113 C 
BRANCH  29  30
ATOM     30  C   UNL     1      34.522 -19.167 -20.129  0.00  0.00    +0.002 C 
ATOM     31  C   UNL     1      35.175 -20.238 -19.519  0.00  0.00    -0.002 C 
ATOM     32  C   UNL     1      33.132 -19.177 -20.253  0.00  0.00    -0.002 C 
ATOM     33  C   UNL     1      34.439 -21.318 -19.032  0.00  0.00    -0.000 C 
ATOM     34  C   UNL     1      32.396 -20.257 -19.767  0.00  0.00    -0.000 C 
ATOM     35  C   UNL     1      33.049 -21.328 -19.156  0.00  0.00    -0.000 C 
ENDBRANCH  29  30
BRANCH  29  36
ATOM     36  O   UNL     1      36.700 -18.202 -20.359  0.00  0.00    -0.382 OA
ATOM     37  H   UNL     1      37.022 -18.980 -20.840  0.00  0.00    +0.211 HD
ENDBRANCH  29  36
ENDBRANCH  23  29
ENDBRANCH  21  24
ENDBRANCH   1  21
TORSDOF 7
ENDMDL
MODEL 9
REMARK VINA RESULT:     -11.1      1.993      3.400
REMARK  Name = 44472635
REMARK  7 active torsions:
REMARK  status: ('A' for Active; 'I' for Inactive)
REMARK    1  A    between atoms: C_1  and  C_21
REMARK    2  A    between atoms: C_4  and  N_8
REMARK    3  A    between atoms: C_9  and  C_14
REMARK    4  A    between atoms: C_21  and  C_24
REMARK    5  A    between atoms: C_23  and  C_29
REMARK    6  A    between atoms: C_29  and  C_30
REMARK    7  A    between atoms: C_29  and  O_36
REMARK                            x       y       z     vdW  Elec       q    Type
REMARK                         _______ _______ _______ _____ _____    ______ ____
ROOT
ATOM      1  C   UNL     1      33.004 -11.501 -24.025  0.00  0.00    -0.024 C 
ATOM      2  C   UNL     1      32.184 -11.301 -22.915  0.00  0.00    -0.003 C 
ATOM      3  C   UNL     1      33.719 -10.432 -24.566  0.00  0.00    -0.003 C 
ATOM      4  C   UNL     1      32.795  -8.963 -22.886  0.00  0.00    +0.050 C 
ATOM      5  C   UNL     1      32.079 -10.032 -22.345  0.00  0.00    +0.014 C 
ATOM      6  C   UNL     1      33.615  -9.164 -23.996  0.00  0.00    +0.014 C 
ENDROOT
BRANCH   4   8
ATOM      7  O   UNL     1      30.531  -7.681 -21.369  0.00  0.00    -0.273 OA
ATOM      8  N   UNL     1      32.689  -7.676 -22.308  0.00  0.00    -0.283 N 
ATOM      9  C   UNL     1      31.607  -7.145 -21.619  0.00  0.00    +0.245 C 
ATOM     10  H   UNL     1      33.474  -7.089 -22.406  0.00  0.00    +0.155 HD
BRANCH   9  14
ATOM     11  O   UNL     1      33.079  -4.903 -23.744  0.00  0.00    -0.269 OA
ATOM     12  N   UNL     1      31.363  -4.853 -22.173  0.00  0.00    -0.237 N 
ATOM     13  N   UNL     1      29.424  -3.504 -22.499  0.00  0.00    -0.233 NA
ATOM     14  C   UNL     1      31.890  -5.746 -21.163  0.00  0.00    +0.158 C 
ATOM     15  C   UNL     1      31.093  -5.387 -19.917  0.00  0.00    +0.037 C 
ATOM     16  C   UNL     1      29.754  -4.869 -20.451  0.00  0.00    +0.064 C 
ATOM     17  C   UNL     1      30.131  -4.325 -21.796  0.00  0.00    +0.115 C 
ATOM     18  C   UNL     1      31.986  -4.508 -23.356  0.00  0.00    +0.256 C 
ATOM     19  C   UNL     1      31.176  -3.566 -24.172  0.00  0.00    +0.079 C 
ATOM     20  C   UNL     1      29.992  -3.148 -23.700  0.00  0.00    +0.105 C 
ENDBRANCH   9  14
ENDBRANCH   4   8
BRANCH   1  21
ATOM     21  C   UNL     1      33.115 -12.857 -24.636  0.00  0.00    +0.005 C 
BRANCH  21  24
ATOM     22  N   UNL     1      33.215 -15.292 -24.180  0.00  0.00    +0.388 N 
ATOM     23  C   UNL     1      33.352 -16.168 -23.006  0.00  0.00    -0.030 C 
ATOM     24  C   UNL     1      32.912 -13.968 -23.619  0.00  0.00    -0.057 C 
ATOM     25  C   UNL     1      33.989 -15.297 -21.923  0.00  0.00    -0.021 C 
ATOM     26  C   UNL     1      33.858 -13.866 -22.430  0.00  0.00    -0.023 C 
ATOM     27  H   UNL     1      32.456 -15.611 -24.781  0.00  0.00    -0.084 HD
ATOM     28  H   UNL     1      34.055 -15.286 -24.758  0.00  0.00    -0.084 HD
BRANCH  23  29
ATOM     29  C   UNL     1      34.167 -17.413 -23.323  0.00  0.00    +0.113 C 
BRANCH  29  30
ATOM     30  C   UNL     1      34.472 -18.226 -22.085  0.00  0.00    +0.002 C 
ATOM     31  C   UNL     1      33.471 -18.997 -21.492  0.00  0.00    -0.002 C 
ATOM     32  C   UNL     1      35.753 -18.205 -21.535  0.00  0.00    -0.002 C 
ATOM     33  C   UNL     1      33.753 -19.746 -20.350  0.00  0.00    -0.000 C 
ATOM     34  C   UNL     1      36.035 -18.954 -20.392  0.00  0.00    -0.000 C 
ATOM     35  C   UNL     1      35.034 -19.725 -19.800  0.00  0.00    -0.000 C 
ENDBRANCH  29  30
BRANCH  29  36
ATOM     36  O   UNL     1      33.457 -18.230 -24.253  0.00  0.00    -0.382 OA
ATOM     37  H   UNL     1      33.691 -17.968 -25.157  0.00  0.00    +0.211 HD
ENDBRANCH  29  36
ENDBRANCH  23  29
ENDBRANCH  21  24
ENDBRANCH   1  21
TORSDOF 7
ENDMDL
