MODEL 1
REMARK VINA RESULT:     -12.4      0.000      0.000
REMARK  Name = 5326929
REMARK  3 active torsions:
REMARK  status: ('A' for Active; 'I' for Inactive)
REMARK    1  A    between atoms: C_7  and  C_21
REMARK    2  A    between atoms: C_21  and  C_22
REMARK    3  A    between atoms: C_22  and  C_23
REMARK                            x       y       z     vdW  Elec       q    Type
REMARK                         _______ _______ _______ _____ _____    ______ ____
ROOT
ATOM      1  O   UNL     1      33.802 -24.560 -11.244  0.00  0.00    -0.209 OA
ATOM      2  N   UNL     1      33.783 -22.624 -14.750  0.00  0.00    -0.275 N 
ATOM      3  N   UNL     1      28.965 -24.832 -13.278  0.00  0.00    -0.315 N 
ATOM      4  N   UNL     1      28.986 -23.749 -15.218  0.00  0.00    -0.316 N 
ATOM      5  N   UNL     1      34.957 -23.358 -12.814  0.00  0.00    -0.302 NA
ATOM      6  N   UNL     1      36.007 -22.118 -14.502  0.00  0.00    -0.320 N 
ATOM      7  C   UNL     1      31.421 -23.106 -15.114  0.00  0.00    +0.007 C 
ATOM      8  C   UNL     1      32.582 -23.203 -14.331  0.00  0.00    +0.060 C 
ATOM      9  C   UNL     1      30.238 -23.705 -14.647  0.00  0.00    +0.056 C 
ATOM     10  C   UNL     1      30.250 -24.376 -13.429  0.00  0.00    +0.060 C 
ATOM     11  C   UNL     1      32.555 -23.890 -13.107  0.00  0.00    +0.109 C 
ATOM     12  C   UNL     1      31.384 -24.495 -12.625  0.00  0.00    +0.029 C 
ATOM     13  C   UNL     1      33.817 -23.963 -12.316  0.00  0.00    +0.208 C 
ATOM     14  C   UNL     1      28.249 -24.431 -14.373  0.00  0.00    +0.182 C 
ATOM     15  C   UNL     1      34.906 -22.736 -13.963  0.00  0.00    +0.248 C 
ATOM     16  H   UNL     1      33.826 -22.139 -15.605  0.00  0.00    +0.156 HD
ATOM     17  H   UNL     1      28.619 -25.353 -12.518  0.00  0.00    +0.148 HD
ATOM     18  H   UNL     1      28.705 -23.355 -16.075  0.00  0.00    +0.148 HD
ATOM     19  H   UNL     1      35.937 -21.658 -15.370  0.00  0.00    +0.146 HD
ATOM     20  H   UNL     1      36.866 -22.136 -14.023  0.00  0.00    +0.146 HD
ENDROOT
BRANCH   7  21
ATOM     21  C   UNL     1      31.443 -22.375 -16.420  0.00  0.00    +0.034 C 
BRANCH  21  22
ATOM     22  C   UNL     1      32.504 -22.895 -17.407  0.00  0.00    +0.031 C 
BRANCH  22  23
ATOM     23  C   UNL     1      33.050 -21.821 -18.315  0.00  0.00    -0.022 C 
ATOM     24  C   UNL     1      32.170 -21.010 -19.016  0.00  0.00    -0.005 C 
ATOM     25  C   UNL     1      34.422 -21.663 -18.432  0.00  0.00    -0.005 C 
ATOM     26  C   UNL     1      34.055 -19.849 -19.984  0.00  0.00    -0.022 C 
ATOM     27  C   UNL     1      32.676 -20.018 -19.856  0.00  0.00    -0.005 C 
ATOM     28  C   UNL     1      34.928 -20.671 -19.272  0.00  0.00    -0.005 C 
ATOM     29  C   UNL     1      34.595 -18.787 -20.881  0.00  0.00    +0.031 C 
ENDBRANCH  22  23
ENDBRANCH  21  22
ENDBRANCH   7  21
TORSDOF 3
ENDMDL
MODEL 2
REMARK VINA RESULT:     -12.1      1.694      4.144
REMARK  Name = 5326929
REMARK  3 active torsions:
REMARK  status: ('A' for Active; 'I' for Inactive)
REMARK    1  A    between atoms: C_7  and  C_21
REMARK    2  A    between atoms: C_21  and  C_22
REMARK    3  A    between atoms: C_22  and  C_23
REMARK                            x       y       z     vdW  Elec       q    Type
REMARK                         _______ _______ _______ _____ _____    ______ ____
ROOT
ATOM      1  O   UNL     1      27.820 -25.366 -13.204  0.00  0.00    -0.209 OA
ATOM      2  N   UNL     1      28.987 -22.832 -16.078  0.00  0.00    -0.275 N 
ATOM      3  N   UNL     1      33.010 -24.653 -12.796  0.00  0.00    -0.315 N 
ATOM      4  N   UNL     1      33.626 -23.246 -14.402  0.00  0.00    -0.316 N 
ATOM      5  N   UNL     1      27.255 -24.049 -14.990  0.00  0.00    -0.302 NA
ATOM      6  N   UNL     1      26.827 -22.663 -16.830  0.00  0.00    -0.320 N 
ATOM      7  C   UNL     1      31.315 -22.939 -15.361  0.00  0.00    +0.007 C 
ATOM      8  C   UNL     1      29.973 -23.323 -15.217  0.00  0.00    +0.060 C 
ATOM      9  C   UNL     1      32.268 -23.463 -14.469  0.00  0.00    +0.056 C 
ATOM     10  C   UNL     1      31.858 -24.342 -13.473  0.00  0.00    +0.060 C 
ATOM     11  C   UNL     1      29.597 -24.214 -14.198  0.00  0.00    +0.109 C 
ATOM     12  C   UNL     1      30.533 -24.745 -13.298  0.00  0.00    +0.029 C 
ATOM     13  C   UNL     1      28.157 -24.587 -14.091  0.00  0.00    +0.208 C 
ATOM     14  C   UNL     1      34.038 -23.973 -13.389  0.00  0.00    +0.182 C 
ATOM     15  C   UNL     1      27.679 -23.226 -15.913  0.00  0.00    +0.248 C 
ATOM     16  H   UNL     1      29.228 -22.207 -16.798  0.00  0.00    +0.156 HD
ATOM     17  H   UNL     1      33.083 -25.256 -12.022  0.00  0.00    +0.148 HD
ATOM     18  H   UNL     1      34.170 -22.670 -14.986  0.00  0.00    +0.148 HD
ATOM     19  H   UNL     1      27.177 -22.046 -17.514  0.00  0.00    +0.146 HD
ATOM     20  H   UNL     1      25.867 -22.875 -16.805  0.00  0.00    +0.146 HD
ENDROOT
BRANCH   7  21
ATOM     21  C   UNL     1      31.723 -21.992 -16.445  0.00  0.00    +0.034 C 
BRANCH  21  22
ATOM     22  C   UNL     1      32.713 -22.595 -17.459  0.00  0.00    +0.031 C 
BRANCH  22  23
ATOM     23  C   UNL     1      33.270 -21.578 -18.425  0.00  0.00    -0.022 C 
ATOM     24  C   UNL     1      32.398 -20.797 -19.168  0.00  0.00    -0.005 C 
ATOM     25  C   UNL     1      34.643 -21.442 -18.552  0.00  0.00    -0.005 C 
ATOM     26  C   UNL     1      34.293 -19.710 -20.200  0.00  0.00    -0.022 C 
ATOM     27  C   UNL     1      32.914 -19.858 -20.061  0.00  0.00    -0.005 C 
ATOM     28  C   UNL     1      35.158 -20.502 -19.444  0.00  0.00    -0.005 C 
ATOM     29  C   UNL     1      34.844 -18.705 -21.153  0.00  0.00    +0.031 C 
ENDBRANCH  22  23
ENDBRANCH  21  22
ENDBRANCH   7  21
TORSDOF 3
ENDMDL
MODEL 3
REMARK VINA RESULT:     -11.8      1.809      2.639
REMARK  Name = 5326929
REMARK  3 active torsions:
REMARK  status: ('A' for Active; 'I' for Inactive)
REMARK    1  A    between atoms: C_7  and  C_21
REMARK    2  A    between atoms: C_21  and  C_22
REMARK    3  A    between atoms: C_22  and  C_23
REMARK                            x       y       z     vdW  Elec       q    Type
REMARK                         _______ _______ _______ _____ _____    ______ ____
ROOT
ATOM      1  O   UNL     1      35.858 -25.766 -11.089  0.00  0.00    -0.209 OA
ATOM      2  N   UNL     1      36.526 -23.939 -14.590  0.00  0.00    -0.275 N 
ATOM      3  N   UNL     1      31.471 -23.259 -12.530  0.00  0.00    -0.315 N 
ATOM      4  N   UNL     1      31.873 -22.256 -14.471  0.00  0.00    -0.316 N 
ATOM      5  N   UNL     1      37.307 -25.298 -12.799  0.00  0.00    -0.302 NA
ATOM      6  N   UNL     1      38.677 -24.734 -14.614  0.00  0.00    -0.320 N 
ATOM      7  C   UNL     1      34.259 -23.042 -14.665  0.00  0.00    +0.007 C 
ATOM      8  C   UNL     1      35.255 -23.797 -14.025  0.00  0.00    +0.060 C 
ATOM      9  C   UNL     1      32.998 -22.929 -14.053  0.00  0.00    +0.056 C 
ATOM     10  C   UNL     1      32.772 -23.566 -12.838  0.00  0.00    +0.060 C 
ATOM     11  C   UNL     1      34.988 -24.425 -12.798  0.00  0.00    +0.109 C 
ATOM     12  C   UNL     1      33.736 -24.325 -12.173  0.00  0.00    +0.029 C 
ATOM     13  C   UNL     1      36.082 -25.215 -12.162  0.00  0.00    +0.208 C 
ATOM     14  C   UNL     1      30.977 -22.475 -13.536  0.00  0.00    +0.182 C 
ATOM     15  C   UNL     1      37.482 -24.685 -13.941  0.00  0.00    +0.248 C 
ATOM     16  H   UNL     1      36.735 -23.508 -15.450  0.00  0.00    +0.156 HD
ATOM     17  H   UNL     1      30.980 -23.551 -11.728  0.00  0.00    +0.148 HD
ATOM     18  H   UNL     1      31.763 -21.726 -15.293  0.00  0.00    +0.148 HD
ATOM     19  H   UNL     1      38.777 -24.262 -15.473  0.00  0.00    +0.146 HD
ATOM     20  H   UNL     1      39.432 -25.241 -14.240  0.00  0.00    +0.146 HD
ENDROOT
BRANCH   7  21
ATOM     21  C   UNL     1      34.537 -22.369 -15.972  0.00  0.00    +0.034 C 
BRANCH  21  22
ATOM     22  C   UNL     1      33.416 -22.543 -17.013  0.00  0.00    +0.031 C 
BRANCH  22  23
ATOM     23  C   UNL     1      33.517 -21.576 -18.166  0.00  0.00    -0.022 C 
ATOM     24  C   UNL     1      34.768 -21.214 -18.642  0.00  0.00    -0.005 C 
ATOM     25  C   UNL     1      32.359 -21.066 -18.730  0.00  0.00    -0.005 C 
ATOM     26  C   UNL     1      33.704 -19.798 -20.285  0.00  0.00    -0.022 C 
ATOM     27  C   UNL     1      34.861 -20.319 -19.708  0.00  0.00    -0.005 C 
ATOM     28  C   UNL     1      32.452 -20.172 -19.796  0.00  0.00    -0.005 C 
ATOM     29  C   UNL     1      33.803 -18.843 -21.425  0.00  0.00    +0.031 C 
ENDBRANCH  22  23
ENDBRANCH  21  22
ENDBRANCH   7  21
TORSDOF 3
ENDMDL
MODEL 4
REMARK VINA RESULT:     -11.7      1.204      4.036
REMARK  Name = 5326929
REMARK  3 active torsions:
REMARK  status: ('A' for Active; 'I' for Inactive)
REMARK    1  A    between atoms: C_7  and  C_21
REMARK    2  A    between atoms: C_21  and  C_22
REMARK    3  A    between atoms: C_22  and  C_23
REMARK                            x       y       z     vdW  Elec       q    Type
REMARK                         _______ _______ _______ _____ _____    ______ ____
ROOT
ATOM      1  O   UNL     1      30.038 -25.033 -12.001  0.00  0.00    -0.209 OA
ATOM      2  N   UNL     1      29.683 -23.211 -15.550  0.00  0.00    -0.275 N 
ATOM      3  N   UNL     1      34.795 -23.404 -13.527  0.00  0.00    -0.315 N 
ATOM      4  N   UNL     1      34.565 -22.400 -15.496  0.00  0.00    -0.316 N 
ATOM      5  N   UNL     1      28.683 -24.355 -13.718  0.00  0.00    -0.302 NA
ATOM      6  N   UNL     1      27.423 -23.603 -15.544  0.00  0.00    -0.320 N 
ATOM      7  C   UNL     1      32.073 -22.741 -15.657  0.00  0.00    +0.007 C 
ATOM      8  C   UNL     1      30.963 -23.286 -14.993  0.00  0.00    +0.060 C 
ATOM      9  C   UNL     1      33.339 -22.844 -15.055  0.00  0.00    +0.056 C 
ATOM     10  C   UNL     1      33.457 -23.478 -13.822  0.00  0.00    +0.060 C 
ATOM     11  C   UNL     1      31.122 -23.918 -13.750  0.00  0.00    +0.109 C 
ATOM     12  C   UNL     1      32.377 -24.029 -13.132  0.00  0.00    +0.029 C 
ATOM     13  C   UNL     1      29.908 -24.478 -13.088  0.00  0.00    +0.208 C 
ATOM     14  C   UNL     1      35.413 -22.751 -14.558  0.00  0.00    +0.182 C 
ATOM     15  C   UNL     1      28.612 -23.753 -14.876  0.00  0.00    +0.248 C 
ATOM     16  H   UNL     1      29.548 -22.771 -16.420  0.00  0.00    +0.156 HD
ATOM     17  H   UNL     1      35.231 -23.757 -12.719  0.00  0.00    +0.148 HD
ATOM     18  H   UNL     1      34.762 -21.922 -16.334  0.00  0.00    +0.148 HD
ATOM     19  H   UNL     1      27.402 -23.144 -16.416  0.00  0.00    +0.146 HD
ATOM     20  H   UNL     1      26.591 -23.954 -15.153  0.00  0.00    +0.146 HD
ENDROOT
BRANCH   7  21
ATOM     21  C   UNL     1      31.911 -22.067 -16.983  0.00  0.00    +0.034 C 
BRANCH  21  22
ATOM     22  C   UNL     1      32.914 -22.542 -18.050  0.00  0.00    +0.031 C 
BRANCH  22  23
ATOM     23  C   UNL     1      33.521 -21.411 -18.843  0.00  0.00    -0.022 C 
ATOM     24  C   UNL     1      34.898 -21.242 -18.845  0.00  0.00    -0.005 C 
ATOM     25  C   UNL     1      32.692 -20.560 -19.557  0.00  0.00    -0.005 C 
ATOM     26  C   UNL     1      34.635 -19.331 -20.300  0.00  0.00    -0.022 C 
ATOM     27  C   UNL     1      35.457 -20.196 -19.578  0.00  0.00    -0.005 C 
ATOM     28  C   UNL     1      33.252 -19.514 -20.290  0.00  0.00    -0.005 C 
ATOM     29  C   UNL     1      35.233 -18.214 -21.085  0.00  0.00    +0.031 C 
ENDBRANCH  22  23
ENDBRANCH  21  22
ENDBRANCH   7  21
TORSDOF 3
ENDMDL
MODEL 5
REMARK VINA RESULT:     -11.3      1.416      3.963
REMARK  Name = 5326929
REMARK  3 active torsions:
REMARK  status: ('A' for Active; 'I' for Inactive)
REMARK    1  A    between atoms: C_7  and  C_21
REMARK    2  A    between atoms: C_21  and  C_22
REMARK    3  A    between atoms: C_22  and  C_23
REMARK                            x       y       z     vdW  Elec       q    Type
REMARK                         _______ _______ _______ _____ _____    ______ ____
ROOT
ATOM      1  O   UNL     1      30.019 -24.457 -12.035  0.00  0.00    -0.209 OA
ATOM      2  N   UNL     1      31.356 -22.698 -15.376  0.00  0.00    -0.275 N 
ATOM      3  N   UNL     1      35.271 -24.395 -11.904  0.00  0.00    -0.315 N 
ATOM      4  N   UNL     1      35.981 -23.416 -13.767  0.00  0.00    -0.316 N 
ATOM      5  N   UNL     1      29.539 -23.438 -14.029  0.00  0.00    -0.302 NA
ATOM      6  N   UNL     1      29.200 -22.382 -16.092  0.00  0.00    -0.320 N 
ATOM      7  C   UNL     1      33.684 -22.984 -14.710  0.00  0.00    +0.007 C 
ATOM      8  C   UNL     1      32.312 -23.147 -14.460  0.00  0.00    +0.060 C 
ATOM      9  C   UNL     1      34.606 -23.454 -13.757  0.00  0.00    +0.056 C 
ATOM     10  C   UNL     1      34.136 -24.064 -12.599  0.00  0.00    +0.060 C 
ATOM     11  C   UNL     1      31.877 -23.768 -13.279  0.00  0.00    +0.109 C 
ATOM     12  C   UNL     1      32.781 -24.243 -12.316  0.00  0.00    +0.029 C 
ATOM     13  C   UNL     1      30.408 -23.915 -13.065  0.00  0.00    +0.208 C 
ATOM     14  C   UNL     1      36.347 -23.987 -12.643  0.00  0.00    +0.182 C 
ATOM     15  C   UNL     1      30.018 -22.871 -15.105  0.00  0.00    +0.248 C 
ATOM     16  H   UNL     1      31.638 -22.259 -16.210  0.00  0.00    +0.156 HD
ATOM     17  H   UNL     1      35.305 -24.845 -11.029  0.00  0.00    +0.148 HD
ATOM     18  H   UNL     1      36.565 -23.041 -14.466  0.00  0.00    +0.148 HD
ATOM     19  H   UNL     1      29.592 -21.959 -16.891  0.00  0.00    +0.146 HD
ATOM     20  H   UNL     1      28.223 -22.452 -16.002  0.00  0.00    +0.146 HD
ENDROOT
BRANCH   7  21
ATOM     21  C   UNL     1      34.156 -22.324 -15.967  0.00  0.00    +0.034 C 
BRANCH  21  22
ATOM     22  C   UNL     1      33.266 -22.608 -17.191  0.00  0.00    +0.031 C 
BRANCH  22  23
ATOM     23  C   UNL     1      33.418 -21.585 -18.290  0.00  0.00    -0.022 C 
ATOM     24  C   UNL     1      34.689 -21.216 -18.704  0.00  0.00    -0.005 C 
ATOM     25  C   UNL     1      32.286 -21.033 -18.866  0.00  0.00    -0.005 C 
ATOM     26  C   UNL     1      33.698 -19.705 -20.308  0.00  0.00    -0.022 C 
ATOM     27  C   UNL     1      34.829 -20.270 -19.720  0.00  0.00    -0.005 C 
ATOM     28  C   UNL     1      32.426 -20.087 -19.882  0.00  0.00    -0.005 C 
ATOM     29  C   UNL     1      33.848 -18.696 -21.394  0.00  0.00    +0.031 C 
ENDBRANCH  22  23
ENDBRANCH  21  22
ENDBRANCH   7  21
TORSDOF 3
ENDMDL
MODEL 6
REMARK VINA RESULT:     -10.9      2.928      5.899
REMARK  Name = 5326929
REMARK  3 active torsions:
REMARK  status: ('A' for Active; 'I' for Inactive)
REMARK    1  A    between atoms: C_7  and  C_21
REMARK    2  A    between atoms: C_21  and  C_22
REMARK    3  A    between atoms: C_22  and  C_23
REMARK                            x       y       z     vdW  Elec       q    Type
REMARK                         _______ _______ _______ _____ _____    ______ ____
ROOT
ATOM      1  O   UNL     1      36.492 -21.434 -16.145  0.00  0.00    -0.209 OA
ATOM      2  N   UNL     1      32.953 -23.256 -15.696  0.00  0.00    -0.275 N 
ATOM      3  N   UNL     1      36.259 -23.462 -11.303  0.00  0.00    -0.315 N 
ATOM      4  N   UNL     1      34.287 -24.463 -11.085  0.00  0.00    -0.316 N 
ATOM      5  N   UNL     1      34.470 -22.016 -17.048  0.00  0.00    -0.302 NA
ATOM      6  N   UNL     1      32.366 -22.680 -17.837  0.00  0.00    -0.320 N 
ATOM      7  C   UNL     1      33.477 -23.921 -13.409  0.00  0.00    +0.007 C 
ATOM      8  C   UNL     1      33.830 -23.281 -14.607  0.00  0.00    +0.060 C 
ATOM      9  C   UNL     1      34.394 -23.916 -12.343  0.00  0.00    +0.056 C 
ATOM     10  C   UNL     1      35.621 -23.282 -12.505  0.00  0.00    +0.060 C 
ATOM     11  C   UNL     1      35.079 -22.651 -14.732  0.00  0.00    +0.109 C 
ATOM     12  C   UNL     1      36.008 -22.637 -13.681  0.00  0.00    +0.029 C 
ATOM     13  C   UNL     1      35.403 -21.988 -16.028  0.00  0.00    +0.208 C 
ATOM     14  C   UNL     1      35.421 -24.174 -10.490  0.00  0.00    +0.182 C 
ATOM     15  C   UNL     1      33.327 -22.622 -16.859  0.00  0.00    +0.248 C 
ATOM     16  H   UNL     1      32.073 -23.692 -15.631  0.00  0.00    +0.156 HD
ATOM     17  H   UNL     1      37.158 -23.138 -11.069  0.00  0.00    +0.148 HD
ATOM     18  H   UNL     1      33.526 -24.964 -10.713  0.00  0.00    +0.148 HD
ATOM     19  H   UNL     1      31.514 -23.144 -17.664  0.00  0.00    +0.146 HD
ATOM     20  H   UNL     1      32.527 -22.259 -18.711  0.00  0.00    +0.146 HD
ENDROOT
BRANCH   7  21
ATOM     21  C   UNL     1      32.147 -24.593 -13.269  0.00  0.00    +0.034 C 
BRANCH  21  22
ATOM     22  C   UNL     1      31.033 -23.666 -12.748  0.00  0.00    +0.031 C 
BRANCH  22  23
ATOM     23  C   UNL     1      29.910 -23.470 -13.738  0.00  0.00    -0.022 C 
ATOM     24  C   UNL     1      28.921 -24.436 -13.845  0.00  0.00    -0.005 C 
ATOM     25  C   UNL     1      29.887 -22.328 -14.522  0.00  0.00    -0.005 C 
ATOM     26  C   UNL     1      27.848 -23.110 -15.556  0.00  0.00    -0.022 C 
ATOM     27  C   UNL     1      27.884 -24.254 -14.759  0.00  0.00    -0.005 C 
ATOM     28  C   UNL     1      28.850 -22.146 -15.437  0.00  0.00    -0.005 C 
ATOM     29  C   UNL     1      26.739 -22.915 -16.532  0.00  0.00    +0.031 C 
ENDBRANCH  22  23
ENDBRANCH  21  22
ENDBRANCH   7  21
TORSDOF 3
ENDMDL
MODEL 7
REMARK VINA RESULT:     -10.2      2.810      5.703
REMARK  Name = 5326929
REMARK  3 active torsions:
REMARK  status: ('A' for Active; 'I' for Inactive)
REMARK    1  A    between atoms: C_7  and  C_21
REMARK    2  A    between atoms: C_21  and  C_22
REMARK    3  A    between atoms: C_22  and  C_23
REMARK                            x       y       z     vdW  Elec       q    Type
REMARK                         _______ _______ _______ _____ _____    ______ ____
ROOT
ATOM      1  O   UNL     1      32.294 -22.327 -18.536  0.00  0.00    -0.209 OA
ATOM      2  N   UNL     1      34.573 -22.364 -15.244  0.00  0.00    -0.275 N 
ATOM      3  N   UNL     1      29.359 -23.948 -14.490  0.00  0.00    -0.315 N 
ATOM      4  N   UNL     1      30.650 -23.959 -12.682  0.00  0.00    -0.316 N 
ATOM      5  N   UNL     1      34.339 -21.958 -17.577  0.00  0.00    -0.302 NA
ATOM      6  N   UNL     1      36.372 -21.625 -16.460  0.00  0.00    -0.320 N 
ATOM      7  C   UNL     1      32.728 -23.150 -13.857  0.00  0.00    +0.007 C 
ATOM      8  C   UNL     1      33.239 -22.758 -15.104  0.00  0.00    +0.060 C 
ATOM      9  C   UNL     1      31.379 -23.538 -13.771  0.00  0.00    +0.056 C 
ATOM     10  C   UNL     1      30.592 -23.524 -14.917  0.00  0.00    +0.060 C 
ATOM     11  C   UNL     1      32.413 -22.757 -16.239  0.00  0.00    +0.109 C 
ATOM     12  C   UNL     1      31.065 -23.140 -16.173  0.00  0.00    +0.029 C 
ATOM     13  C   UNL     1      33.008 -22.331 -17.539  0.00  0.00    +0.208 C 
ATOM     14  C   UNL     1      29.446 -24.195 -13.148  0.00  0.00    +0.182 C 
ATOM     15  C   UNL     1      35.048 -21.985 -16.478  0.00  0.00    +0.248 C 
ATOM     16  H   UNL     1      35.170 -22.356 -14.461  0.00  0.00    +0.156 HD
ATOM     17  H   UNL     1      28.557 -24.055 -15.049  0.00  0.00    +0.148 HD
ATOM     18  H   UNL     1      30.964 -24.060 -11.754  0.00  0.00    +0.148 HD
ATOM     19  H   UNL     1      36.879 -21.656 -15.615  0.00  0.00    +0.146 HD
ATOM     20  H   UNL     1      36.815 -21.336 -17.289  0.00  0.00    +0.146 HD
ENDROOT
BRANCH   7  21
ATOM     21  C   UNL     1      33.603 -23.155 -12.643  0.00  0.00    +0.034 C 
BRANCH  21  22
ATOM     22  C   UNL     1      34.068 -24.559 -12.217  0.00  0.00    +0.031 C 
BRANCH  22  23
ATOM     23  C   UNL     1      35.495 -24.858 -12.604  0.00  0.00    -0.022 C 
ATOM     24  C   UNL     1      36.527 -24.425 -11.786  0.00  0.00    -0.005 C 
ATOM     25  C   UNL     1      35.750 -25.560 -13.771  0.00  0.00    -0.005 C 
ATOM     26  C   UNL     1      38.118 -25.406 -13.317  0.00  0.00    -0.022 C 
ATOM     27  C   UNL     1      37.846 -24.701 -12.145  0.00  0.00    -0.005 C 
ATOM     28  C   UNL     1      37.069 -25.836 -14.131  0.00  0.00    -0.005 C 
ATOM     29  C   UNL     1      39.527 -25.702 -13.700  0.00  0.00    +0.031 C 
ENDBRANCH  22  23
ENDBRANCH  21  22
ENDBRANCH   7  21
TORSDOF 3
ENDMDL
MODEL 8
REMARK VINA RESULT:      -9.7     12.041     15.573
REMARK  Name = 5326929
REMARK  3 active torsions:
REMARK  status: ('A' for Active; 'I' for Inactive)
REMARK    1  A    between atoms: C_7  and  C_21
REMARK    2  A    between atoms: C_21  and  C_22
REMARK    3  A    between atoms: C_22  and  C_23
REMARK                            x       y       z     vdW  Elec       q    Type
REMARK                         _______ _______ _______ _____ _____    ______ ____
ROOT
ATOM      1  O   UNL     1      30.814  -7.727 -18.403  0.00  0.00    -0.209 OA
ATOM      2  N   UNL     1      31.277 -10.249 -21.479  0.00  0.00    -0.275 N 
ATOM      3  N   UNL     1      32.447  -4.988 -22.578  0.00  0.00    -0.315 N 
ATOM      4  N   UNL     1      32.696  -6.412 -24.265  0.00  0.00    -0.316 N 
ATOM      5  N   UNL     1      30.692  -9.868 -19.204  0.00  0.00    -0.302 NA
ATOM      6  N   UNL     1      30.616 -12.006 -20.160  0.00  0.00    -0.320 N 
ATOM      7  C   UNL     1      31.992  -8.455 -22.968  0.00  0.00    +0.007 C 
ATOM      8  C   UNL     1      31.562  -8.900 -21.708  0.00  0.00    +0.060 C 
ATOM      9  C   UNL     1      32.266  -7.088 -23.145  0.00  0.00    +0.056 C 
ATOM     10  C   UNL     1      32.104  -6.216 -22.074  0.00  0.00    +0.060 C 
ATOM     11  C   UNL     1      31.409  -7.989 -20.650  0.00  0.00    +0.109 C 
ATOM     12  C   UNL     1      31.677  -6.621 -20.808  0.00  0.00    +0.029 C 
ATOM     13  C   UNL     1      30.949  -8.516 -19.333  0.00  0.00    +0.208 C 
ATOM     14  C   UNL     1      32.793  -5.158 -23.890  0.00  0.00    +0.182 C 
ATOM     15  C   UNL     1      30.856 -10.656 -20.234  0.00  0.00    +0.248 C 
ATOM     16  H   UNL     1      31.376 -10.905 -22.206  0.00  0.00    +0.156 HD
ATOM     17  H   UNL     1      32.445  -4.136 -22.085  0.00  0.00    +0.148 HD
ATOM     18  H   UNL     1      32.888  -6.789 -25.154  0.00  0.00    +0.148 HD
ATOM     19  H   UNL     1      30.749 -12.573 -20.955  0.00  0.00    +0.146 HD
ATOM     20  H   UNL     1      30.310 -12.406 -19.316  0.00  0.00    +0.146 HD
ENDROOT
BRANCH   7  21
ATOM     21  C   UNL     1      32.158  -9.420 -24.099  0.00  0.00    +0.034 C 
BRANCH  21  22
ATOM     22  C   UNL     1      33.437 -10.273 -24.008  0.00  0.00    +0.031 C 
BRANCH  22  23
ATOM     23  C   UNL     1      33.180 -11.751 -24.166  0.00  0.00    -0.022 C 
ATOM     24  C   UNL     1      32.776 -12.244 -25.398  0.00  0.00    -0.005 C 
ATOM     25  C   UNL     1      33.352 -12.592 -23.078  0.00  0.00    -0.005 C 
ATOM     26  C   UNL     1      32.707 -14.468 -24.457  0.00  0.00    -0.022 C 
ATOM     27  C   UNL     1      32.539 -13.611 -25.544  0.00  0.00    -0.005 C 
ATOM     28  C   UNL     1      33.115 -13.958 -23.223  0.00  0.00    -0.005 C 
ATOM     29  C   UNL     1      32.455 -15.929 -24.613  0.00  0.00    +0.031 C 
ENDBRANCH  22  23
ENDBRANCH  21  22
ENDBRANCH   7  21
TORSDOF 3
ENDMDL
MODEL 9
REMARK VINA RESULT:      -9.6     10.433     13.997
REMARK  Name = 5326929
REMARK  3 active torsions:
REMARK  status: ('A' for Active; 'I' for Inactive)
REMARK    1  A    between atoms: C_7  and  C_21
REMARK    2  A    between atoms: C_21  and  C_22
REMARK    3  A    between atoms: C_22  and  C_23
REMARK                            x       y       z     vdW  Elec       q    Type
REMARK                         _______ _______ _______ _____ _____    ______ ____
ROOT
ATOM      1  O   UNL     1      33.053  -6.725 -23.230  0.00  0.00    -0.209 OA
ATOM      2  N   UNL     1      33.899 -10.539 -24.113  0.00  0.00    -0.275 N 
ATOM      3  N   UNL     1      30.149  -9.838 -20.150  0.00  0.00    -0.315 N 
ATOM      4  N   UNL     1      30.639 -11.943 -20.664  0.00  0.00    -0.316 N 
ATOM      5  N   UNL     1      34.250  -8.215 -24.491  0.00  0.00    -0.302 NA
ATOM      6  N   UNL     1      35.401  -9.855 -25.705  0.00  0.00    -0.320 N 
ATOM      7  C   UNL     1      32.327 -11.375 -22.447  0.00  0.00    +0.007 C 
ATOM      8  C   UNL     1      32.951 -10.307 -23.112  0.00  0.00    +0.060 C 
ATOM      9  C   UNL     1      31.380 -11.088 -21.448  0.00  0.00    +0.056 C 
ATOM     10  C   UNL     1      31.090  -9.762 -21.145  0.00  0.00    +0.060 C 
ATOM     11  C   UNL     1      32.632  -8.982 -22.778  0.00  0.00    +0.109 C 
ATOM     12  C   UNL     1      31.691  -8.676 -21.783  0.00  0.00    +0.029 C 
ATOM     13  C   UNL     1      33.326  -7.887 -23.515  0.00  0.00    +0.208 C 
ATOM     14  C   UNL     1      29.914 -11.161 -19.898  0.00  0.00    +0.182 C 
ATOM     15  C   UNL     1      34.496  -9.473 -24.747  0.00  0.00    +0.248 C 
ATOM     16  H   UNL     1      34.139 -11.460 -24.363  0.00  0.00    +0.156 HD
ATOM     17  H   UNL     1      29.721  -9.076 -19.698  0.00  0.00    +0.148 HD
ATOM     18  H   UNL     1      30.651 -12.927 -20.674  0.00  0.00    +0.148 HD
ATOM     19  H   UNL     1      35.565 -10.811 -25.875  0.00  0.00    +0.146 HD
ATOM     20  H   UNL     1      35.888  -9.173 -26.222  0.00  0.00    +0.146 HD
ENDROOT
BRANCH   7  21
ATOM     21  C   UNL     1      32.661 -12.790 -22.799  0.00  0.00    +0.034 C 
BRANCH  21  22
ATOM     22  C   UNL     1      33.621 -13.468 -21.804  0.00  0.00    +0.031 C 
BRANCH  22  23
ATOM     23  C   UNL     1      33.796 -14.945 -22.057  0.00  0.00    -0.022 C 
ATOM     24  C   UNL     1      34.094 -15.788 -20.996  0.00  0.00    -0.005 C 
ATOM     25  C   UNL     1      33.655 -15.436 -23.346  0.00  0.00    -0.005 C 
ATOM     26  C   UNL     1      34.117 -17.660 -22.524  0.00  0.00    -0.022 C 
ATOM     27  C   UNL     1      34.255 -17.153 -21.232  0.00  0.00    -0.005 C 
ATOM     28  C   UNL     1      33.817 -16.801 -23.581  0.00  0.00    -0.005 C 
ATOM     29  C   UNL     1      34.288 -19.119 -22.774  0.00  0.00    +0.031 C 
ENDBRANCH  22  23
ENDBRANCH  21  22
ENDBRANCH   7  21
TORSDOF 3
ENDMDL
