MODEL 1
REMARK VINA RESULT:     -11.4      0.000      0.000
REMARK  Name = 71183216
REMARK  5 active torsions:
REMARK  status: ('A' for Active; 'I' for Inactive)
REMARK    1  A    between atoms: N_3  and  C_24
REMARK    2  A    between atoms: C_10  and  C_13
REMARK    3  A    between atoms: C_18  and  O_19
REMARK    4  A    between atoms: O_19  and  C_23
REMARK    5  A    between atoms: C_24  and  C_27
REMARK                            x       y       z     vdW  Elec       q    Type
REMARK                         _______ _______ _______ _____ _____    ______ ____
ROOT
ATOM      1  O   UNL     1      33.915 -15.684 -24.877  0.00  0.00    -0.473 OA
ATOM      2  O   UNL     1      34.678 -14.283 -21.282  0.00  0.00    -0.270 OA
ATOM      3  N   UNL     1      33.058 -13.821 -22.897  0.00  0.00    -0.259 N 
ATOM      4  C   UNL     1      32.068 -14.360 -23.826  0.00  0.00    +0.142 C 
ATOM      5  C   UNL     1      33.869 -16.100 -22.495  0.00  0.00    +0.087 C 
ATOM      6  C   UNL     1      32.729 -14.906 -25.086  0.00  0.00    +0.227 C 
ATOM      7  C   UNL     1      33.908 -14.654 -22.165  0.00  0.00    +0.253 C 
ATOM      8  C   UNL     1      33.838 -16.549 -23.821  0.00  0.00    +0.143 C 
ATOM      9  C   UNL     1      33.900 -17.026 -21.447  0.00  0.00    +0.008 C 
ATOM     10  C   UNL     1      33.890 -18.392 -21.730  0.00  0.00    +0.000 C 
ATOM     11  C   UNL     1      33.851 -17.915 -24.100  0.00  0.00    +0.037 C 
ATOM     12  C   UNL     1      33.865 -18.836 -23.053  0.00  0.00    +0.003 C 
ENDROOT
BRANCH  10  13
ATOM     13  C   UNL     1      33.912 -19.353 -20.648  0.00  0.00    +0.000 C 
ATOM     14  C   UNL     1      32.716 -19.858 -20.139  0.00  0.00    +0.003 C 
ATOM     15  C   UNL     1      35.130 -19.772 -20.113  0.00  0.00    +0.003 C 
ATOM     16  C   UNL     1      32.737 -20.783 -19.095  0.00  0.00    +0.037 C 
ATOM     17  C   UNL     1      35.152 -20.697 -19.069  0.00  0.00    +0.037 C 
ATOM     18  C   UNL     1      33.956 -21.202 -18.559  0.00  0.00    +0.147 C 
BRANCH  18  19
ATOM     19  O   UNL     1      33.977 -22.104 -17.540  0.00  0.00    -0.404 OA
BRANCH  19  23
ATOM     20  F   UNL     1      31.717 -22.086 -17.185  0.00  0.00    -0.133 F 
ATOM     21  F   UNL     1      32.958 -23.547 -16.135  0.00  0.00    -0.133 F 
ATOM     22  F   UNL     1      32.613 -23.784 -18.280  0.00  0.00    -0.133 F 
ATOM     23  C   UNL     1      32.805 -22.877 -17.299  0.00  0.00    +0.575 C 
ENDBRANCH  19  23
ENDBRANCH  18  19
ENDBRANCH  10  13
BRANCH   3  24
ATOM     24  C   UNL     1      33.106 -12.377 -22.732  0.00  0.00    +0.194 C 
BRANCH  24  27
ATOM     25  N   UNL     1      31.715 -10.618 -21.814  0.00  0.00    -0.217 NA
ATOM     26  N   UNL     1      31.743 -12.790 -20.770  0.00  0.00    -0.195 NA
ATOM     27  C   UNL     1      32.123 -11.896 -21.704  0.00  0.00    +0.028 C 
ATOM     28  C   UNL     1      30.832 -10.219 -20.874  0.00  0.00    +0.164 C 
ATOM     29  C   UNL     1      30.860 -12.325 -19.863  0.00  0.00    +0.107 C 
ATOM     30  C   UNL     1      30.365 -11.036 -19.866  0.00  0.00    +0.022 C 
ENDBRANCH  24  27
ENDBRANCH   3  24
TORSDOF 5
ENDMDL
MODEL 2
REMARK VINA RESULT:     -11.0      5.651      9.932
REMARK  Name = 71183216
REMARK  5 active torsions:
REMARK  status: ('A' for Active; 'I' for Inactive)
REMARK    1  A    between atoms: N_3  and  C_24
REMARK    2  A    between atoms: C_10  and  C_13
REMARK    3  A    between atoms: C_18  and  O_19
REMARK    4  A    between atoms: O_19  and  C_23
REMARK    5  A    between atoms: C_24  and  C_27
REMARK                            x       y       z     vdW  Elec       q    Type
REMARK                         _______ _______ _______ _____ _____    ______ ____
ROOT
ATOM      1  O   UNL     1      35.316 -23.243 -14.992  0.00  0.00    -0.473 OA
ATOM      2  O   UNL     1      32.162 -23.895 -17.250  0.00  0.00    -0.270 OA
ATOM      3  N   UNL     1      32.466 -23.301 -15.014  0.00  0.00    -0.259 N 
ATOM      4  C   UNL     1      33.140 -22.421 -14.062  0.00  0.00    +0.142 C 
ATOM      5  C   UNL     1      33.916 -22.433 -16.791  0.00  0.00    +0.087 C 
ATOM      6  C   UNL     1      34.579 -22.865 -13.822  0.00  0.00    +0.227 C 
ATOM      7  C   UNL     1      32.767 -23.276 -16.378  0.00  0.00    +0.253 C 
ATOM      8  C   UNL     1      35.116 -22.424 -16.068  0.00  0.00    +0.143 C 
ATOM      9  C   UNL     1      33.796 -21.660 -17.950  0.00  0.00    +0.008 C 
ATOM     10  C   UNL     1      34.870 -20.878 -18.375  0.00  0.00    +0.000 C 
ATOM     11  C   UNL     1      36.195 -21.658 -16.509  0.00  0.00    +0.037 C 
ATOM     12  C   UNL     1      36.067 -20.876 -17.656  0.00  0.00    +0.003 C 
ENDROOT
BRANCH  10  13
ATOM     13  C   UNL     1      34.746 -20.069 -19.569  0.00  0.00    +0.000 C 
ATOM     14  C   UNL     1      35.852 -19.374 -20.059  0.00  0.00    +0.003 C 
ATOM     15  C   UNL     1      33.520 -19.984 -20.228  0.00  0.00    +0.003 C 
ATOM     16  C   UNL     1      35.731 -18.593 -21.209  0.00  0.00    +0.037 C 
ATOM     17  C   UNL     1      33.400 -19.203 -21.378  0.00  0.00    +0.037 C 
ATOM     18  C   UNL     1      34.505 -18.507 -21.868  0.00  0.00    +0.147 C 
BRANCH  18  19
ATOM     19  O   UNL     1      34.387 -17.745 -22.989  0.00  0.00    -0.404 OA
BRANCH  19  23
ATOM     20  F   UNL     1      32.835 -16.150 -23.519  0.00  0.00    -0.133 F 
ATOM     21  F   UNL     1      34.940 -15.587 -23.354  0.00  0.00    -0.133 F 
ATOM     22  F   UNL     1      33.819 -16.068 -21.541  0.00  0.00    -0.133 F 
ATOM     23  C   UNL     1      33.979 -16.389 -22.842  0.00  0.00    +0.575 C 
ENDBRANCH  19  23
ENDBRANCH  18  19
ENDBRANCH  10  13
BRANCH   3  24
ATOM     24  C   UNL     1      31.435 -24.185 -14.495  0.00  0.00    +0.194 C 
BRANCH  24  27
ATOM     25  N   UNL     1      29.831 -22.408 -14.119  0.00  0.00    -0.217 NA
ATOM     26  N   UNL     1      29.185 -24.358 -15.380  0.00  0.00    -0.195 NA
ATOM     27  C   UNL     1      30.059 -23.612 -14.676  0.00  0.00    +0.028 C 
ATOM     28  C   UNL     1      28.584 -21.924 -14.301  0.00  0.00    +0.164 C 
ATOM     29  C   UNL     1      27.960 -23.814 -15.524  0.00  0.00    +0.107 C 
ATOM     30  C   UNL     1      27.598 -22.588 -15.001  0.00  0.00    +0.022 C 
ENDBRANCH  24  27
ENDBRANCH   3  24
TORSDOF 5
ENDMDL
MODEL 3
REMARK VINA RESULT:     -11.0      5.886      9.512
REMARK  Name = 71183216
REMARK  5 active torsions:
REMARK  status: ('A' for Active; 'I' for Inactive)
REMARK    1  A    between atoms: N_3  and  C_24
REMARK    2  A    between atoms: C_10  and  C_13
REMARK    3  A    between atoms: C_18  and  O_19
REMARK    4  A    between atoms: O_19  and  C_23
REMARK    5  A    between atoms: C_24  and  C_27
REMARK                            x       y       z     vdW  Elec       q    Type
REMARK                         _______ _______ _______ _____ _____    ______ ____
ROOT
ATOM      1  O   UNL     1      33.132 -18.802 -23.117  0.00  0.00    -0.473 OA
ATOM      2  O   UNL     1      34.264 -16.576 -20.078  0.00  0.00    -0.270 OA
ATOM      3  N   UNL     1      35.285 -18.262 -21.329  0.00  0.00    -0.259 N 
ATOM      4  C   UNL     1      35.594 -18.783 -22.657  0.00  0.00    +0.142 C 
ATOM      5  C   UNL     1      33.802 -16.604 -22.361  0.00  0.00    +0.087 C 
ATOM      6  C   UNL     1      34.386 -19.479 -23.274  0.00  0.00    +0.227 C 
ATOM      7  C   UNL     1      34.470 -17.141 -21.150  0.00  0.00    +0.253 C 
ATOM      8  C   UNL     1      33.200 -17.450 -23.302  0.00  0.00    +0.143 C 
ATOM      9  C   UNL     1      33.750 -15.218 -22.537  0.00  0.00    +0.008 C 
ATOM     10  C   UNL     1      33.107 -14.685 -23.654  0.00  0.00    +0.000 C 
ATOM     11  C   UNL     1      32.538 -16.912 -24.405  0.00  0.00    +0.037 C 
ATOM     12  C   UNL     1      32.502 -15.530 -24.587  0.00  0.00    +0.003 C 
ENDROOT
BRANCH  10  13
ATOM     13  C   UNL     1      33.060 -13.251 -23.845  0.00  0.00    +0.000 C 
ATOM     14  C   UNL     1      32.885 -12.722 -25.124  0.00  0.00    +0.003 C 
ATOM     15  C   UNL     1      33.193 -12.398 -22.749  0.00  0.00    +0.003 C 
ATOM     16  C   UNL     1      32.841 -11.340 -25.307  0.00  0.00    +0.037 C 
ATOM     17  C   UNL     1      33.149 -11.016 -22.932  0.00  0.00    +0.037 C 
ATOM     18  C   UNL     1      32.974 -10.487 -24.211  0.00  0.00    +0.147 C 
BRANCH  18  19
ATOM     19  O   UNL     1      32.933  -9.138 -24.390  0.00  0.00    -0.404 OA
BRANCH  19  23
ATOM     20  F   UNL     1      34.103  -7.410 -25.326  0.00  0.00    -0.133 F 
ATOM     21  F   UNL     1      35.140  -9.272 -24.845  0.00  0.00    -0.133 F 
ATOM     22  F   UNL     1      34.503  -7.955 -23.221  0.00  0.00    -0.133 F 
ATOM     23  C   UNL     1      34.165  -8.427 -24.440  0.00  0.00    +0.575 C 
ENDBRANCH  19  23
ENDBRANCH  18  19
ENDBRANCH  10  13
BRANCH   3  24
ATOM     24  C   UNL     1      35.889 -18.933 -20.189  0.00  0.00    +0.194 C 
BRANCH  24  27
ATOM     25  N   UNL     1      33.643 -19.788 -19.871  0.00  0.00    -0.217 NA
ATOM     26  N   UNL     1      35.489 -20.804 -18.701  0.00  0.00    -0.195 NA
ATOM     27  C   UNL     1      34.944 -19.906 -19.544  0.00  0.00    +0.028 C 
ATOM     28  C   UNL     1      32.823 -20.678 -19.273  0.00  0.00    +0.164 C 
ATOM     29  C   UNL     1      34.613 -21.663 -18.140  0.00  0.00    +0.107 C 
ATOM     30  C   UNL     1      33.255 -21.646 -18.391  0.00  0.00    +0.022 C 
ENDBRANCH  24  27
ENDBRANCH   3  24
TORSDOF 5
ENDMDL
MODEL 4
REMARK VINA RESULT:     -10.7      4.227      7.010
REMARK  Name = 71183216
REMARK  5 active torsions:
REMARK  status: ('A' for Active; 'I' for Inactive)
REMARK    1  A    between atoms: N_3  and  C_24
REMARK    2  A    between atoms: C_10  and  C_13
REMARK    3  A    between atoms: C_18  and  O_19
REMARK    4  A    between atoms: O_19  and  C_23
REMARK    5  A    between atoms: C_24  and  C_27
REMARK                            x       y       z     vdW  Elec       q    Type
REMARK                         _______ _______ _______ _____ _____    ______ ____
ROOT
ATOM      1  O   UNL     1      30.433  -8.736 -21.147  0.00  0.00    -0.473 OA
ATOM      2  O   UNL     1      32.590  -9.049 -24.421  0.00  0.00    -0.270 OA
ATOM      3  N   UNL     1      32.679  -7.670 -22.541  0.00  0.00    -0.259 N 
ATOM      4  C   UNL     1      32.657  -7.586 -21.083  0.00  0.00    +0.142 C 
ATOM      5  C   UNL     1      32.058 -10.036 -22.380  0.00  0.00    +0.087 C 
ATOM      6  C   UNL     1      31.237  -7.715 -20.542  0.00  0.00    +0.227 C 
ATOM      7  C   UNL     1      32.468  -8.878 -23.211  0.00  0.00    +0.253 C 
ATOM      8  C   UNL     1      31.096  -9.911 -21.370  0.00  0.00    +0.143 C 
ATOM      9  C   UNL     1      32.630 -11.285 -22.645  0.00  0.00    +0.008 C 
ATOM     10  C   UNL     1      32.244 -12.397 -21.896  0.00  0.00    +0.000 C 
ATOM     11  C   UNL     1      30.697 -11.029 -20.638  0.00  0.00    +0.037 C 
ATOM     12  C   UNL     1      31.281 -12.269 -20.894  0.00  0.00    +0.003 C 
ENDROOT
BRANCH  10  13
ATOM     13  C   UNL     1      32.841 -13.688 -22.161  0.00  0.00    +0.000 C 
ATOM     14  C   UNL     1      32.844 -14.203 -23.458  0.00  0.00    +0.003 C 
ATOM     15  C   UNL     1      33.411 -14.419 -21.119  0.00  0.00    +0.003 C 
ATOM     16  C   UNL     1      33.418 -15.448 -23.712  0.00  0.00    +0.037 C 
ATOM     17  C   UNL     1      33.985 -15.665 -21.374  0.00  0.00    +0.037 C 
ATOM     18  C   UNL     1      33.988 -16.180 -22.670  0.00  0.00    +0.147 C 
BRANCH  18  19
ATOM     19  O   UNL     1      34.546 -17.396 -22.919  0.00  0.00    -0.404 OA
BRANCH  19  23
ATOM     20  F   UNL     1      33.379 -18.838 -21.582  0.00  0.00    -0.133 F 
ATOM     21  F   UNL     1      34.387 -19.603 -23.363  0.00  0.00    -0.133 F 
ATOM     22  F   UNL     1      32.594 -18.376 -23.595  0.00  0.00    -0.133 F 
ATOM     23  C   UNL     1      33.711 -18.547 -22.857  0.00  0.00    +0.575 C 
ENDBRANCH  19  23
ENDBRANCH  18  19
ENDBRANCH  10  13
BRANCH   3  24
ATOM     24  C   UNL     1      32.968  -6.450 -23.278  0.00  0.00    +0.194 C 
BRANCH  24  27
ATOM     25  N   UNL     1      31.168  -6.026 -24.844  0.00  0.00    -0.217 NA
ATOM     26  N   UNL     1      31.261  -4.806 -22.768  0.00  0.00    -0.195 NA
ATOM     27  C   UNL     1      31.716  -5.712 -23.655  0.00  0.00    +0.028 C 
ATOM     28  C   UNL     1      30.044  -5.344 -25.151  0.00  0.00    +0.164 C 
ATOM     29  C   UNL     1      30.136  -4.161 -23.139  0.00  0.00    +0.107 C 
ATOM     30  C   UNL     1      29.477  -4.391 -24.330  0.00  0.00    +0.022 C 
ENDBRANCH  24  27
ENDBRANCH   3  24
TORSDOF 5
ENDMDL
MODEL 5
REMARK VINA RESULT:     -10.7      6.305     10.988
REMARK  Name = 71183216
REMARK  5 active torsions:
REMARK  status: ('A' for Active; 'I' for Inactive)
REMARK    1  A    between atoms: N_3  and  C_24
REMARK    2  A    between atoms: C_10  and  C_13
REMARK    3  A    between atoms: C_18  and  O_19
REMARK    4  A    between atoms: O_19  and  C_23
REMARK    5  A    between atoms: C_24  and  C_27
REMARK                            x       y       z     vdW  Elec       q    Type
REMARK                         _______ _______ _______ _____ _____    ______ ____
ROOT
ATOM      1  O   UNL     1      33.040 -23.660 -14.626  0.00  0.00    -0.473 OA
ATOM      2  O   UNL     1      36.436 -21.677 -14.681  0.00  0.00    -0.270 OA
ATOM      3  N   UNL     1      35.873 -23.932 -14.470  0.00  0.00    -0.259 N 
ATOM      4  C   UNL     1      35.090 -25.051 -14.988  0.00  0.00    +0.142 C 
ATOM      5  C   UNL     1      34.637 -22.424 -15.957  0.00  0.00    +0.087 C 
ATOM      6  C   UNL     1      33.634 -24.962 -14.545  0.00  0.00    +0.227 C 
ATOM      7  C   UNL     1      35.732 -22.639 -14.980  0.00  0.00    +0.253 C 
ATOM      8  C   UNL     1      33.361 -22.968 -15.760  0.00  0.00    +0.143 C 
ATOM      9  C   UNL     1      34.889 -21.629 -17.081  0.00  0.00    +0.008 C 
ATOM     10  C   UNL     1      33.870 -21.391 -18.002  0.00  0.00    +0.000 C 
ATOM     11  C   UNL     1      32.339 -22.708 -16.672  0.00  0.00    +0.037 C 
ATOM     12  C   UNL     1      32.598 -21.929 -17.800  0.00  0.00    +0.003 C 
ENDROOT
BRANCH  10  13
ATOM     13  C   UNL     1      34.129 -20.577 -19.171  0.00  0.00    +0.000 C 
ATOM     14  C   UNL     1      35.433 -20.180 -19.469  0.00  0.00    +0.003 C 
ATOM     15  C   UNL     1      33.075 -20.187 -19.997  0.00  0.00    +0.003 C 
ATOM     16  C   UNL     1      35.682 -19.394 -20.595  0.00  0.00    +0.037 C 
ATOM     17  C   UNL     1      33.325 -19.402 -21.122  0.00  0.00    +0.037 C 
ATOM     18  C   UNL     1      34.628 -19.005 -21.421  0.00  0.00    +0.147 C 
BRANCH  18  19
ATOM     19  O   UNL     1      34.871 -18.237 -22.518  0.00  0.00    -0.404 OA
BRANCH  19  23
ATOM     20  F   UNL     1      32.989 -17.241 -23.353  0.00  0.00    -0.133 F 
ATOM     21  F   UNL     1      34.882 -16.150 -23.379  0.00  0.00    -0.133 F 
ATOM     22  F   UNL     1      33.861 -16.471 -21.473  0.00  0.00    -0.133 F 
ATOM     23  C   UNL     1      34.135 -17.028 -22.672  0.00  0.00    +0.575 C 
ENDBRANCH  19  23
ENDBRANCH  18  19
ENDBRANCH  10  13
BRANCH   3  24
ATOM     24  C   UNL     1      36.838 -24.219 -13.421  0.00  0.00    +0.194 C 
BRANCH  24  27
ATOM     25  N   UNL     1      35.455 -24.830 -11.527  0.00  0.00    -0.217 NA
ATOM     26  N   UNL     1      36.689 -22.760 -11.491  0.00  0.00    -0.195 NA
ATOM     27  C   UNL     1      36.291 -23.916 -12.056  0.00  0.00    +0.028 C 
ATOM     28  C   UNL     1      34.983 -24.526 -10.300  0.00  0.00    +0.164 C 
ATOM     29  C   UNL     1      36.179 -22.520 -10.266  0.00  0.00    +0.107 C 
ATOM     30  C   UNL     1      35.313 -23.375  -9.615  0.00  0.00    +0.022 C 
ENDBRANCH  24  27
ENDBRANCH   3  24
TORSDOF 5
ENDMDL
MODEL 6
REMARK VINA RESULT:     -10.4      6.409     11.374
REMARK  Name = 71183216
REMARK  5 active torsions:
REMARK  status: ('A' for Active; 'I' for Inactive)
REMARK    1  A    between atoms: N_3  and  C_24
REMARK    2  A    between atoms: C_10  and  C_13
REMARK    3  A    between atoms: C_18  and  O_19
REMARK    4  A    between atoms: O_19  and  C_23
REMARK    5  A    between atoms: C_24  and  C_27
REMARK                            x       y       z     vdW  Elec       q    Type
REMARK                         _______ _______ _______ _____ _____    ______ ____
ROOT
ATOM      1  O   UNL     1      32.449 -23.778 -13.944  0.00  0.00    -0.473 OA
ATOM      2  O   UNL     1      35.733 -21.621 -14.141  0.00  0.00    -0.270 OA
ATOM      3  N   UNL     1      35.292 -23.881 -13.758  0.00  0.00    -0.259 N 
ATOM      4  C   UNL     1      34.575 -25.078 -14.190  0.00  0.00    +0.142 C 
ATOM      5  C   UNL     1      33.987 -22.563 -15.362  0.00  0.00    +0.087 C 
ATOM      6  C   UNL     1      33.113 -25.035 -13.759  0.00  0.00    +0.227 C 
ATOM      7  C   UNL     1      35.085 -22.641 -14.367  0.00  0.00    +0.253 C 
ATOM      8  C   UNL     1      32.741 -23.159 -15.127  0.00  0.00    +0.143 C 
ATOM      9  C   UNL     1      34.203 -21.845 -16.543  0.00  0.00    +0.008 C 
ATOM     10  C   UNL     1      33.180 -21.735 -17.484  0.00  0.00    +0.000 C 
ATOM     11  C   UNL     1      31.713 -23.028 -16.061  0.00  0.00    +0.037 C 
ATOM     12  C   UNL     1      31.938 -22.325 -17.244  0.00  0.00    +0.003 C 
ENDROOT
BRANCH  10  13
ATOM     13  C   UNL     1      33.404 -21.001 -18.711  0.00  0.00    +0.000 C 
ATOM     14  C   UNL     1      34.702 -20.820 -19.189  0.00  0.00    +0.003 C 
ATOM     15  C   UNL     1      32.321 -20.473 -19.414  0.00  0.00    +0.003 C 
ATOM     16  C   UNL     1      34.917 -20.111 -20.371  0.00  0.00    +0.037 C 
ATOM     17  C   UNL     1      32.536 -19.764 -20.596  0.00  0.00    +0.037 C 
ATOM     18  C   UNL     1      33.834 -19.583 -21.074  0.00  0.00    +0.147 C 
BRANCH  18  19
ATOM     19  O   UNL     1      34.044 -18.890 -22.227  0.00  0.00    -0.404 OA
BRANCH  19  23
ATOM     20  F   UNL     1      34.525 -16.910 -23.267  0.00  0.00    -0.133 F 
ATOM     21  F   UNL     1      36.050 -17.872 -22.032  0.00  0.00    -0.133 F 
ATOM     22  F   UNL     1      34.325 -16.940 -21.065  0.00  0.00    -0.133 F 
ATOM     23  C   UNL     1      34.722 -17.641 -22.149  0.00  0.00    +0.575 C 
ENDBRANCH  19  23
ENDBRANCH  18  19
ENDBRANCH  10  13
BRANCH   3  24
ATOM     24  C   UNL     1      36.263 -24.032 -12.687  0.00  0.00    +0.194 C 
BRANCH  24  27
ATOM     25  N   UNL     1      37.977 -25.739 -12.532  0.00  0.00    -0.217 NA
ATOM     26  N   UNL     1      38.150 -24.015 -14.208  0.00  0.00    -0.195 NA
ATOM     27  C   UNL     1      37.549 -24.635 -13.175  0.00  0.00    +0.028 C 
ATOM     28  C   UNL     1      39.135 -26.255 -12.996  0.00  0.00    +0.164 C 
ATOM     29  C   UNL     1      39.302 -24.584 -14.620  0.00  0.00    +0.107 C 
ATOM     30  C   UNL     1      39.848 -25.715 -14.047  0.00  0.00    +0.022 C 
ENDBRANCH  24  27
ENDBRANCH   3  24
TORSDOF 5
ENDMDL
MODEL 7
REMARK VINA RESULT:      -9.9      5.447      8.586
REMARK  Name = 71183216
REMARK  5 active torsions:
REMARK  status: ('A' for Active; 'I' for Inactive)
REMARK    1  A    between atoms: N_3  and  C_24
REMARK    2  A    between atoms: C_10  and  C_13
REMARK    3  A    between atoms: C_18  and  O_19
REMARK    4  A    between atoms: O_19  and  C_23
REMARK    5  A    between atoms: C_24  and  C_27
REMARK                            x       y       z     vdW  Elec       q    Type
REMARK                         _______ _______ _______ _____ _____    ______ ____
ROOT
ATOM      1  O   UNL     1      33.844  -6.555 -23.295  0.00  0.00    -0.473 OA
ATOM      2  O   UNL     1      30.940  -8.220 -21.229  0.00  0.00    -0.270 OA
ATOM      3  N   UNL     1      31.037  -6.497 -22.800  0.00  0.00    -0.259 N 
ATOM      4  C   UNL     1      31.527  -6.056 -24.104  0.00  0.00    +0.142 C 
ATOM      5  C   UNL     1      32.438  -8.500 -22.990  0.00  0.00    +0.087 C 
ATOM      6  C   UNL     1      33.000  -5.668 -24.040  0.00  0.00    +0.227 C 
ATOM      7  C   UNL     1      31.403  -7.731 -22.257  0.00  0.00    +0.253 C 
ATOM      8  C   UNL     1      33.585  -7.881 -23.504  0.00  0.00    +0.143 C 
ATOM      9  C   UNL     1      32.270  -9.881 -23.133  0.00  0.00    +0.008 C 
ATOM     10  C   UNL     1      33.241 -10.632 -23.796  0.00  0.00    +0.000 C 
ATOM     11  C   UNL     1      34.564  -8.639 -24.146  0.00  0.00    +0.037 C 
ATOM     12  C   UNL     1      34.385 -10.013 -24.302  0.00  0.00    +0.003 C 
ENDROOT
BRANCH  10  13
ATOM     13  C   UNL     1      33.065 -12.060 -23.954  0.00  0.00    +0.000 C 
ATOM     14  C   UNL     1      33.279 -12.914 -22.873  0.00  0.00    +0.003 C 
ATOM     15  C   UNL     1      32.683 -12.582 -25.190  0.00  0.00    +0.003 C 
ATOM     16  C   UNL     1      33.111 -14.290 -23.027  0.00  0.00    +0.037 C 
ATOM     17  C   UNL     1      32.515 -13.958 -25.345  0.00  0.00    +0.037 C 
ATOM     18  C   UNL     1      32.730 -14.812 -24.263  0.00  0.00    +0.147 C 
BRANCH  18  19
ATOM     19  O   UNL     1      32.567 -16.155 -24.414  0.00  0.00    -0.404 OA
BRANCH  19  23
ATOM     20  F   UNL     1      33.484 -18.250 -24.457  0.00  0.00    -0.133 F 
ATOM     21  F   UNL     1      33.435 -17.138 -22.576  0.00  0.00    -0.133 F 
ATOM     22  F   UNL     1      34.811 -16.509 -24.153  0.00  0.00    -0.133 F 
ATOM     23  C   UNL     1      33.584 -17.018 -23.915  0.00  0.00    +0.575 C 
ENDBRANCH  19  23
ENDBRANCH  18  19
ENDBRANCH  10  13
BRANCH   3  24
ATOM     24  C   UNL     1      30.119  -5.616 -22.097  0.00  0.00    +0.194 C 
BRANCH  24  27
ATOM     25  N   UNL     1      29.304  -4.085 -23.790  0.00  0.00    -0.217 NA
ATOM     26  N   UNL     1      30.832  -3.299 -22.099  0.00  0.00    -0.195 NA
ATOM     27  C   UNL     1      30.082  -4.243 -22.702  0.00  0.00    +0.028 C 
ATOM     28  C   UNL     1      29.295  -2.839 -24.308  0.00  0.00    +0.164 C 
ATOM     29  C   UNL     1      30.776  -2.078 -22.668  0.00  0.00    +0.107 C 
ATOM     30  C   UNL     1      30.018  -1.786 -23.785  0.00  0.00    +0.022 C 
ENDBRANCH  24  27
ENDBRANCH   3  24
TORSDOF 5
ENDMDL
MODEL 8
REMARK VINA RESULT:      -9.9      1.496      2.064
REMARK  Name = 71183216
REMARK  5 active torsions:
REMARK  status: ('A' for Active; 'I' for Inactive)
REMARK    1  A    between atoms: N_3  and  C_24
REMARK    2  A    between atoms: C_10  and  C_13
REMARK    3  A    between atoms: C_18  and  O_19
REMARK    4  A    between atoms: O_19  and  C_23
REMARK    5  A    between atoms: C_24  and  C_27
REMARK                            x       y       z     vdW  Elec       q    Type
REMARK                         _______ _______ _______ _____ _____    ______ ____
ROOT
ATOM      1  O   UNL     1      33.893 -14.341 -24.218  0.00  0.00    -0.473 OA
ATOM      2  O   UNL     1      33.984 -13.587 -20.358  0.00  0.00    -0.270 OA
ATOM      3  N   UNL     1      32.488 -13.085 -22.079  0.00  0.00    -0.259 N 
ATOM      4  C   UNL     1      31.725 -13.583 -23.220  0.00  0.00    +0.142 C 
ATOM      5  C   UNL     1      33.673 -15.230 -21.979  0.00  0.00    +0.087 C 
ATOM      6  C   UNL     1      32.610 -13.745 -24.451  0.00  0.00    +0.227 C 
ATOM      7  C   UNL     1      33.398 -13.895 -21.394  0.00  0.00    +0.253 C 
ATOM      8  C   UNL     1      33.871 -15.401 -23.355  0.00  0.00    +0.143 C 
ATOM      9  C   UNL     1      33.768 -16.330 -21.121  0.00  0.00    +0.008 C 
ATOM     10  C   UNL     1      34.050 -17.593 -21.642  0.00  0.00    +0.000 C 
ATOM     11  C   UNL     1      34.175 -16.661 -23.870  0.00  0.00    +0.037 C 
ATOM     12  C   UNL     1      34.252 -17.759 -23.013  0.00  0.00    +0.003 C 
ENDROOT
BRANCH  10  13
ATOM     13  C   UNL     1      34.139 -18.735 -20.758  0.00  0.00    +0.000 C 
ATOM     14  C   UNL     1      32.992 -19.461 -20.438  0.00  0.00    +0.003 C 
ATOM     15  C   UNL     1      35.372 -19.108 -20.224  0.00  0.00    +0.003 C 
ATOM     16  C   UNL     1      33.078 -20.561 -19.584  0.00  0.00    +0.037 C 
ATOM     17  C   UNL     1      35.459 -20.208 -19.370  0.00  0.00    +0.037 C 
ATOM     18  C   UNL     1      34.312 -20.934 -19.050  0.00  0.00    +0.147 C 
BRANCH  18  19
ATOM     19  O   UNL     1      34.396 -22.007 -18.216  0.00  0.00    -0.404 OA
BRANCH  19  23
ATOM     20  F   UNL     1      32.270 -21.473 -17.562  0.00  0.00    -0.133 F 
ATOM     21  F   UNL     1      33.512 -22.716 -16.263  0.00  0.00    -0.133 F 
ATOM     22  F   UNL     1      32.724 -23.564 -18.117  0.00  0.00    -0.133 F 
ATOM     23  C   UNL     1      33.213 -22.439 -17.553  0.00  0.00    +0.575 C 
ENDBRANCH  19  23
ENDBRANCH  18  19
ENDBRANCH  10  13
BRANCH   3  24
ATOM     24  C   UNL     1      32.241 -11.718 -21.652  0.00  0.00    +0.194 C 
BRANCH  24  27
ATOM     25  N   UNL     1      32.031  -9.556 -22.728  0.00  0.00    -0.217 NA
ATOM     26  N   UNL     1      33.764 -11.080 -23.427  0.00  0.00    -0.195 NA
ATOM     27  C   UNL     1      32.709 -10.718 -22.670  0.00  0.00    +0.028 C 
ATOM     28  C   UNL     1      32.479  -8.682 -23.654  0.00  0.00    +0.164 C 
ATOM     29  C   UNL     1      34.158 -10.159 -24.330  0.00  0.00    +0.107 C 
ATOM     30  C   UNL     1      33.548  -8.931 -24.490  0.00  0.00    +0.022 C 
ENDBRANCH  24  27
ENDBRANCH   3  24
TORSDOF 5
ENDMDL
MODEL 9
REMARK VINA RESULT:      -9.6      7.040     10.990
REMARK  Name = 71183216
REMARK  5 active torsions:
REMARK  status: ('A' for Active; 'I' for Inactive)
REMARK    1  A    between atoms: N_3  and  C_24
REMARK    2  A    between atoms: C_10  and  C_13
REMARK    3  A    between atoms: C_18  and  O_19
REMARK    4  A    between atoms: O_19  and  C_23
REMARK    5  A    between atoms: C_24  and  C_27
REMARK                            x       y       z     vdW  Elec       q    Type
REMARK                         _______ _______ _______ _____ _____    ______ ____
ROOT
ATOM      1  O   UNL     1      32.520 -15.190 -24.096  0.00  0.00    -0.473 OA
ATOM      2  O   UNL     1      32.392 -13.432 -20.580  0.00  0.00    -0.270 OA
ATOM      3  N   UNL     1      33.738 -15.090 -21.521  0.00  0.00    -0.259 N 
ATOM      4  C   UNL     1      34.549 -15.506 -22.663  0.00  0.00    +0.142 C 
ATOM      5  C   UNL     1      32.943 -13.174 -22.828  0.00  0.00    +0.087 C 
ATOM      6  C   UNL     1      33.676 -15.990 -23.816  0.00  0.00    +0.227 C 
ATOM      7  C   UNL     1      32.997 -13.906 -21.539  0.00  0.00    +0.253 C 
ATOM      8  C   UNL     1      32.745 -13.843 -24.043  0.00  0.00    +0.143 C 
ATOM      9  C   UNL     1      33.058 -11.780 -22.812  0.00  0.00    +0.008 C 
ATOM     10  C   UNL     1      32.985 -11.065 -24.007  0.00  0.00    +0.000 C 
ATOM     11  C   UNL     1      32.650 -13.122 -25.233  0.00  0.00    +0.037 C 
ATOM     12  C   UNL     1      32.782 -11.734 -25.215  0.00  0.00    +0.003 C 
ENDROOT
BRANCH  10  13
ATOM     13  C   UNL     1      33.114  -9.624 -23.995  0.00  0.00    +0.000 C 
ATOM     14  C   UNL     1      34.304  -9.033 -23.568  0.00  0.00    +0.003 C 
ATOM     15  C   UNL     1      32.048  -8.825 -24.407  0.00  0.00    +0.003 C 
ATOM     16  C   UNL     1      34.427  -7.644 -23.555  0.00  0.00    +0.037 C 
ATOM     17  C   UNL     1      32.171  -7.436 -24.394  0.00  0.00    +0.037 C 
ATOM     18  C   UNL     1      33.360  -6.845 -23.968  0.00  0.00    +0.147 C 
BRANCH  18  19
ATOM     19  O   UNL     1      33.480  -5.489 -23.953  0.00  0.00    -0.404 OA
BRANCH  19  23
ATOM     20  F   UNL     1      33.619  -5.546 -26.236  0.00  0.00    -0.133 F 
ATOM     21  F   UNL     1      35.297  -4.759 -25.077  0.00  0.00    -0.133 F 
ATOM     22  F   UNL     1      33.457  -3.587 -25.224  0.00  0.00    -0.133 F 
ATOM     23  C   UNL     1      33.948  -4.841 -25.132  0.00  0.00    +0.575 C 
ENDBRANCH  19  23
ENDBRANCH  18  19
ENDBRANCH  10  13
BRANCH   3  24
ATOM     24  C   UNL     1      33.757 -15.940 -20.341  0.00  0.00    +0.194 C 
BRANCH  24  27
ATOM     25  N   UNL     1      35.556 -17.557 -20.189  0.00  0.00    -0.217 NA
ATOM     26  N   UNL     1      33.513 -18.141 -21.327  0.00  0.00    -0.195 NA
ATOM     27  C   UNL     1      34.312 -17.303 -20.638  0.00  0.00    +0.028 C 
ATOM     28  C   UNL     1      36.024 -18.790 -20.474  0.00  0.00    +0.164 C 
ATOM     29  C   UNL     1      34.044 -19.356 -21.577  0.00  0.00    +0.107 C 
ATOM     30  C   UNL     1      35.306 -19.740 -21.171  0.00  0.00    +0.022 C 
ENDBRANCH  24  27
ENDBRANCH   3  24
TORSDOF 5
ENDMDL
