MODEL 1
REMARK VINA RESULT:     -12.2      0.000      0.000
REMARK  Name = 10224714
REMARK  8 active torsions:
REMARK  status: ('A' for Active; 'I' for Inactive)
REMARK    1  A    between atoms: N_1  and  C_12
REMARK    2  A    between atoms: N_2  and  CA_30
REMARK    3  A    between atoms: N_15  and  C_17
REMARK    4  A    between atoms: C_17  and  C_18
REMARK    5  A    between atoms: C_21  and  C_25
REMARK    6  A    between atoms: CA_30  and  C_31
REMARK    7  A    between atoms: CA_30  and  C_33
REMARK    8  A    between atoms: C_33  and  O_34
REMARK                            x       y       z     vdW  Elec       q    Type
REMARK                         _______ _______ _______ _____ _____    ______ ____
ROOT
ATOM      1  N   UNL     1      30.954 -23.586 -14.658  0.00  0.00    -0.262 N 
ATOM      2  N   UNL     1      35.680 -23.757 -14.214  0.00  0.00    -0.258 N 
ATOM      3  N   UNL     1      33.340 -23.773 -14.249  0.00  0.00    -0.311 NA
ATOM      4  N   UNL     1      30.983 -22.531 -16.622  0.00  0.00    -0.240 NA
ATOM      5  N   UNL     1      34.631 -22.778 -16.066  0.00  0.00    -0.311 NA
ATOM      6  C   UNL     1      32.271 -23.401 -14.967  0.00  0.00    +0.220 C 
ATOM      7  C   UNL     1      32.267 -22.745 -16.188  0.00  0.00    +0.167 C 
ATOM      8  C   UNL     1      33.507 -22.432 -16.737  0.00  0.00    +0.215 C 
ATOM      9  C   UNL     1      34.508 -23.425 -14.866  0.00  0.00    +0.202 C 
ATOM     10  C   UNL     1      30.220 -23.047 -15.681  0.00  0.00    +0.222 C 
ATOM     11  H   UNL     1      36.534 -23.517 -14.640  0.00  0.00    +0.160 HD
ATOM     12  N   UNL     1      33.598 -21.766 -17.972  0.00  0.00    -0.302 N 
ATOM     13  H   UNL     1      32.765 -21.526 -18.439  0.00  0.00    +0.150 HD
ENDROOT
BRANCH   1  14
ATOM     14  C   UNL     1      30.425 -24.228 -13.479  0.00  0.00    +0.077 C 
ATOM     15  C   UNL     1      30.168 -23.228 -12.349  0.00  0.00    +0.022 C 
ATOM     16  C   UNL     1      29.179 -25.060 -13.789  0.00  0.00    +0.022 C 
ENDBRANCH   1  14
BRANCH  12  17
ATOM     17  C   UNL     1      34.847 -21.420 -18.582  0.00  0.00    +0.116 C 
BRANCH  17  18
ATOM     18  C   UNL     1      34.671 -20.257 -19.521  0.00  0.00    -0.003 C 
ATOM     19  C   UNL     1      33.418 -19.996 -20.060  0.00  0.00    -0.003 C 
ATOM     20  C   UNL     1      35.763 -19.462 -19.837  0.00  0.00    -0.003 C 
ATOM     21  C   UNL     1      34.346 -18.112 -21.255  0.00  0.00    +0.018 C 
ATOM     22  C   UNL     1      33.255 -18.919 -20.931  0.00  0.00    +0.001 C 
ATOM     23  C   UNL     1      35.600 -18.383 -20.708  0.00  0.00    +0.001 C 
BRANCH  21  25
ATOM     24  N   UNL     1      34.080 -15.789 -21.557  0.00  0.00    -0.244 NA
ATOM     25  C   UNL     1      34.176 -16.995 -22.157  0.00  0.00    +0.081 C 
ATOM     26  C   UNL     1      34.118 -17.191 -23.527  0.00  0.00    +0.019 C 
ATOM     27  C   UNL     1      33.954 -16.072 -24.335  0.00  0.00    +0.003 C 
ATOM     28  C   UNL     1      33.921 -14.725 -22.375  0.00  0.00    +0.099 C 
ATOM     29  C   UNL     1      33.852 -14.812 -23.757  0.00  0.00    +0.021 C 
ENDBRANCH  21  25
ENDBRANCH  17  18
ENDBRANCH  12  17
BRANCH   2  30
ATOM     30  CA  UNL     1      35.719 -24.440 -12.935  0.00  0.00    +0.109 C 
BRANCH  30  31
ATOM     31  C   UNL     1      36.739 -23.761 -12.013  0.00  0.00    +0.023 C 
ATOM     32  C   UNL     1      36.105 -22.721 -11.098  0.00  0.00    +0.002 C 
ENDBRANCH  30  31
BRANCH  30  33
ATOM     33  C   UNL     1      36.089 -25.905 -13.171  0.00  0.00    +0.157 C 
BRANCH  33  34
ATOM     34  O   UNL     1      35.135 -26.496 -14.047  0.00  0.00    -0.380 OA
ATOM     35  H   UNL     1      34.381 -25.896 -14.157  0.00  0.00    +0.211 HD
ENDBRANCH  33  34
ENDBRANCH  30  33
ENDBRANCH   2  30
TORSDOF 8
ENDMDL
MODEL 2
REMARK VINA RESULT:     -10.7      1.588      4.124
REMARK  Name = 10224714
REMARK  8 active torsions:
REMARK  status: ('A' for Active; 'I' for Inactive)
REMARK    1  A    between atoms: N_1  and  C_12
REMARK    2  A    between atoms: N_2  and  CA_30
REMARK    3  A    between atoms: N_15  and  C_17
REMARK    4  A    between atoms: C_17  and  C_18
REMARK    5  A    between atoms: C_21  and  C_25
REMARK    6  A    between atoms: CA_30  and  C_31
REMARK    7  A    between atoms: CA_30  and  C_33
REMARK    8  A    between atoms: C_33  and  O_34
REMARK                            x       y       z     vdW  Elec       q    Type
REMARK                         _______ _______ _______ _____ _____    ______ ____
ROOT
ATOM      1  N   UNL     1      35.424 -23.006 -12.965  0.00  0.00    -0.262 N 
ATOM      2  N   UNL     1      30.905 -23.753 -14.224  0.00  0.00    -0.258 N 
ATOM      3  N   UNL     1      33.076 -23.439 -13.409  0.00  0.00    -0.311 NA
ATOM      4  N   UNL     1      36.093 -22.401 -15.004  0.00  0.00    -0.240 NA
ATOM      5  N   UNL     1      32.530 -23.042 -15.754  0.00  0.00    -0.311 NA
ATOM      6  C   UNL     1      34.318 -23.080 -13.764  0.00  0.00    +0.220 C 
ATOM      7  C   UNL     1      34.755 -22.701 -15.023  0.00  0.00    +0.167 C 
ATOM      8  C   UNL     1      33.806 -22.690 -16.040  0.00  0.00    +0.215 C 
ATOM      9  C   UNL     1      32.217 -23.399 -14.470  0.00  0.00    +0.202 C 
ATOM     10  C   UNL     1      36.464 -22.595 -13.755  0.00  0.00    +0.222 C 
ATOM     11  H   UNL     1      30.267 -23.729 -14.974  0.00  0.00    +0.160 HD
ATOM     12  N   UNL     1      34.160 -22.321 -17.350  0.00  0.00    -0.302 N 
ATOM     13  H   UNL     1      35.095 -22.069 -17.529  0.00  0.00    +0.150 HD
ENDROOT
BRANCH   1  14
ATOM     14  C   UNL     1      35.493 -23.303 -11.555  0.00  0.00    +0.077 C 
ATOM     15  C   UNL     1      35.702 -24.796 -11.294  0.00  0.00    +0.022 C 
ATOM     16  C   UNL     1      36.547 -22.454 -10.841  0.00  0.00    +0.022 C 
ENDBRANCH   1  14
BRANCH  12  17
ATOM     17  C   UNL     1      33.224 -22.292 -18.434  0.00  0.00    +0.116 C 
BRANCH  17  18
ATOM     18  C   UNL     1      33.415 -21.050 -19.262  0.00  0.00    -0.003 C 
ATOM     19  C   UNL     1      32.306 -20.393 -19.777  0.00  0.00    -0.003 C 
ATOM     20  C   UNL     1      34.699 -20.579 -19.501  0.00  0.00    -0.003 C 
ATOM     21  C   UNL     1      33.769 -18.759 -20.791  0.00  0.00    +0.018 C 
ATOM     22  C   UNL     1      32.484 -19.243 -20.545  0.00  0.00    +0.001 C 
ATOM     23  C   UNL     1      34.877 -19.427 -20.269  0.00  0.00    +0.001 C 
BRANCH  21  25
ATOM     24  N   UNL     1      34.041 -16.419 -20.879  0.00  0.00    -0.244 NA
ATOM     25  C   UNL     1      33.952 -17.566 -21.587  0.00  0.00    +0.081 C 
ATOM     26  C   UNL     1      34.024 -17.637 -22.968  0.00  0.00    +0.019 C 
ATOM     27  C   UNL     1      34.201 -16.451 -23.670  0.00  0.00    +0.003 C 
ATOM     28  C   UNL     1      34.213 -15.286 -21.596  0.00  0.00    +0.099 C 
ATOM     29  C   UNL     1      34.298 -15.248 -22.979  0.00  0.00    +0.021 C 
ENDBRANCH  21  25
ENDBRANCH  17  18
ENDBRANCH  12  17
BRANCH   2  30
ATOM     30  CA  UNL     1      30.415 -24.157 -12.919  0.00  0.00    +0.109 C 
BRANCH  30  31
ATOM     31  C   UNL     1      29.214 -25.096 -13.081  0.00  0.00    +0.023 C 
ATOM     32  C   UNL     1      28.252 -24.638 -14.170  0.00  0.00    +0.002 C 
ENDBRANCH  30  31
BRANCH  30  33
ATOM     33  C   UNL     1      30.027 -22.906 -12.131  0.00  0.00    +0.157 C 
BRANCH  33  34
ATOM     34  O   UNL     1      31.187 -22.358 -11.514  0.00  0.00    -0.380 OA
ATOM     35  H   UNL     1      31.941 -22.433 -12.119  0.00  0.00    +0.211 HD
ENDBRANCH  33  34
ENDBRANCH  30  33
ENDBRANCH   2  30
TORSDOF 8
ENDMDL
MODEL 3
REMARK VINA RESULT:      -9.7      8.546     15.602
REMARK  Name = 10224714
REMARK  8 active torsions:
REMARK  status: ('A' for Active; 'I' for Inactive)
REMARK    1  A    between atoms: N_1  and  C_12
REMARK    2  A    between atoms: N_2  and  CA_30
REMARK    3  A    between atoms: N_15  and  C_17
REMARK    4  A    between atoms: C_17  and  C_18
REMARK    5  A    between atoms: C_21  and  C_25
REMARK    6  A    between atoms: CA_30  and  C_31
REMARK    7  A    between atoms: CA_30  and  C_33
REMARK    8  A    between atoms: C_33  and  O_34
REMARK                            x       y       z     vdW  Elec       q    Type
REMARK                         _______ _______ _______ _____ _____    ______ ____
ROOT
ATOM      1  N   UNL     1      31.436  -6.660 -20.539  0.00  0.00    -0.262 N 
ATOM      2  N   UNL     1      32.874  -6.199 -25.043  0.00  0.00    -0.258 N 
ATOM      3  N   UNL     1      32.155  -6.217 -22.816  0.00  0.00    -0.311 NA
ATOM      4  N   UNL     1      31.538  -8.888 -20.533  0.00  0.00    -0.240 NA
ATOM      5  N   UNL     1      32.639  -8.289 -24.012  0.00  0.00    -0.311 NA
ATOM      6  C   UNL     1      31.857  -7.023 -21.787  0.00  0.00    +0.220 C 
ATOM      7  C   UNL     1      31.914  -8.407 -21.762  0.00  0.00    +0.167 C 
ATOM      8  C   UNL     1      32.323  -9.041 -22.931  0.00  0.00    +0.215 C 
ATOM      9  C   UNL     1      32.544  -6.927 -23.916  0.00  0.00    +0.202 C 
ATOM     10  C   UNL     1      31.258  -7.814 -19.823  0.00  0.00    +0.222 C 
ATOM     11  H   UNL     1      33.160  -6.689 -25.848  0.00  0.00    +0.160 HD
ATOM     12  N   UNL     1      32.408 -10.443 -22.996  0.00  0.00    -0.302 N 
ATOM     13  H   UNL     1      32.173 -10.965 -22.195  0.00  0.00    +0.150 HD
ENDROOT
BRANCH   1  14
ATOM     14  C   UNL     1      31.217  -5.318 -20.057  0.00  0.00    +0.077 C 
ATOM     15  C   UNL     1      29.820  -4.803 -20.410  0.00  0.00    +0.022 C 
ATOM     16  C   UNL     1      31.501  -5.194 -18.559  0.00  0.00    +0.022 C 
ENDBRANCH   1  14
BRANCH  12  17
ATOM     17  C   UNL     1      32.823 -11.147 -24.174  0.00  0.00    +0.116 C 
BRANCH  17  18
ATOM     18  C   UNL     1      33.056 -12.600 -23.864  0.00  0.00    -0.003 C 
ATOM     19  C   UNL     1      32.779 -13.560 -24.828  0.00  0.00    -0.003 C 
ATOM     20  C   UNL     1      33.546 -12.963 -22.616  0.00  0.00    -0.003 C 
ATOM     21  C   UNL     1      33.487 -15.283 -23.290  0.00  0.00    +0.018 C 
ATOM     22  C   UNL     1      32.995 -14.907 -24.540  0.00  0.00    +0.001 C 
ATOM     23  C   UNL     1      33.762 -14.312 -22.328  0.00  0.00    +0.001 C 
BRANCH  21  25
ATOM     24  N   UNL     1      34.281 -16.921 -21.792  0.00  0.00    -0.244 NA
ATOM     25  C   UNL     1      33.711 -16.681 -22.992  0.00  0.00    +0.081 C 
ATOM     26  C   UNL     1      33.356 -17.665 -23.898  0.00  0.00    +0.019 C 
ATOM     27  C   UNL     1      33.600 -18.988 -23.547  0.00  0.00    +0.003 C 
ATOM     28  C   UNL     1      34.503 -18.219 -21.485  0.00  0.00    +0.099 C 
ATOM     29  C   UNL     1      34.185 -19.279 -22.319  0.00  0.00    +0.021 C 
ENDBRANCH  21  25
ENDBRANCH  17  18
ENDBRANCH  12  17
BRANCH   2  30
ATOM     30  CA  UNL     1      32.823  -4.750 -25.104  0.00  0.00    +0.109 C 
BRANCH  30  31
ATOM     31  C   UNL     1      31.607  -4.306 -25.926  0.00  0.00    +0.023 C 
ATOM     32  C   UNL     1      31.170  -5.352 -26.943  0.00  0.00    +0.002 C 
ENDBRANCH  30  31
BRANCH  30  33
ATOM     33  C   UNL     1      34.120  -4.239 -25.731  0.00  0.00    +0.157 C 
BRANCH  33  34
ATOM     34  O   UNL     1      34.696  -5.267 -26.529  0.00  0.00    -0.380 OA
ATOM     35  H   UNL     1      34.779  -6.077 -26.002  0.00  0.00    +0.211 HD
ENDBRANCH  33  34
ENDBRANCH  30  33
ENDBRANCH   2  30
TORSDOF 8
ENDMDL
MODEL 4
REMARK VINA RESULT:      -9.7      8.200     15.508
REMARK  Name = 10224714
REMARK  8 active torsions:
REMARK  status: ('A' for Active; 'I' for Inactive)
REMARK    1  A    between atoms: N_1  and  C_12
REMARK    2  A    between atoms: N_2  and  CA_30
REMARK    3  A    between atoms: N_15  and  C_17
REMARK    4  A    between atoms: C_17  and  C_18
REMARK    5  A    between atoms: C_21  and  C_25
REMARK    6  A    between atoms: CA_30  and  C_31
REMARK    7  A    between atoms: CA_30  and  C_33
REMARK    8  A    between atoms: C_33  and  O_34
REMARK                            x       y       z     vdW  Elec       q    Type
REMARK                         _______ _______ _______ _____ _____    ______ ____
ROOT
ATOM      1  N   UNL     1      31.354  -6.737 -20.639  0.00  0.00    -0.262 N 
ATOM      2  N   UNL     1      32.540  -6.549 -25.235  0.00  0.00    -0.258 N 
ATOM      3  N   UNL     1      31.933  -6.433 -22.978  0.00  0.00    -0.311 NA
ATOM      4  N   UNL     1      31.597  -8.947 -20.469  0.00  0.00    -0.240 NA
ATOM      5  N   UNL     1      32.487  -8.561 -24.037  0.00  0.00    -0.311 NA
ATOM      6  C   UNL     1      31.737  -7.172 -21.876  0.00  0.00    +0.220 C 
ATOM      7  C   UNL     1      31.881  -8.544 -21.749  0.00  0.00    +0.167 C 
ATOM      8  C   UNL     1      32.271  -9.243 -22.887  0.00  0.00    +0.215 C 
ATOM      9  C   UNL     1      32.312  -7.204 -24.041  0.00  0.00    +0.202 C 
ATOM     10  C   UNL     1      31.284  -7.839 -19.829  0.00  0.00    +0.222 C 
ATOM     11  H   UNL     1      32.817  -7.084 -26.014  0.00  0.00    +0.160 HD
ATOM     12  N   UNL     1      32.441 -10.638 -22.850  0.00  0.00    -0.302 N 
ATOM     13  H   UNL     1      32.278 -11.109 -22.000  0.00  0.00    +0.150 HD
ENDROOT
BRANCH   1  14
ATOM     14  C   UNL     1      31.076  -5.376 -20.249  0.00  0.00    +0.077 C 
ATOM     15  C   UNL     1      29.645  -4.962 -20.598  0.00  0.00    +0.022 C 
ATOM     16  C   UNL     1      31.391  -5.127 -18.773  0.00  0.00    +0.022 C 
ENDBRANCH   1  14
BRANCH  12  17
ATOM     17  C   UNL     1      32.841 -11.407 -23.991  0.00  0.00    +0.116 C 
BRANCH  17  18
ATOM     18  C   UNL     1      33.123 -12.831 -23.594  0.00  0.00    -0.003 C 
ATOM     19  C   UNL     1      33.532 -13.113 -22.298  0.00  0.00    -0.003 C 
ATOM     20  C   UNL     1      32.971 -13.845 -24.530  0.00  0.00    -0.003 C 
ATOM     21  C   UNL     1      33.643 -15.459 -22.863  0.00  0.00    +0.018 C 
ATOM     22  C   UNL     1      33.794 -14.432 -21.931  0.00  0.00    +0.001 C 
ATOM     23  C   UNL     1      33.232 -15.165 -24.163  0.00  0.00    +0.001 C 
BRANCH  21  25
ATOM     24  N   UNL     1      34.431 -16.980 -21.243  0.00  0.00    -0.244 NA
ATOM     25  C   UNL     1      33.914 -16.828 -22.481  0.00  0.00    +0.081 C 
ATOM     26  C   UNL     1      33.650 -17.873 -23.351  0.00  0.00    +0.019 C 
ATOM     27  C   UNL     1      33.935 -19.163 -22.918  0.00  0.00    +0.003 C 
ATOM     28  C   UNL     1      34.695 -18.249 -20.858  0.00  0.00    +0.099 C 
ATOM     29  C   UNL     1      34.467 -19.364 -21.650  0.00  0.00    +0.021 C 
ENDBRANCH  21  25
ENDBRANCH  17  18
ENDBRANCH  12  17
BRANCH   2  30
ATOM     30  CA  UNL     1      32.396  -5.115 -25.403  0.00  0.00    +0.109 C 
BRANCH  30  31
ATOM     31  C   UNL     1      31.179  -4.815 -26.286  0.00  0.00    +0.023 C 
ATOM     32  C   UNL     1      30.890  -5.925 -27.289  0.00  0.00    +0.002 C 
ENDBRANCH  30  31
BRANCH  30  33
ATOM     33  C   UNL     1      33.675  -4.563 -26.032  0.00  0.00    +0.157 C 
BRANCH  33  34
ATOM     34  O   UNL     1      34.779  -4.838 -25.176  0.00  0.00    -0.380 OA
ATOM     35  H   UNL     1      34.563  -4.564 -24.271  0.00  0.00    +0.211 HD
ENDBRANCH  33  34
ENDBRANCH  30  33
ENDBRANCH   2  30
TORSDOF 8
ENDMDL
MODEL 5
REMARK VINA RESULT:      -9.5      7.050     14.375
REMARK  Name = 10224714
REMARK  8 active torsions:
REMARK  status: ('A' for Active; 'I' for Inactive)
REMARK    1  A    between atoms: N_1  and  C_12
REMARK    2  A    between atoms: N_2  and  CA_30
REMARK    3  A    between atoms: N_15  and  C_17
REMARK    4  A    between atoms: C_17  and  C_18
REMARK    5  A    between atoms: C_21  and  C_25
REMARK    6  A    between atoms: CA_30  and  C_31
REMARK    7  A    between atoms: CA_30  and  C_33
REMARK    8  A    between atoms: C_33  and  O_34
REMARK                            x       y       z     vdW  Elec       q    Type
REMARK                         _______ _______ _______ _____ _____    ______ ____
ROOT
ATOM      1  N   UNL     1      30.806  -8.213 -20.765  0.00  0.00    -0.262 N 
ATOM      2  N   UNL     1      33.521  -8.256 -24.662  0.00  0.00    -0.258 N 
ATOM      3  N   UNL     1      32.167  -8.027 -22.767  0.00  0.00    -0.311 NA
ATOM      4  N   UNL     1      30.936 -10.411 -20.416  0.00  0.00    -0.240 NA
ATOM      5  N   UNL     1      33.020 -10.205 -23.464  0.00  0.00    -0.311 NA
ATOM      6  C   UNL     1      31.587  -8.709 -21.769  0.00  0.00    +0.220 C 
ATOM      7  C   UNL     1      31.655 -10.073 -21.534  0.00  0.00    +0.167 C 
ATOM      8  C   UNL     1      32.406 -10.828 -22.430  0.00  0.00    +0.215 C 
ATOM      9  C   UNL     1      32.880  -8.850 -23.593  0.00  0.00    +0.202 C 
ATOM     10  C   UNL     1      30.439  -9.272 -19.979  0.00  0.00    +0.222 C 
ATOM     11  H   UNL     1      34.043  -8.829 -25.270  0.00  0.00    +0.160 HD
ATOM     12  N   UNL     1      32.529 -12.219 -22.270  0.00  0.00    -0.302 N 
ATOM     13  H   UNL     1      32.072 -12.647 -21.509  0.00  0.00    +0.150 HD
ENDROOT
BRANCH   1  14
ATOM     14  C   UNL     1      30.432  -6.834 -20.562  0.00  0.00    +0.077 C 
ATOM     15  C   UNL     1      31.561  -6.022 -19.925  0.00  0.00    +0.022 C 
ATOM     16  C   UNL     1      29.926  -6.181 -21.850  0.00  0.00    +0.022 C 
ENDBRANCH   1  14
BRANCH  12  17
ATOM     17  C   UNL     1      33.288 -13.045 -23.162  0.00  0.00    +0.116 C 
BRANCH  17  18
ATOM     18  C   UNL     1      33.618 -14.360 -22.510  0.00  0.00    -0.003 C 
ATOM     19  C   UNL     1      33.952 -15.451 -23.300  0.00  0.00    -0.003 C 
ATOM     20  C   UNL     1      33.584 -14.465 -21.126  0.00  0.00    -0.003 C 
ATOM     21  C   UNL     1      34.226 -16.787 -21.306  0.00  0.00    +0.018 C 
ATOM     22  C   UNL     1      34.257 -16.671 -22.695  0.00  0.00    +0.001 C 
ATOM     23  C   UNL     1      33.890 -15.685 -20.521  0.00  0.00    +0.001 C 
BRANCH  21  25
ATOM     24  N   UNL     1      35.823 -18.175 -20.265  0.00  0.00    -0.244 NA
ATOM     25  C   UNL     1      34.543 -18.052 -20.679  0.00  0.00    +0.081 C 
ATOM     26  C   UNL     1      33.579 -19.036 -20.537  0.00  0.00    +0.019 C 
ATOM     27  C   UNL     1      33.953 -20.226 -19.926  0.00  0.00    +0.003 C 
ATOM     28  C   UNL     1      36.150 -19.347 -19.675  0.00  0.00    +0.099 C 
ATOM     29  C   UNL     1      35.261 -20.394 -19.484  0.00  0.00    +0.021 C 
ENDBRANCH  21  25
ENDBRANCH  17  18
ENDBRANCH  12  17
BRANCH   2  30
ATOM     30  CA  UNL     1      33.468  -6.832 -24.939  0.00  0.00    +0.109 C 
BRANCH  30  31
ATOM     31  C   UNL     1      34.123  -6.540 -26.294  0.00  0.00    +0.023 C 
ATOM     32  C   UNL     1      34.572  -5.091 -26.430  0.00  0.00    +0.002 C 
ENDBRANCH  30  31
BRANCH  30  33
ATOM     33  C   UNL     1      34.185  -6.086 -23.814  0.00  0.00    +0.157 C 
BRANCH  33  34
ATOM     34  O   UNL     1      33.229  -5.381 -23.030  0.00  0.00    -0.380 OA
ATOM     35  H   UNL     1      33.568  -5.271 -22.128  0.00  0.00    +0.211 HD
ENDBRANCH  33  34
ENDBRANCH  30  33
ENDBRANCH   2  30
TORSDOF 8
ENDMDL
