MODEL 1
REMARK VINA RESULT:     -12.0      0.000      0.000
REMARK  Name = 3822
REMARK  5 active torsions:
REMARK  status: ('A' for Active; 'I' for Inactive)
REMARK    1  A    between atoms: N_1  and  C_17
REMARK    2  A    between atoms: C_2  and  C_9
REMARK    3  A    between atoms: C_9  and  C_11
REMARK    4  A    between atoms: C_17  and  C_18
REMARK    5  A    between atoms: C_18  and  N_21
REMARK                            x       y       z     vdW  Elec       q    Type
REMARK                         _______ _______ _______ _____ _____    ______ ____
ROOT
ATOM      1  N   UNL     1      35.073 -19.959 -19.937  0.00  0.00    +0.388 N 
ATOM      2  C   UNL     1      34.803 -17.914 -22.027  0.00  0.00    +0.058 C 
ATOM      3  C   UNL     1      36.151 -18.279 -21.405  0.00  0.00    -0.015 C 
ATOM      4  C   UNL     1      33.772 -19.022 -21.820  0.00  0.00    -0.015 C 
ATOM      5  C   UNL     1      36.021 -18.838 -19.986  0.00  0.00    -0.077 C 
ATOM      6  C   UNL     1      33.739 -19.536 -20.378  0.00  0.00    -0.077 C 
ATOM      7  H   UNL     1      35.404 -20.683 -20.575  0.00  0.00    -0.080 HD
ENDROOT
BRANCH   2   9
ATOM      8  O   UNL     1      34.269 -16.403 -20.270  0.00  0.00    -0.291 OA
ATOM      9  C   UNL     1      34.287 -16.614 -21.480  0.00  0.00    +0.172 C 
BRANCH   9  11
ATOM     10  F   UNL     1      32.436 -12.720 -25.027  0.00  0.00    -0.204 F 
ATOM     11  C   UNL     1      33.793 -15.575 -22.427  0.00  0.00    +0.035 C 
ATOM     12  C   UNL     1      33.448 -15.955 -23.705  0.00  0.00    +0.005 C 
ATOM     13  C   UNL     1      33.699 -14.273 -21.988  0.00  0.00    +0.005 C 
ATOM     14  C   UNL     1      32.985 -14.982 -24.591  0.00  0.00    +0.030 C 
ATOM     15  C   UNL     1      33.237 -13.300 -22.874  0.00  0.00    +0.030 C 
ATOM     16  C   UNL     1      32.880 -13.654 -24.176  0.00  0.00    +0.140 C 
ENDBRANCH   9  11
ENDBRANCH   2   9
BRANCH   1  17
ATOM     17  C   UNL     1      35.011 -20.517 -18.585  0.00  0.00    -0.052 C 
BRANCH  17  18
ATOM     18  C   UNL     1      34.510 -21.953 -18.629  0.00  0.00    +0.091 C 
BRANCH  18  21
ATOM     19  O   UNL     1      35.037 -22.770 -16.033  0.00  0.00    -0.267 OA
ATOM     20  O   UNL     1      31.779 -21.580 -19.167  0.00  0.00    -0.246 OA
ATOM     21  N   UNL     1      33.470 -22.171 -17.661  0.00  0.00    -0.251 N 
ATOM     22  N   UNL     1      31.164 -22.183 -17.060  0.00  0.00    -0.306 N 
ATOM     23  C   UNL     1      33.868 -22.591 -16.367  0.00  0.00    +0.265 A 
ATOM     24  C   UNL     1      32.116 -21.953 -18.040  0.00  0.00    +0.330 A 
ATOM     25  C   UNL     1      32.791 -22.813 -15.383  0.00  0.00    +0.072 A 
ATOM     26  C   UNL     1      31.469 -22.602 -15.762  0.00  0.00    +0.065 A 
ATOM     27  C   UNL     1      33.088 -23.232 -14.083  0.00  0.00    +0.006 C 
ATOM     28  C   UNL     1      30.434 -22.808 -14.845  0.00  0.00    +0.017 C 
ATOM     29  C   UNL     1      32.055 -23.438 -13.167  0.00  0.00    +0.000 C 
ATOM     30  C   UNL     1      30.730 -23.226 -13.548  0.00  0.00    +0.001 C 
ATOM     31  H   UNL     1      30.218 -22.042 -17.292  0.00  0.00    +0.170 HD
ENDBRANCH  18  21
ENDBRANCH  17  18
ENDBRANCH   1  17
TORSDOF 5
ENDMDL
MODEL 2
REMARK VINA RESULT:     -12.0      0.686      2.023
REMARK  Name = 3822
REMARK  5 active torsions:
REMARK  status: ('A' for Active; 'I' for Inactive)
REMARK    1  A    between atoms: N_1  and  C_17
REMARK    2  A    between atoms: C_2  and  C_9
REMARK    3  A    between atoms: C_9  and  C_11
REMARK    4  A    between atoms: C_17  and  C_18
REMARK    5  A    between atoms: C_18  and  N_21
REMARK                            x       y       z     vdW  Elec       q    Type
REMARK                         _______ _______ _______ _____ _____    ______ ____
ROOT
ATOM      1  N   UNL     1      35.102 -19.981 -19.941  0.00  0.00    +0.388 N 
ATOM      2  C   UNL     1      34.760 -17.947 -22.032  0.00  0.00    +0.058 C 
ATOM      3  C   UNL     1      36.129 -18.317 -21.462  0.00  0.00    -0.015 C 
ATOM      4  C   UNL     1      33.732 -19.048 -21.778  0.00  0.00    -0.015 C 
ATOM      5  C   UNL     1      36.054 -18.866 -20.035  0.00  0.00    -0.077 C 
ATOM      6  C   UNL     1      33.753 -19.553 -20.332  0.00  0.00    -0.077 C 
ATOM      7  H   UNL     1      35.403 -20.711 -20.587  0.00  0.00    -0.080 HD
ENDROOT
BRANCH   2   9
ATOM      8  O   UNL     1      34.284 -16.431 -20.263  0.00  0.00    -0.291 OA
ATOM      9  C   UNL     1      34.273 -16.642 -21.473  0.00  0.00    +0.172 C 
BRANCH   9  11
ATOM     10  F   UNL     1      32.402 -12.722 -24.982  0.00  0.00    -0.204 F 
ATOM     11  C   UNL     1      33.773 -15.595 -22.409  0.00  0.00    +0.035 C 
ATOM     12  C   UNL     1      33.612 -14.311 -21.941  0.00  0.00    +0.005 C 
ATOM     13  C   UNL     1      33.493 -15.952 -23.710  0.00  0.00    +0.005 C 
ATOM     14  C   UNL     1      33.144 -13.331 -22.818  0.00  0.00    +0.030 C 
ATOM     15  C   UNL     1      33.026 -14.973 -24.587  0.00  0.00    +0.030 C 
ATOM     16  C   UNL     1      32.851 -13.663 -24.141  0.00  0.00    +0.140 C 
ENDBRANCH   9  11
ENDBRANCH   2   9
BRANCH   1  17
ATOM     17  C   UNL     1      35.090 -20.530 -18.585  0.00  0.00    -0.052 C 
BRANCH  17  18
ATOM     18  C   UNL     1      34.476 -21.922 -18.584  0.00  0.00    +0.091 C 
BRANCH  18  21
ATOM     19  O   UNL     1      31.716 -22.072 -18.375  0.00  0.00    -0.267 OA
ATOM     20  O   UNL     1      35.822 -22.372 -16.160  0.00  0.00    -0.246 OA
ATOM     21  N   UNL     1      33.809 -22.196 -17.340  0.00  0.00    -0.251 N 
ATOM     22  N   UNL     1      33.883 -22.666 -15.005  0.00  0.00    -0.306 N 
ATOM     23  C   UNL     1      32.393 -22.245 -17.363  0.00  0.00    +0.265 A 
ATOM     24  C   UNL     1      34.589 -22.408 -16.170  0.00  0.00    +0.330 A 
ATOM     25  C   UNL     1      31.720 -22.525 -16.080  0.00  0.00    +0.072 A 
ATOM     26  C   UNL     1      32.489 -22.727 -14.938  0.00  0.00    +0.065 A 
ATOM     27  C   UNL     1      30.325 -22.588 -16.005  0.00  0.00    +0.006 C 
ATOM     28  C   UNL     1      31.870 -22.993 -13.713  0.00  0.00    +0.017 C 
ATOM     29  C   UNL     1      29.707 -22.853 -14.781  0.00  0.00    +0.000 C 
ATOM     30  C   UNL     1      30.479 -23.056 -13.638  0.00  0.00    +0.001 C 
ATOM     31  H   UNL     1      34.395 -22.816 -14.178  0.00  0.00    +0.170 HD
ENDBRANCH  18  21
ENDBRANCH  17  18
ENDBRANCH   1  17
TORSDOF 5
ENDMDL
MODEL 3
REMARK VINA RESULT:     -11.2      6.143      9.984
REMARK  Name = 3822
REMARK  5 active torsions:
REMARK  status: ('A' for Active; 'I' for Inactive)
REMARK    1  A    between atoms: N_1  and  C_17
REMARK    2  A    between atoms: C_2  and  C_9
REMARK    3  A    between atoms: C_9  and  C_11
REMARK    4  A    between atoms: C_17  and  C_18
REMARK    5  A    between atoms: C_18  and  N_21
REMARK                            x       y       z     vdW  Elec       q    Type
REMARK                         _______ _______ _______ _____ _____    ______ ____
ROOT
ATOM      1  N   UNL     1      33.267 -10.373 -24.085  0.00  0.00    +0.388 N 
ATOM      2  C   UNL     1      32.826  -7.489 -23.746  0.00  0.00    +0.058 C 
ATOM      3  C   UNL     1      33.917  -8.051 -24.657  0.00  0.00    -0.015 C 
ATOM      4  C   UNL     1      31.741  -8.527 -23.465  0.00  0.00    -0.015 C 
ATOM      5  C   UNL     1      34.394  -9.442 -24.230  0.00  0.00    -0.077 C 
ATOM      6  C   UNL     1      32.317  -9.892 -23.076  0.00  0.00    -0.077 C 
ATOM      7  H   UNL     1      32.780 -10.424 -24.981  0.00  0.00    -0.080 HD
ENDROOT
BRANCH   2   9
ATOM      8  O   UNL     1      34.619  -6.899 -22.300  0.00  0.00    -0.291 OA
ATOM      9  C   UNL     1      33.404  -6.979 -22.457  0.00  0.00    +0.172 C 
BRANCH   9  11
ATOM     10  F   UNL     1      29.944  -5.437 -18.355  0.00  0.00    -0.204 F 
ATOM     11  C   UNL     1      32.480  -6.568 -21.362  0.00  0.00    +0.035 C 
ATOM     12  C   UNL     1      32.434  -7.328 -20.215  0.00  0.00    +0.005 C 
ATOM     13  C   UNL     1      31.707  -5.441 -21.538  0.00  0.00    +0.005 C 
ATOM     14  C   UNL     1      31.570  -6.943 -19.190  0.00  0.00    +0.030 C 
ATOM     15  C   UNL     1      30.843  -5.056 -20.514  0.00  0.00    +0.030 C 
ATOM     16  C   UNL     1      30.773  -5.806 -19.340  0.00  0.00    +0.140 C 
ENDBRANCH   9  11
ENDBRANCH   2   9
BRANCH   1  17
ATOM     17  C   UNL     1      33.750 -11.710 -23.737  0.00  0.00    -0.052 C 
BRANCH  17  18
ATOM     18  C   UNL     1      32.580 -12.666 -23.566  0.00  0.00    +0.091 C 
BRANCH  18  21
ATOM     19  O   UNL     1      33.363 -13.728 -21.128  0.00  0.00    -0.267 OA
ATOM     20  O   UNL     1      32.739 -14.487 -25.699  0.00  0.00    -0.246 OA
ATOM     21  N   UNL     1      33.032 -14.023 -23.424  0.00  0.00    -0.251 N 
ATOM     22  N   UNL     1      33.522 -16.157 -24.365  0.00  0.00    -0.306 N 
ATOM     23  C   UNL     1      33.407 -14.446 -22.125  0.00  0.00    +0.265 A 
ATOM     24  C   UNL     1      33.075 -14.861 -24.572  0.00  0.00    +0.330 A 
ATOM     25  C   UNL     1      33.872 -15.841 -21.992  0.00  0.00    +0.072 A 
ATOM     26  C   UNL     1      33.915 -16.654 -23.121  0.00  0.00    +0.065 A 
ATOM     27  C   UNL     1      34.267 -16.346 -20.750  0.00  0.00    +0.006 C 
ATOM     28  C   UNL     1      34.353 -17.977 -23.016  0.00  0.00    +0.017 C 
ATOM     29  C   UNL     1      34.705 -17.668 -20.645  0.00  0.00    +0.000 C 
ATOM     30  C   UNL     1      34.747 -18.482 -21.777  0.00  0.00    +0.001 C 
ATOM     31  H   UNL     1      33.564 -16.761 -25.141  0.00  0.00    +0.170 HD
ENDBRANCH  18  21
ENDBRANCH  17  18
ENDBRANCH   1  17
TORSDOF 5
ENDMDL
MODEL 4
REMARK VINA RESULT:     -10.9      4.769     10.818
REMARK  Name = 3822
REMARK  5 active torsions:
REMARK  status: ('A' for Active; 'I' for Inactive)
REMARK    1  A    between atoms: N_1  and  C_17
REMARK    2  A    between atoms: C_2  and  C_9
REMARK    3  A    between atoms: C_9  and  C_11
REMARK    4  A    between atoms: C_17  and  C_18
REMARK    5  A    between atoms: C_18  and  N_21
REMARK                            x       y       z     vdW  Elec       q    Type
REMARK                         _______ _______ _______ _____ _____    ______ ____
ROOT
ATOM      1  N   UNL     1      33.725 -14.879 -21.495  0.00  0.00    +0.388 N 
ATOM      2  C   UNL     1      34.700 -17.585 -22.087  0.00  0.00    +0.058 C 
ATOM      3  C   UNL     1      34.376 -16.571 -23.184  0.00  0.00    -0.015 C 
ATOM      4  C   UNL     1      34.938 -16.900 -20.743  0.00  0.00    -0.015 C 
ATOM      5  C   UNL     1      33.336 -15.535 -22.750  0.00  0.00    -0.077 C 
ATOM      6  C   UNL     1      33.864 -15.860 -20.412  0.00  0.00    -0.077 C 
ATOM      7  H   UNL     1      34.632 -14.434 -21.637  0.00  0.00    -0.080 HD
ENDROOT
BRANCH   2   9
ATOM      8  O   UNL     1      32.737 -18.713 -22.814  0.00  0.00    -0.291 OA
ATOM      9  C   UNL     1      33.614 -18.615 -21.961  0.00  0.00    +0.172 C 
BRANCH   9  11
ATOM     10  F   UNL     1      33.611 -22.022 -17.537  0.00  0.00    -0.204 F 
ATOM     11  C   UNL     1      33.613 -19.524 -20.780  0.00  0.00    +0.035 C 
ATOM     12  C   UNL     1      32.407 -19.868 -20.211  0.00  0.00    +0.005 C 
ATOM     13  C   UNL     1      34.819 -19.987 -20.302  0.00  0.00    +0.005 C 
ATOM     14  C   UNL     1      32.406 -20.720 -19.106  0.00  0.00    +0.030 C 
ATOM     15  C   UNL     1      34.818 -20.838 -19.196  0.00  0.00    +0.030 C 
ATOM     16  C   UNL     1      33.612 -21.205 -18.598  0.00  0.00    +0.140 C 
ENDBRANCH   9  11
ENDBRANCH   2   9
BRANCH   1  17
ATOM     17  C   UNL     1      32.750 -13.851 -21.131  0.00  0.00    -0.052 C 
BRANCH  17  18
ATOM     18  C   UNL     1      32.157 -13.219 -22.381  0.00  0.00    +0.091 C 
BRANCH  18  21
ATOM     19  O   UNL     1      33.715 -11.634 -24.038  0.00  0.00    -0.267 OA
ATOM     20  O   UNL     1      30.601 -11.762 -20.553  0.00  0.00    -0.246 OA
ATOM     21  N   UNL     1      32.164 -11.785 -22.294  0.00  0.00    -0.251 N 
ATOM     22  N   UNL     1      31.393  -9.762 -21.299  0.00  0.00    -0.306 N 
ATOM     23  C   UNL     1      33.006 -11.087 -23.196  0.00  0.00    +0.265 A 
ATOM     24  C   UNL     1      31.337 -11.146 -21.330  0.00  0.00    +0.330 A 
ATOM     25  C   UNL     1      33.006  -9.614 -23.096  0.00  0.00    +0.072 A 
ATOM     26  C   UNL     1      32.197  -8.997 -22.147  0.00  0.00    +0.065 A 
ATOM     27  C   UNL     1      33.808  -8.842 -23.941  0.00  0.00    +0.006 C 
ATOM     28  C   UNL     1      32.184  -7.604 -22.036  0.00  0.00    +0.017 C 
ATOM     29  C   UNL     1      33.795  -7.451 -23.830  0.00  0.00    +0.000 C 
ATOM     30  C   UNL     1      32.984  -6.833 -22.879  0.00  0.00    +0.001 C 
ATOM     31  H   UNL     1      30.832  -9.291 -20.641  0.00  0.00    +0.170 HD
ENDBRANCH  18  21
ENDBRANCH  17  18
ENDBRANCH   1  17
TORSDOF 5
ENDMDL
MODEL 5
REMARK VINA RESULT:     -10.7      4.786     10.512
REMARK  Name = 3822
REMARK  5 active torsions:
REMARK  status: ('A' for Active; 'I' for Inactive)
REMARK    1  A    between atoms: N_1  and  C_17
REMARK    2  A    between atoms: C_2  and  C_9
REMARK    3  A    between atoms: C_9  and  C_11
REMARK    4  A    between atoms: C_17  and  C_18
REMARK    5  A    between atoms: C_18  and  N_21
REMARK                            x       y       z     vdW  Elec       q    Type
REMARK                         _______ _______ _______ _____ _____    ______ ____
ROOT
ATOM      1  N   UNL     1      33.826 -14.932 -21.349  0.00  0.00    +0.388 N 
ATOM      2  C   UNL     1      34.696 -17.625 -22.132  0.00  0.00    +0.058 C 
ATOM      3  C   UNL     1      34.346 -16.546 -23.156  0.00  0.00    -0.015 C 
ATOM      4  C   UNL     1      35.019 -17.019 -20.767  0.00  0.00    -0.015 C 
ATOM      5  C   UNL     1      33.357 -15.509 -22.616  0.00  0.00    -0.077 C 
ATOM      6  C   UNL     1      33.991 -15.973 -20.328  0.00  0.00    -0.077 C 
ATOM      7  H   UNL     1      34.737 -14.502 -21.514  0.00  0.00    -0.080 HD
ENDROOT
BRANCH   2   9
ATOM      8  O   UNL     1      32.716 -18.721 -22.863  0.00  0.00    -0.291 OA
ATOM      9  C   UNL     1      33.591 -18.633 -22.005  0.00  0.00    +0.172 C 
BRANCH   9  11
ATOM     10  F   UNL     1      33.496 -22.008 -17.557  0.00  0.00    -0.204 F 
ATOM     11  C   UNL     1      33.565 -19.533 -20.817  0.00  0.00    +0.035 C 
ATOM     12  C   UNL     1      32.350 -19.855 -20.256  0.00  0.00    +0.005 C 
ATOM     13  C   UNL     1      34.760 -20.012 -20.326  0.00  0.00    +0.005 C 
ATOM     14  C   UNL     1      32.326 -20.698 -19.145  0.00  0.00    +0.030 C 
ATOM     15  C   UNL     1      34.736 -20.855 -19.214  0.00  0.00    +0.030 C 
ATOM     16  C   UNL     1      33.520 -21.198 -18.624  0.00  0.00    +0.140 C 
ENDBRANCH   9  11
ENDBRANCH   2   9
BRANCH   1  17
ATOM     17  C   UNL     1      32.898 -13.901 -20.883  0.00  0.00    -0.052 C 
BRANCH  17  18
ATOM     18  C   UNL     1      32.028 -13.415 -22.032  0.00  0.00    +0.091 C 
BRANCH  18  21
ATOM     19  O   UNL     1      30.632 -11.688 -20.371  0.00  0.00    -0.267 OA
ATOM     20  O   UNL     1      33.586 -12.110 -23.971  0.00  0.00    -0.246 OA
ATOM     21  N   UNL     1      32.098 -11.985 -22.169  0.00  0.00    -0.251 N 
ATOM     22  N   UNL     1      32.940 -10.045 -23.266  0.00  0.00    -0.306 N 
ATOM     23  C   UNL     1      31.335 -11.211 -21.260  0.00  0.00    +0.265 A 
ATOM     24  C   UNL     1      32.919 -11.428 -23.188  0.00  0.00    +0.330 A 
ATOM     25  C   UNL     1      31.414  -9.745 -21.412  0.00  0.00    +0.072 A 
ATOM     26  C   UNL     1      32.216  -9.207 -22.414  0.00  0.00    +0.065 A 
ATOM     27  C   UNL     1      30.693  -8.900 -20.563  0.00  0.00    +0.006 C 
ATOM     28  C   UNL     1      32.303  -7.821 -22.575  0.00  0.00    +0.017 C 
ATOM     29  C   UNL     1      30.780  -7.516 -20.724  0.00  0.00    +0.000 C 
ATOM     30  C   UNL     1      31.584  -6.978 -21.728  0.00  0.00    +0.001 C 
ATOM     31  H   UNL     1      33.498  -9.629 -23.962  0.00  0.00    +0.170 HD
ENDBRANCH  18  21
ENDBRANCH  17  18
ENDBRANCH   1  17
TORSDOF 5
ENDMDL
MODEL 6
REMARK VINA RESULT:     -10.7      6.305     10.153
REMARK  Name = 3822
REMARK  5 active torsions:
REMARK  status: ('A' for Active; 'I' for Inactive)
REMARK    1  A    between atoms: N_1  and  C_17
REMARK    2  A    between atoms: C_2  and  C_9
REMARK    3  A    between atoms: C_9  and  C_11
REMARK    4  A    between atoms: C_17  and  C_18
REMARK    5  A    between atoms: C_18  and  N_21
REMARK                            x       y       z     vdW  Elec       q    Type
REMARK                         _______ _______ _______ _____ _____    ______ ____
ROOT
ATOM      1  N   UNL     1      33.240 -10.247 -24.228  0.00  0.00    +0.388 N 
ATOM      2  C   UNL     1      32.733  -7.392 -23.764  0.00  0.00    +0.058 C 
ATOM      3  C   UNL     1      33.805  -7.889 -24.734  0.00  0.00    -0.015 C 
ATOM      4  C   UNL     1      31.687  -8.470 -23.485  0.00  0.00    -0.015 C 
ATOM      5  C   UNL     1      34.335  -9.280 -24.376  0.00  0.00    -0.077 C 
ATOM      6  C   UNL     1      32.313  -9.831 -23.168  0.00  0.00    -0.077 C 
ATOM      7  H   UNL     1      32.723 -10.279 -25.107  0.00  0.00    -0.080 HD
ENDROOT
BRANCH   2   9
ATOM      8  O   UNL     1      34.560  -6.795 -22.363  0.00  0.00    -0.291 OA
ATOM      9  C   UNL     1      33.343  -6.914 -22.478  0.00  0.00    +0.172 C 
BRANCH   9  11
ATOM     10  F   UNL     1      29.994  -5.668 -18.187  0.00  0.00    -0.204 F 
ATOM     11  C   UNL     1      32.448  -6.582 -21.333  0.00  0.00    +0.035 C 
ATOM     12  C   UNL     1      32.428  -7.423 -20.243  0.00  0.00    +0.005 C 
ATOM     13  C   UNL     1      31.676  -5.443 -21.406  0.00  0.00    +0.005 C 
ATOM     14  C   UNL     1      31.592  -7.112 -19.171  0.00  0.00    +0.030 C 
ATOM     15  C   UNL     1      30.839  -5.132 -20.334  0.00  0.00    +0.030 C 
ATOM     16  C   UNL     1      30.797  -5.966 -19.217  0.00  0.00    +0.140 C 
ENDBRANCH   9  11
ENDBRANCH   2   9
BRANCH   1  17
ATOM     17  C   UNL     1      33.771 -11.582 -23.947  0.00  0.00    -0.052 C 
BRANCH  17  18
ATOM     18  C   UNL     1      32.635 -12.585 -23.811  0.00  0.00    +0.091 C 
BRANCH  18  21
ATOM     19  O   UNL     1      32.991 -14.983 -25.157  0.00  0.00    -0.267 OA
ATOM     20  O   UNL     1      33.230 -12.724 -21.070  0.00  0.00    -0.246 OA
ATOM     21  N   UNL     1      33.075 -13.783 -23.151  0.00  0.00    -0.251 N 
ATOM     22  N   UNL     1      33.768 -14.933 -21.182  0.00  0.00    -0.306 N 
ATOM     23  C   UNL     1      33.217 -14.946 -23.949  0.00  0.00    +0.265 A 
ATOM     24  C   UNL     1      33.349 -13.743 -21.756  0.00  0.00    +0.330 A 
ATOM     25  C   UNL     1      33.668 -16.171 -23.259  0.00  0.00    +0.072 A 
ATOM     26  C   UNL     1      33.929 -16.125 -21.893  0.00  0.00    +0.065 A 
ATOM     27  C   UNL     1      33.832 -17.367 -23.964  0.00  0.00    +0.006 C 
ATOM     28  C   UNL     1      34.356 -17.274 -21.222  0.00  0.00    +0.017 C 
ATOM     29  C   UNL     1      34.258 -18.515 -23.293  0.00  0.00    +0.000 C 
ATOM     30  C   UNL     1      34.520 -18.468 -21.924  0.00  0.00    +0.001 C 
ATOM     31  H   UNL     1      33.964 -14.938 -20.218  0.00  0.00    +0.170 HD
ENDBRANCH  18  21
ENDBRANCH  17  18
ENDBRANCH   1  17
TORSDOF 5
ENDMDL
MODEL 7
REMARK VINA RESULT:     -10.6      7.162     11.236
REMARK  Name = 3822
REMARK  5 active torsions:
REMARK  status: ('A' for Active; 'I' for Inactive)
REMARK    1  A    between atoms: N_1  and  C_17
REMARK    2  A    between atoms: C_2  and  C_9
REMARK    3  A    between atoms: C_9  and  C_11
REMARK    4  A    between atoms: C_17  and  C_18
REMARK    5  A    between atoms: C_18  and  N_21
REMARK                            x       y       z     vdW  Elec       q    Type
REMARK                         _______ _______ _______ _____ _____    ______ ____
ROOT
ATOM      1  N   UNL     1      33.800  -9.112 -24.419  0.00  0.00    +0.388 N 
ATOM      2  C   UNL     1      32.810  -6.487 -23.551  0.00  0.00    +0.058 C 
ATOM      3  C   UNL     1      34.272  -6.905 -23.396  0.00  0.00    -0.015 C 
ATOM      4  C   UNL     1      32.095  -7.329 -24.606  0.00  0.00    -0.015 C 
ATOM      5  C   UNL     1      34.451  -8.422 -23.298  0.00  0.00    -0.077 C 
ATOM      6  C   UNL     1      32.360  -8.828 -24.443  0.00  0.00    -0.077 C 
ATOM      7  H   UNL     1      34.206  -8.761 -25.287  0.00  0.00    -0.080 HD
ENDROOT
BRANCH   2   9
ATOM      8  O   UNL     1      32.220  -7.534 -21.499  0.00  0.00    -0.291 OA
ATOM      9  C   UNL     1      32.080  -6.566 -22.241  0.00  0.00    +0.172 C 
BRANCH   9  11
ATOM     10  F   UNL     1      28.701  -2.373 -20.764  0.00  0.00    -0.204 F 
ATOM     11  C   UNL     1      31.178  -5.447 -21.847  0.00  0.00    +0.035 C 
ATOM     12  C   UNL     1      30.288  -5.647 -20.815  0.00  0.00    +0.005 C 
ATOM     13  C   UNL     1      31.269  -4.253 -22.528  0.00  0.00    +0.005 C 
ATOM     14  C   UNL     1      29.444  -4.599 -20.446  0.00  0.00    +0.030 C 
ATOM     15  C   UNL     1      30.424  -3.206 -22.159  0.00  0.00    +0.030 C 
ATOM     16  C   UNL     1      29.512  -3.379 -21.119  0.00  0.00    +0.140 C 
ENDBRANCH   9  11
ENDBRANCH   2   9
BRANCH   1  17
ATOM     17  C   UNL     1      34.036 -10.554 -24.339  0.00  0.00    -0.052 C 
BRANCH  17  18
ATOM     18  C   UNL     1      32.807 -11.260 -23.786  0.00  0.00    +0.091 C 
BRANCH  18  21
ATOM     19  O   UNL     1      33.779 -12.875 -21.753  0.00  0.00    -0.267 OA
ATOM     20  O   UNL     1      32.062 -12.672 -26.096  0.00  0.00    -0.246 OA
ATOM     21  N   UNL     1      32.922 -12.687 -23.920  0.00  0.00    -0.251 N 
ATOM     22  N   UNL     1      32.654 -14.679 -25.200  0.00  0.00    -0.306 N 
ATOM     23  C   UNL     1      33.436 -13.401 -22.809  0.00  0.00    +0.265 A 
ATOM     24  C   UNL     1      32.516 -13.301 -25.137  0.00  0.00    +0.330 A 
ATOM     25  C   UNL     1      33.551 -14.865 -22.961  0.00  0.00    +0.072 A 
ATOM     26  C   UNL     1      33.155 -15.459 -24.155  0.00  0.00    +0.065 A 
ATOM     27  C   UNL     1      34.051 -15.652 -21.919  0.00  0.00    +0.006 C 
ATOM     28  C   UNL     1      33.257 -16.844 -24.318  0.00  0.00    +0.017 C 
ATOM     29  C   UNL     1      34.153 -17.035 -22.082  0.00  0.00    +0.000 C 
ATOM     30  C   UNL     1      33.756 -17.629 -23.280  0.00  0.00    +0.001 C 
ATOM     31  H   UNL     1      32.382 -15.133 -26.030  0.00  0.00    +0.170 HD
ENDBRANCH  18  21
ENDBRANCH  17  18
ENDBRANCH   1  17
TORSDOF 5
ENDMDL
MODEL 8
REMARK VINA RESULT:     -10.6      4.470      9.697
REMARK  Name = 3822
REMARK  5 active torsions:
REMARK  status: ('A' for Active; 'I' for Inactive)
REMARK    1  A    between atoms: N_1  and  C_17
REMARK    2  A    between atoms: C_2  and  C_9
REMARK    3  A    between atoms: C_9  and  C_11
REMARK    4  A    between atoms: C_17  and  C_18
REMARK    5  A    between atoms: C_18  and  N_21
REMARK                            x       y       z     vdW  Elec       q    Type
REMARK                         _______ _______ _______ _____ _____    ______ ____
ROOT
ATOM      1  N   UNL     1      34.567 -15.858 -22.449  0.00  0.00    +0.388 N 
ATOM      2  C   UNL     1      34.896 -18.574 -21.380  0.00  0.00    +0.058 C 
ATOM      3  C   UNL     1      35.077 -18.247 -22.862  0.00  0.00    -0.015 C 
ATOM      4  C   UNL     1      35.029 -17.324 -20.511  0.00  0.00    -0.015 C 
ATOM      5  C   UNL     1      34.280 -17.017 -23.305  0.00  0.00    -0.077 C 
ATOM      6  C   UNL     1      34.222 -16.141 -21.051  0.00  0.00    -0.077 C 
ATOM      7  H   UNL     1      35.569 -15.668 -22.496  0.00  0.00    -0.080 HD
ENDROOT
BRANCH   2   9
ATOM      8  O   UNL     1      32.614 -19.038 -21.866  0.00  0.00    -0.291 OA
ATOM      9  C   UNL     1      33.576 -19.243 -21.129  0.00  0.00    +0.172 C 
BRANCH   9  11
ATOM     10  F   UNL     1      33.073 -22.701 -16.773  0.00  0.00    -0.204 F 
ATOM     11  C   UNL     1      33.442 -20.166 -19.967  0.00  0.00    +0.035 C 
ATOM     12  C   UNL     1      34.581 -20.719 -19.426  0.00  0.00    +0.005 C 
ATOM     13  C   UNL     1      32.182 -20.431 -19.475  0.00  0.00    +0.005 C 
ATOM     14  C   UNL     1      34.455 -21.583 -18.338  0.00  0.00    +0.030 C 
ATOM     15  C   UNL     1      32.057 -21.295 -18.387  0.00  0.00    +0.030 C 
ATOM     16  C   UNL     1      33.193 -21.871 -17.818  0.00  0.00    +0.140 C 
ENDBRANCH   9  11
ENDBRANCH   2   9
BRANCH   1  17
ATOM     17  C   UNL     1      33.844 -14.679 -22.926  0.00  0.00    -0.052 C 
BRANCH  17  18
ATOM     18  C   UNL     1      32.539 -14.515 -22.161  0.00  0.00    +0.091 C 
BRANCH  18  21
ATOM     19  O   UNL     1      31.420 -13.611 -19.791  0.00  0.00    -0.267 OA
ATOM     20  O   UNL     1      33.051 -12.475 -24.023  0.00  0.00    -0.246 OA
ATOM     21  N   UNL     1      32.244 -13.128 -21.925  0.00  0.00    -0.251 N 
ATOM     22  N   UNL     1      32.234 -10.857 -22.646  0.00  0.00    -0.306 N 
ATOM     23  C   UNL     1      31.671 -12.793 -20.673  0.00  0.00    +0.265 A 
ATOM     24  C   UNL     1      32.544 -12.175 -22.938  0.00  0.00    +0.330 A 
ATOM     25  C   UNL     1      31.372 -11.366 -20.444  0.00  0.00    +0.072 A 
ATOM     26  C   UNL     1      31.664 -10.440 -21.441  0.00  0.00    +0.065 A 
ATOM     27  C   UNL     1      30.801 -10.942 -19.240  0.00  0.00    +0.006 C 
ATOM     28  C   UNL     1      31.387  -9.084 -21.243  0.00  0.00    +0.017 C 
ATOM     29  C   UNL     1      30.525  -9.587 -19.042  0.00  0.00    +0.000 C 
ATOM     30  C   UNL     1      30.818  -8.661 -20.042  0.00  0.00    +0.001 C 
ATOM     31  H   UNL     1      32.428 -10.174 -23.328  0.00  0.00    +0.170 HD
ENDBRANCH  18  21
ENDBRANCH  17  18
ENDBRANCH   1  17
TORSDOF 5
ENDMDL
MODEL 9
REMARK VINA RESULT:     -10.5      4.012      9.064
REMARK  Name = 3822
REMARK  5 active torsions:
REMARK  status: ('A' for Active; 'I' for Inactive)
REMARK    1  A    between atoms: N_1  and  C_17
REMARK    2  A    between atoms: C_2  and  C_9
REMARK    3  A    between atoms: C_9  and  C_11
REMARK    4  A    between atoms: C_17  and  C_18
REMARK    5  A    between atoms: C_18  and  N_21
REMARK                            x       y       z     vdW  Elec       q    Type
REMARK                         _______ _______ _______ _____ _____    ______ ____
ROOT
ATOM      1  N   UNL     1      32.522 -22.834 -13.635  0.00  0.00    +0.388 N 
ATOM      2  C   UNL     1      29.912 -23.930 -12.850  0.00  0.00    +0.058 C 
ATOM      3  C   UNL     1      31.225 -24.664 -12.580  0.00  0.00    -0.015 C 
ATOM      4  C   UNL     1      30.143 -22.438 -13.086  0.00  0.00    -0.015 C 
ATOM      5  C   UNL     1      32.333 -24.289 -13.569  0.00  0.00    -0.077 C 
ATOM      6  C   UNL     1      31.288 -22.165 -14.064  0.00  0.00    -0.077 C 
ATOM      7  H   UNL     1      32.754 -22.502 -12.699  0.00  0.00    -0.080 HD
ENDROOT
BRANCH   2   9
ATOM      8  O   UNL     1      29.370 -25.703 -14.340  0.00  0.00    -0.291 OA
ATOM      9  C   UNL     1      29.182 -24.533 -14.015  0.00  0.00    +0.172 C 
BRANCH   9  11
ATOM     10  F   UNL     1      25.569 -21.380 -16.876  0.00  0.00    -0.204 F 
ATOM     11  C   UNL     1      28.218 -23.692 -14.779  0.00  0.00    +0.035 C 
ATOM     12  C   UNL     1      27.760 -24.148 -15.995  0.00  0.00    +0.005 C 
ATOM     13  C   UNL     1      27.819 -22.488 -14.240  0.00  0.00    +0.005 C 
ATOM     14  C   UNL     1      26.857 -23.360 -16.710  0.00  0.00    +0.030 C 
ATOM     15  C   UNL     1      26.917 -21.701 -14.954  0.00  0.00    +0.030 C 
ATOM     16  C   UNL     1      26.436 -22.136 -16.189  0.00  0.00    +0.140 C 
ENDBRANCH   9  11
ENDBRANCH   2   9
BRANCH   1  17
ATOM     17  C   UNL     1      33.624 -22.502 -14.538  0.00  0.00    -0.052 C 
BRANCH  17  18
ATOM     18  C   UNL     1      33.500 -23.288 -15.835  0.00  0.00    +0.091 C 
BRANCH  18  21
ATOM     19  O   UNL     1      35.699 -22.051 -16.983  0.00  0.00    -0.267 OA
ATOM     20  O   UNL     1      31.067 -22.676 -17.100  0.00  0.00    -0.246 OA
ATOM     21  N   UNL     1      33.389 -22.409 -16.967  0.00  0.00    -0.251 N 
ATOM     22  N   UNL     1      32.070 -21.310 -18.619  0.00  0.00    -0.306 N 
ATOM     23  C   UNL     1      34.588 -21.836 -17.461  0.00  0.00    +0.265 A 
ATOM     24  C   UNL     1      32.106 -22.167 -17.531  0.00  0.00    +0.330 A 
ATOM     25  C   UNL     1      34.460 -20.935 -18.623  0.00  0.00    +0.072 A 
ATOM     26  C   UNL     1      33.201 -20.699 -19.166  0.00  0.00    +0.065 A 
ATOM     27  C   UNL     1      35.588 -20.321 -19.175  0.00  0.00    +0.006 C 
ATOM     28  C   UNL     1      33.059 -19.848 -20.266  0.00  0.00    +0.017 C 
ATOM     29  C   UNL     1      35.446 -19.470 -20.274  0.00  0.00    +0.000 C 
ATOM     30  C   UNL     1      34.184 -19.235 -20.818  0.00  0.00    +0.001 C 
ATOM     31  H   UNL     1      31.195 -21.121 -19.031  0.00  0.00    +0.170 HD
ENDBRANCH  18  21
ENDBRANCH  17  18
ENDBRANCH   1  17
TORSDOF 5
ENDMDL
