MODEL 1
REMARK VINA RESULT:     -11.9      0.000      0.000
REMARK  Name = 11507920
REMARK  4 active torsions:
REMARK  status: ('A' for Active; 'I' for Inactive)
REMARK    1  A    between atoms: C_1  and  C_8
REMARK    2  A    between atoms: C_2  and  C_17
REMARK    3  A    between atoms: C_17  and  N_18
REMARK    4  A    between atoms: N_18  and  C_21
REMARK                            x       y       z     vdW  Elec       q    Type
REMARK                         _______ _______ _______ _____ _____    ______ ____
ROOT
ATOM      1  C   UNL     1      33.940 -18.780 -21.469  0.00  0.00    -0.000 C 
ATOM      2  C   UNL     1      33.963 -16.515 -22.308  0.00  0.00    -0.003 C 
ATOM      3  C   UNL     1      33.957 -17.406 -21.234  0.00  0.00    -0.003 C 
ATOM      4  C   UNL     1      33.928 -19.265 -22.776  0.00  0.00    -0.000 C 
ATOM      5  C   UNL     1      33.951 -17.000 -23.616  0.00  0.00    -0.003 C 
ATOM      6  C   UNL     1      33.933 -18.375 -23.850  0.00  0.00    -0.000 C 
ENDROOT
BRANCH   1   8
ATOM      7  N   UNL     1      31.725 -21.677 -18.098  0.00  0.00    -0.312 N 
ATOM      8  C   UNL     1      33.933 -19.704 -20.354  0.00  0.00    +0.001 C 
ATOM      9  C   UNL     1      32.750 -21.063 -18.780  0.00  0.00    +0.048 C 
ATOM     10  C   UNL     1      33.945 -21.490 -18.197  0.00  0.00    +0.015 C 
ATOM     11  C   UNL     1      32.713 -20.172 -19.858  0.00  0.00    +0.015 C 
ATOM     12  C   UNL     1      35.141 -20.113 -19.792  0.00  0.00    +0.000 C 
ATOM     13  C   UNL     1      35.164 -21.005 -18.714  0.00  0.00    +0.001 C 
ATOM     14  C   UNL     1      33.600 -22.381 -17.143  0.00  0.00    +0.017 C 
ATOM     15  C   UNL     1      32.228 -22.475 -17.107  0.00  0.00    +0.062 C 
ATOM     16  H   UNL     1      30.767 -21.559 -18.294  0.00  0.00    +0.152 HD
ENDBRANCH   1   8
BRANCH   2  17
ATOM     17  C   UNL     1      33.981 -15.045 -22.058  0.00  0.00    +0.114 C 
BRANCH  17  18
ATOM     18  N   UNL     1      32.822 -14.384 -22.601  0.00  0.00    -0.327 N 
ATOM     19  H   UNL     1      31.933 -14.707 -22.326  0.00  0.00    +0.147 HD
BRANCH  18  21
ATOM     20  N   UNL     1      32.522 -12.402 -25.715  0.00  0.00    -0.228 NA
ATOM     21  C   UNL     1      32.885 -13.319 -23.489  0.00  0.00    +0.077 C 
ATOM     22  C   UNL     1      32.477 -13.415 -24.821  0.00  0.00    +0.139 C 
ATOM     23  C   UNL     1      33.371 -12.073 -23.072  0.00  0.00    +0.019 C 
ATOM     24  C   UNL     1      33.433 -11.007 -23.963  0.00  0.00    +0.022 C 
ATOM     25  C   UNL     1      33.000 -11.221 -25.261  0.00  0.00    +0.100 C 
ATOM     26  N   UNL     1      31.983 -14.666 -25.267  0.00  0.00    -0.342 N 
ATOM     27  H   UNL     1      31.685 -14.773 -26.200  0.00  0.00    +0.144 HD
ATOM     28  H   UNL     1      31.935 -15.427 -24.645  0.00  0.00    +0.144 HD
ENDBRANCH  18  21
ENDBRANCH  17  18
ENDBRANCH   2  17
TORSDOF 4
ENDMDL
MODEL 2
REMARK VINA RESULT:     -11.7      2.182      9.691
REMARK  Name = 11507920
REMARK  4 active torsions:
REMARK  status: ('A' for Active; 'I' for Inactive)
REMARK    1  A    between atoms: C_1  and  C_8
REMARK    2  A    between atoms: C_2  and  C_17
REMARK    3  A    between atoms: C_17  and  N_18
REMARK    4  A    between atoms: N_18  and  C_21
REMARK                            x       y       z     vdW  Elec       q    Type
REMARK                         _______ _______ _______ _____ _____    ______ ____
ROOT
ATOM      1  C   UNL     1      34.267 -19.832 -20.037  0.00  0.00    -0.000 C 
ATOM      2  C   UNL     1      33.287 -21.350 -18.434  0.00  0.00    -0.003 C 
ATOM      3  C   UNL     1      33.141 -20.433 -19.476  0.00  0.00    -0.003 C 
ATOM      4  C   UNL     1      35.539 -20.145 -19.558  0.00  0.00    -0.000 C 
ATOM      5  C   UNL     1      34.558 -21.663 -17.953  0.00  0.00    -0.003 C 
ATOM      6  C   UNL     1      35.684 -21.061 -18.515  0.00  0.00    -0.000 C 
ENDROOT
BRANCH   1   8
ATOM      7  N   UNL     1      34.180 -15.255 -21.963  0.00  0.00    -0.312 N 
ATOM      8  C   UNL     1      34.116 -18.880 -21.118  0.00  0.00    +0.001 C 
ATOM      9  C   UNL     1      34.100 -16.629 -21.925  0.00  0.00    +0.048 C 
ATOM     10  C   UNL     1      33.819 -17.059 -23.224  0.00  0.00    +0.015 C 
ATOM     11  C   UNL     1      34.254 -17.515 -20.853  0.00  0.00    +0.015 C 
ATOM     12  C   UNL     1      33.835 -19.339 -22.403  0.00  0.00    +0.000 C 
ATOM     13  C   UNL     1      33.683 -18.441 -23.466  0.00  0.00    +0.001 C 
ATOM     14  C   UNL     1      33.734 -15.896 -24.039  0.00  0.00    +0.017 C 
ATOM     15  C   UNL     1      33.960 -14.804 -23.235  0.00  0.00    +0.062 C 
ATOM     16  H   UNL     1      34.369 -14.680 -21.186  0.00  0.00    +0.152 HD
ENDBRANCH   1   8
BRANCH   2  17
ATOM     17  C   UNL     1      32.083 -21.993 -17.832  0.00  0.00    +0.114 C 
BRANCH  17  18
ATOM     18  N   UNL     1      32.390 -22.690 -16.609  0.00  0.00    -0.327 N 
ATOM     19  H   UNL     1      33.268 -23.129 -16.532  0.00  0.00    +0.147 HD
BRANCH  18  21
ATOM     20  N   UNL     1      31.137 -22.960 -13.134  0.00  0.00    -0.228 NA
ATOM     21  C   UNL     1      31.518 -22.779 -15.532  0.00  0.00    +0.077 C 
ATOM     22  C   UNL     1      31.953 -22.873 -14.208  0.00  0.00    +0.139 C 
ATOM     23  C   UNL     1      30.133 -22.776 -15.736  0.00  0.00    +0.019 C 
ATOM     24  C   UNL     1      29.262 -22.865 -14.656  0.00  0.00    +0.022 C 
ATOM     25  C   UNL     1      29.809 -22.954 -13.386  0.00  0.00    +0.100 C 
ATOM     26  N   UNL     1      33.352 -22.880 -13.976  0.00  0.00    -0.342 N 
ATOM     27  H   UNL     1      33.697 -22.944 -13.056  0.00  0.00    +0.144 HD
ATOM     28  H   UNL     1      33.978 -22.818 -14.733  0.00  0.00    +0.144 HD
ENDBRANCH  18  21
ENDBRANCH  17  18
ENDBRANCH   2  17
TORSDOF 4
ENDMDL
MODEL 3
REMARK VINA RESULT:     -11.6      1.641      2.178
REMARK  Name = 11507920
REMARK  4 active torsions:
REMARK  status: ('A' for Active; 'I' for Inactive)
REMARK    1  A    between atoms: C_1  and  C_8
REMARK    2  A    between atoms: C_2  and  C_17
REMARK    3  A    between atoms: C_17  and  N_18
REMARK    4  A    between atoms: N_18  and  C_21
REMARK                            x       y       z     vdW  Elec       q    Type
REMARK                         _______ _______ _______ _____ _____    ______ ____
ROOT
ATOM      1  C   UNL     1      33.832 -18.698 -21.460  0.00  0.00    -0.000 C 
ATOM      2  C   UNL     1      34.040 -16.426 -22.251  0.00  0.00    -0.003 C 
ATOM      3  C   UNL     1      34.067 -17.348 -21.204  0.00  0.00    -0.003 C 
ATOM      4  C   UNL     1      33.569 -19.128 -22.759  0.00  0.00    -0.000 C 
ATOM      5  C   UNL     1      33.776 -16.855 -23.552  0.00  0.00    -0.003 C 
ATOM      6  C   UNL     1      33.540 -18.206 -23.806  0.00  0.00    -0.000 C 
ENDROOT
BRANCH   1   8
ATOM      7  N   UNL     1      31.723 -21.682 -18.096  0.00  0.00    -0.312 N 
ATOM      8  C   UNL     1      33.860 -19.655 -20.373  0.00  0.00    +0.001 C 
ATOM      9  C   UNL     1      32.727 -21.054 -18.798  0.00  0.00    +0.048 C 
ATOM     10  C   UNL     1      33.940 -21.505 -18.272  0.00  0.00    +0.015 C 
ATOM     11  C   UNL     1      32.656 -20.130 -19.846  0.00  0.00    +0.015 C 
ATOM     12  C   UNL     1      35.085 -20.087 -19.868  0.00  0.00    +0.000 C 
ATOM     13  C   UNL     1      35.141 -21.011 -18.818  0.00  0.00    +0.001 C 
ATOM     14  C   UNL     1      33.627 -22.425 -17.233  0.00  0.00    +0.017 C 
ATOM     15  C   UNL     1      32.257 -22.512 -17.148  0.00  0.00    +0.062 C 
ATOM     16  H   UNL     1      30.759 -21.553 -18.253  0.00  0.00    +0.152 HD
ENDBRANCH   1   8
BRANCH   2  17
ATOM     17  C   UNL     1      34.291 -14.981 -21.980  0.00  0.00    +0.114 C 
BRANCH  17  18
ATOM     18  N   UNL     1      33.263 -14.135 -22.529  0.00  0.00    -0.327 N 
ATOM     19  H   UNL     1      33.084 -14.189 -23.495  0.00  0.00    +0.147 HD
BRANCH  18  21
ATOM     20  N   UNL     1      31.562 -11.026 -21.448  0.00  0.00    -0.228 NA
ATOM     21  C   UNL     1      32.509 -13.246 -21.773  0.00  0.00    +0.077 C 
ATOM     22  C   UNL     1      32.290 -11.921 -22.155  0.00  0.00    +0.139 C 
ATOM     23  C   UNL     1      31.922 -13.656 -20.570  0.00  0.00    +0.019 C 
ATOM     24  C   UNL     1      31.167 -12.765 -19.815  0.00  0.00    +0.022 C 
ATOM     25  C   UNL     1      31.018 -11.473 -20.294  0.00  0.00    +0.100 C 
ATOM     26  N   UNL     1      32.875 -11.482 -23.369  0.00  0.00    -0.342 N 
ATOM     27  H   UNL     1      32.743 -10.554 -23.671  0.00  0.00    +0.144 HD
ATOM     28  H   UNL     1      33.412 -12.104 -23.911  0.00  0.00    +0.144 HD
ENDBRANCH  18  21
ENDBRANCH  17  18
ENDBRANCH   2  17
TORSDOF 4
ENDMDL
MODEL 4
REMARK VINA RESULT:     -11.3      1.602      2.692
REMARK  Name = 11507920
REMARK  4 active torsions:
REMARK  status: ('A' for Active; 'I' for Inactive)
REMARK    1  A    between atoms: C_1  and  C_8
REMARK    2  A    between atoms: C_2  and  C_17
REMARK    3  A    between atoms: C_17  and  N_18
REMARK    4  A    between atoms: N_18  and  C_21
REMARK                            x       y       z     vdW  Elec       q    Type
REMARK                         _______ _______ _______ _____ _____    ______ ____
ROOT
ATOM      1  C   UNL     1      34.450 -19.734 -20.144  0.00  0.00    -0.000 C 
ATOM      2  C   UNL     1      34.432 -18.440 -22.183  0.00  0.00    -0.003 C 
ATOM      3  C   UNL     1      33.765 -19.236 -21.251  0.00  0.00    -0.003 C 
ATOM      4  C   UNL     1      35.801 -19.440 -19.967  0.00  0.00    -0.000 C 
ATOM      5  C   UNL     1      35.784 -18.146 -22.008  0.00  0.00    -0.003 C 
ATOM      6  C   UNL     1      36.469 -18.646 -20.899  0.00  0.00    -0.000 C 
ENDROOT
BRANCH   1   8
ATOM      7  N   UNL     1      34.233 -22.755 -16.208  0.00  0.00    -0.312 N 
ATOM      8  C   UNL     1      33.757 -20.560 -19.176  0.00  0.00    +0.001 C 
ATOM      9  C   UNL     1      33.783 -22.006 -17.271  0.00  0.00    +0.048 C 
ATOM     10  C   UNL     1      32.395 -22.152 -17.319  0.00  0.00    +0.015 C 
ATOM     11  C   UNL     1      34.491 -21.218 -18.185  0.00  0.00    +0.015 C 
ATOM     12  C   UNL     1      32.371 -20.688 -19.249  0.00  0.00    +0.000 C 
ATOM     13  C   UNL     1      31.676 -21.480 -18.328  0.00  0.00    +0.001 C 
ATOM     14  C   UNL     1      32.029 -23.014 -16.247  0.00  0.00    +0.017 C 
ATOM     15  C   UNL     1      33.181 -23.368 -15.583  0.00  0.00    +0.062 C 
ATOM     16  H   UNL     1      35.176 -22.838 -15.935  0.00  0.00    +0.152 HD
ENDBRANCH   1   8
BRANCH   2  17
ATOM     17  C   UNL     1      33.702 -17.906 -23.369  0.00  0.00    +0.114 C 
BRANCH  17  18
ATOM     18  N   UNL     1      34.114 -16.569 -23.708  0.00  0.00    -0.327 N 
ATOM     19  H   UNL     1      34.825 -16.459 -24.380  0.00  0.00    +0.147 HD
BRANCH  18  21
ATOM     20  N   UNL     1      32.096 -13.491 -23.292  0.00  0.00    -0.228 NA
ATOM     21  C   UNL     1      33.568 -15.425 -23.142  0.00  0.00    +0.077 C 
ATOM     22  C   UNL     1      32.651 -14.610 -23.810  0.00  0.00    +0.139 C 
ATOM     23  C   UNL     1      33.922 -15.035 -21.844  0.00  0.00    +0.019 C 
ATOM     24  C   UNL     1      33.373 -13.890 -21.278  0.00  0.00    +0.022 C 
ATOM     25  C   UNL     1      32.472 -13.159 -22.037  0.00  0.00    +0.100 C 
ATOM     26  N   UNL     1      32.278 -14.983 -25.125  0.00  0.00    -0.342 N 
ATOM     27  H   UNL     1      31.634 -14.434 -25.628  0.00  0.00    +0.144 HD
ATOM     28  H   UNL     1      32.661 -15.791 -25.536  0.00  0.00    +0.144 HD
ENDBRANCH  18  21
ENDBRANCH  17  18
ENDBRANCH   2  17
TORSDOF 4
ENDMDL
MODEL 5
REMARK VINA RESULT:     -11.2      1.218      1.716
REMARK  Name = 11507920
REMARK  4 active torsions:
REMARK  status: ('A' for Active; 'I' for Inactive)
REMARK    1  A    between atoms: C_1  and  C_8
REMARK    2  A    between atoms: C_2  and  C_17
REMARK    3  A    between atoms: C_17  and  N_18
REMARK    4  A    between atoms: N_18  and  C_21
REMARK                            x       y       z     vdW  Elec       q    Type
REMARK                         _______ _______ _______ _____ _____    ______ ____
ROOT
ATOM      1  C   UNL     1      33.952 -18.619 -21.457  0.00  0.00    -0.000 C 
ATOM      2  C   UNL     1      33.940 -16.326 -22.216  0.00  0.00    -0.003 C 
ATOM      3  C   UNL     1      33.937 -17.254 -21.174  0.00  0.00    -0.003 C 
ATOM      4  C   UNL     1      33.969 -19.058 -22.781  0.00  0.00    -0.000 C 
ATOM      5  C   UNL     1      33.957 -16.764 -23.540  0.00  0.00    -0.003 C 
ATOM      6  C   UNL     1      33.970 -18.130 -23.823  0.00  0.00    -0.000 C 
ENDROOT
BRANCH   1   8
ATOM      7  N   UNL     1      31.747 -21.641 -18.191  0.00  0.00    -0.312 N 
ATOM      8  C   UNL     1      33.948 -19.583 -20.376  0.00  0.00    +0.001 C 
ATOM      9  C   UNL     1      32.770 -21.000 -18.852  0.00  0.00    +0.048 C 
ATOM     10  C   UNL     1      33.967 -21.444 -18.284  0.00  0.00    +0.015 C 
ATOM     11  C   UNL     1      32.730 -20.071 -19.897  0.00  0.00    +0.015 C 
ATOM     12  C   UNL     1      35.158 -20.007 -19.829  0.00  0.00    +0.000 C 
ATOM     13  C   UNL     1      35.184 -20.936 -18.783  0.00  0.00    +0.001 C 
ATOM     14  C   UNL     1      33.625 -22.373 -17.262  0.00  0.00    +0.017 C 
ATOM     15  C   UNL     1      32.253 -22.472 -17.229  0.00  0.00    +0.062 C 
ATOM     16  H   UNL     1      30.789 -21.520 -18.383  0.00  0.00    +0.152 HD
ENDBRANCH   1   8
BRANCH   2  17
ATOM     17  C   UNL     1      33.924 -14.865 -21.914  0.00  0.00    +0.114 C 
BRANCH  17  18
ATOM     18  N   UNL     1      32.794 -14.197 -22.507  0.00  0.00    -0.327 N 
ATOM     19  H   UNL     1      32.103 -14.749 -22.940  0.00  0.00    +0.147 HD
BRANCH  18  21
ATOM     20  N   UNL     1      31.627 -10.818 -21.538  0.00  0.00    -0.228 NA
ATOM     21  C   UNL     1      32.623 -12.819 -22.504  0.00  0.00    +0.077 C 
ATOM     22  C   UNL     1      31.817 -12.156 -21.575  0.00  0.00    +0.139 C 
ATOM     23  C   UNL     1      33.269 -12.020 -23.455  0.00  0.00    +0.019 C 
ATOM     24  C   UNL     1      33.097 -10.640 -23.449  0.00  0.00    +0.022 C 
ATOM     25  C   UNL     1      32.273 -10.093 -22.479  0.00  0.00    +0.100 C 
ATOM     26  N   UNL     1      31.151 -12.944 -20.603  0.00  0.00    -0.342 N 
ATOM     27  H   UNL     1      30.575 -12.513 -19.932  0.00  0.00    +0.144 HD
ATOM     28  H   UNL     1      31.266 -13.921 -20.598  0.00  0.00    +0.144 HD
ENDBRANCH  18  21
ENDBRANCH  17  18
ENDBRANCH   2  17
TORSDOF 4
ENDMDL
MODEL 6
REMARK VINA RESULT:     -11.2      3.777      7.010
REMARK  Name = 11507920
REMARK  4 active torsions:
REMARK  status: ('A' for Active; 'I' for Inactive)
REMARK    1  A    between atoms: C_1  and  C_8
REMARK    2  A    between atoms: C_2  and  C_17
REMARK    3  A    between atoms: C_17  and  N_18
REMARK    4  A    between atoms: N_18  and  C_21
REMARK                            x       y       z     vdW  Elec       q    Type
REMARK                         _______ _______ _______ _____ _____    ______ ____
ROOT
ATOM      1  C   UNL     1      33.791 -22.562 -15.645  0.00  0.00    -0.000 C 
ATOM      2  C   UNL     1      34.894 -21.680 -17.604  0.00  0.00    -0.003 C 
ATOM      3  C   UNL     1      33.761 -22.222 -16.997  0.00  0.00    -0.003 C 
ATOM      4  C   UNL     1      34.951 -22.361 -14.899  0.00  0.00    -0.000 C 
ATOM      5  C   UNL     1      36.056 -21.479 -16.858  0.00  0.00    -0.003 C 
ATOM      6  C   UNL     1      36.085 -21.820 -15.505  0.00  0.00    -0.000 C 
ENDROOT
BRANCH   1   8
ATOM      7  N   UNL     1      28.930 -23.541 -15.350  0.00  0.00    -0.312 N 
ATOM      8  C   UNL     1      32.615 -23.126 -15.015  0.00  0.00    +0.001 C 
ATOM      9  C   UNL     1      30.258 -23.533 -14.987  0.00  0.00    +0.048 C 
ATOM     10  C   UNL     1      30.356 -24.226 -13.778  0.00  0.00    +0.015 C 
ATOM     11  C   UNL     1      31.368 -22.973 -15.628  0.00  0.00    +0.015 C 
ATOM     12  C   UNL     1      32.743 -23.812 -13.808  0.00  0.00    +0.000 C 
ATOM     13  C   UNL     1      31.624 -24.367 -13.178  0.00  0.00    +0.001 C 
ATOM     14  C   UNL     1      29.043 -24.648 -13.431  0.00  0.00    +0.017 C 
ATOM     15  C   UNL     1      28.189 -24.212 -14.416  0.00  0.00    +0.062 C 
ATOM     16  H   UNL     1      28.567 -23.123 -16.165  0.00  0.00    +0.152 HD
ENDBRANCH   1   8
BRANCH   2  17
ATOM     17  C   UNL     1      34.865 -21.316 -19.050  0.00  0.00    +0.114 C 
BRANCH  17  18
ATOM     18  N   UNL     1      34.204 -20.058 -19.284  0.00  0.00    -0.327 N 
ATOM     19  H   UNL     1      33.621 -19.701 -18.575  0.00  0.00    +0.147 HD
BRANCH  18  21
ATOM     20  N   UNL     1      35.620 -17.777 -21.836  0.00  0.00    -0.228 NA
ATOM     21  C   UNL     1      34.342 -19.319 -20.451  0.00  0.00    +0.077 C 
ATOM     22  C   UNL     1      35.449 -18.509 -20.712  0.00  0.00    +0.139 C 
ATOM     23  C   UNL     1      33.350 -19.360 -21.440  0.00  0.00    +0.019 C 
ATOM     24  C   UNL     1      33.490 -18.619 -22.608  0.00  0.00    +0.022 C 
ATOM     25  C   UNL     1      34.633 -17.851 -22.757  0.00  0.00    +0.100 C 
ATOM     26  N   UNL     1      36.466 -18.451 -19.726  0.00  0.00    -0.342 N 
ATOM     27  H   UNL     1      37.263 -17.891 -19.874  0.00  0.00    +0.144 HD
ATOM     28  H   UNL     1      36.377 -18.970 -18.895  0.00  0.00    +0.144 HD
ENDBRANCH  18  21
ENDBRANCH  17  18
ENDBRANCH   2  17
TORSDOF 4
ENDMDL
MODEL 7
REMARK VINA RESULT:     -11.1      7.754     11.145
REMARK  Name = 11507920
REMARK  4 active torsions:
REMARK  status: ('A' for Active; 'I' for Inactive)
REMARK    1  A    between atoms: C_1  and  C_8
REMARK    2  A    between atoms: C_2  and  C_17
REMARK    3  A    between atoms: C_17  and  N_18
REMARK    4  A    between atoms: N_18  and  C_21
REMARK                            x       y       z     vdW  Elec       q    Type
REMARK                         _______ _______ _______ _____ _____    ______ ____
ROOT
ATOM      1  C   UNL     1      33.188 -22.374 -16.390  0.00  0.00    -0.000 C 
ATOM      2  C   UNL     1      35.551 -21.908 -16.202  0.00  0.00    -0.003 C 
ATOM      3  C   UNL     1      34.348 -22.310 -15.619  0.00  0.00    -0.003 C 
ATOM      4  C   UNL     1      33.228 -22.037 -17.742  0.00  0.00    -0.000 C 
ATOM      5  C   UNL     1      35.591 -21.571 -17.555  0.00  0.00    -0.003 C 
ATOM      6  C   UNL     1      34.429 -21.635 -18.325  0.00  0.00    -0.000 C 
ENDROOT
BRANCH   1   8
ATOM      7  N   UNL     1      28.236 -22.615 -16.108  0.00  0.00    -0.312 N 
ATOM      8  C   UNL     1      31.940 -22.790 -15.784  0.00  0.00    +0.001 C 
ATOM      9  C   UNL     1      29.549 -22.833 -15.758  0.00  0.00    +0.048 C 
ATOM     10  C   UNL     1      29.540 -23.605 -14.594  0.00  0.00    +0.015 C 
ATOM     11  C   UNL     1      30.731 -22.411 -16.375  0.00  0.00    +0.015 C 
ATOM     12  C   UNL     1      31.962 -23.559 -14.622  0.00  0.00    +0.000 C 
ATOM     13  C   UNL     1      30.771 -23.974 -14.016  0.00  0.00    +0.001 C 
ATOM     14  C   UNL     1      28.177 -23.842 -14.260  0.00  0.00    +0.017 C 
ATOM     15  C   UNL     1      27.400 -23.220 -15.210  0.00  0.00    +0.062 C 
ATOM     16  H   UNL     1      27.940 -22.098 -16.893  0.00  0.00    +0.152 HD
ENDBRANCH   1   8
BRANCH   2  17
ATOM     17  C   UNL     1      36.793 -21.839 -15.380  0.00  0.00    +0.114 C 
BRANCH  17  18
ATOM     18  N   UNL     1      37.406 -23.130 -15.205  0.00  0.00    -0.327 N 
ATOM     19  H   UNL     1      37.937 -23.496 -15.949  0.00  0.00    +0.147 HD
BRANCH  18  21
ATOM     20  N   UNL     1      38.031 -25.750 -12.662  0.00  0.00    -0.228 NA
ATOM     21  C   UNL     1      37.292 -23.889 -14.048  0.00  0.00    +0.077 C 
ATOM     22  C   UNL     1      38.110 -24.987 -13.776  0.00  0.00    +0.139 C 
ATOM     23  C   UNL     1      36.327 -23.573 -13.083  0.00  0.00    +0.019 C 
ATOM     24  C   UNL     1      36.215 -24.334 -11.925  0.00  0.00    +0.022 C 
ATOM     25  C   UNL     1      37.083 -25.402 -11.763  0.00  0.00    +0.100 C 
ATOM     26  N   UNL     1      39.094 -25.328 -14.739  0.00  0.00    -0.342 N 
ATOM     27  H   UNL     1      39.690 -26.095 -14.582  0.00  0.00    +0.144 HD
ATOM     28  H   UNL     1      39.182 -24.796 -15.562  0.00  0.00    +0.144 HD
ENDBRANCH  18  21
ENDBRANCH  17  18
ENDBRANCH   2  17
TORSDOF 4
ENDMDL
MODEL 8
REMARK VINA RESULT:     -11.1      4.624     11.438
REMARK  Name = 11507920
REMARK  4 active torsions:
REMARK  status: ('A' for Active; 'I' for Inactive)
REMARK    1  A    between atoms: C_1  and  C_8
REMARK    2  A    between atoms: C_2  and  C_17
REMARK    3  A    between atoms: C_17  and  N_18
REMARK    4  A    between atoms: N_18  and  C_21
REMARK                            x       y       z     vdW  Elec       q    Type
REMARK                         _______ _______ _______ _____ _____    ______ ____
ROOT
ATOM      1  C   UNL     1      32.570 -22.375 -16.481  0.00  0.00    -0.000 C 
ATOM      2  C   UNL     1      32.699 -23.506 -14.350  0.00  0.00    -0.003 C 
ATOM      3  C   UNL     1      33.326 -22.848 -15.409  0.00  0.00    -0.003 C 
ATOM      4  C   UNL     1      31.189 -22.561 -16.497  0.00  0.00    -0.000 C 
ATOM      5  C   UNL     1      31.317 -23.693 -14.366  0.00  0.00    -0.003 C 
ATOM      6  C   UNL     1      30.561 -23.220 -15.440  0.00  0.00    -0.000 C 
ENDROOT
BRANCH   1   8
ATOM      7  N   UNL     1      32.616 -19.668 -20.644  0.00  0.00    -0.312 N 
ATOM      8  C   UNL     1      33.221 -21.693 -17.580  0.00  0.00    +0.001 C 
ATOM      9  C   UNL     1      33.112 -20.386 -19.580  0.00  0.00    +0.048 C 
ATOM     10  C   UNL     1      34.504 -20.382 -19.695  0.00  0.00    +0.015 C 
ATOM     11  C   UNL     1      32.444 -21.033 -18.535  0.00  0.00    +0.015 C 
ATOM     12  C   UNL     1      34.612 -21.706 -17.669  0.00  0.00    +0.000 C 
ATOM     13  C   UNL     1      35.268 -21.055 -18.721  0.00  0.00    +0.001 C 
ATOM     14  C   UNL     1      34.823 -19.636 -20.864  0.00  0.00    +0.017 C 
ATOM     15  C   UNL     1      33.642 -19.211 -21.425  0.00  0.00    +0.062 C 
ATOM     16  H   UNL     1      31.660 -19.506 -20.818  0.00  0.00    +0.152 HD
ENDBRANCH   1   8
BRANCH   2  17
ATOM     17  C   UNL     1      33.506 -24.013 -13.202  0.00  0.00    +0.114 C 
BRANCH  17  18
ATOM     18  N   UNL     1      34.290 -25.169 -13.553  0.00  0.00    -0.327 N 
ATOM     19  H   UNL     1      33.827 -25.940 -13.953  0.00  0.00    +0.147 HD
BRANCH  18  21
ATOM     20  N   UNL     1      37.818 -26.223 -13.950  0.00  0.00    -0.228 NA
ATOM     21  C   UNL     1      35.662 -25.259 -13.360  0.00  0.00    +0.077 C 
ATOM     22  C   UNL     1      36.481 -26.108 -14.108  0.00  0.00    +0.139 C 
ATOM     23  C   UNL     1      36.295 -24.480 -12.383  0.00  0.00    +0.019 C 
ATOM     24  C   UNL     1      37.669 -24.572 -12.191  0.00  0.00    +0.022 C 
ATOM     25  C   UNL     1      38.380 -25.450 -12.993  0.00  0.00    +0.100 C 
ATOM     26  N   UNL     1      35.863 -26.908 -15.102  0.00  0.00    -0.342 N 
ATOM     27  H   UNL     1      36.407 -27.519 -15.650  0.00  0.00    +0.144 HD
ATOM     28  H   UNL     1      34.891 -26.851 -15.246  0.00  0.00    +0.144 HD
ENDBRANCH  18  21
ENDBRANCH  17  18
ENDBRANCH   2  17
TORSDOF 4
ENDMDL
MODEL 9
REMARK VINA RESULT:     -11.0      4.717      8.309
REMARK  Name = 11507920
REMARK  4 active torsions:
REMARK  status: ('A' for Active; 'I' for Inactive)
REMARK    1  A    between atoms: C_1  and  C_8
REMARK    2  A    between atoms: C_2  and  C_17
REMARK    3  A    between atoms: C_17  and  N_18
REMARK    4  A    between atoms: N_18  and  C_21
REMARK                            x       y       z     vdW  Elec       q    Type
REMARK                         _______ _______ _______ _____ _____    ______ ____
ROOT
ATOM      1  C   UNL     1      33.370 -23.044 -14.477  0.00  0.00    -0.000 C 
ATOM      2  C   UNL     1      35.246 -22.154 -15.711  0.00  0.00    -0.003 C 
ATOM      3  C   UNL     1      33.884 -22.446 -15.627  0.00  0.00    -0.003 C 
ATOM      4  C   UNL     1      34.214 -23.350 -13.411  0.00  0.00    -0.000 C 
ATOM      5  C   UNL     1      36.092 -22.461 -14.645  0.00  0.00    -0.003 C 
ATOM      6  C   UNL     1      35.576 -23.060 -13.495  0.00  0.00    -0.000 C 
ENDROOT
BRANCH   1   8
ATOM      7  N   UNL     1      28.638 -22.692 -15.946  0.00  0.00    -0.312 N 
ATOM      8  C   UNL     1      31.956 -23.348 -14.391  0.00  0.00    +0.001 C 
ATOM      9  C   UNL     1      29.717 -23.097 -15.193  0.00  0.00    +0.048 C 
ATOM     10  C   UNL     1      29.229 -23.951 -14.202  0.00  0.00    +0.015 C 
ATOM     11  C   UNL     1      31.074 -22.778 -15.312  0.00  0.00    +0.015 C 
ATOM     12  C   UNL     1      31.497 -24.203 -13.390  0.00  0.00    +0.000 C 
ATOM     13  C   UNL     1      30.137 -24.514 -13.283  0.00  0.00    +0.001 C 
ATOM     14  C   UNL     1      27.821 -24.044 -14.388  0.00  0.00    +0.017 C 
ATOM     15  C   UNL     1      27.489 -23.258 -15.467  0.00  0.00    +0.062 C 
ATOM     16  H   UNL     1      28.687 -22.083 -16.719  0.00  0.00    +0.152 HD
ENDBRANCH   1   8
BRANCH   2  17
ATOM     17  C   UNL     1      35.798 -21.516 -16.940  0.00  0.00    +0.114 C 
BRANCH  17  18
ATOM     18  N   UNL     1      35.018 -21.820 -18.112  0.00  0.00    -0.327 N 
ATOM     19  H   UNL     1      34.789 -22.762 -18.285  0.00  0.00    +0.147 HD
BRANCH  18  21
ATOM     20  N   UNL     1      32.752 -19.785 -20.220  0.00  0.00    -0.228 NA
ATOM     21  C   UNL     1      34.572 -20.862 -19.013  0.00  0.00    +0.077 C 
ATOM     22  C   UNL     1      33.226 -20.705 -19.350  0.00  0.00    +0.139 C 
ATOM     23  C   UNL     1      35.477 -19.991 -19.632  0.00  0.00    +0.019 C 
ATOM     24  C   UNL     1      35.028 -19.032 -20.533  0.00  0.00    +0.022 C 
ATOM     25  C   UNL     1      33.667 -18.970 -20.790  0.00  0.00    +0.100 C 
ATOM     26  N   UNL     1      32.290 -21.576 -18.737  0.00  0.00    -0.342 N 
ATOM     27  H   UNL     1      31.332 -21.497 -18.949  0.00  0.00    +0.144 HD
ATOM     28  H   UNL     1      32.597 -22.259 -18.098  0.00  0.00    +0.144 HD
ENDBRANCH  18  21
ENDBRANCH  17  18
ENDBRANCH   2  17
TORSDOF 4
ENDMDL
