MODEL 1
REMARK VINA RESULT:     -11.8      0.000      0.000
REMARK  Name = 54726191
REMARK  4 active torsions:
REMARK  status: ('A' for Active; 'I' for Inactive)
REMARK    1  A    between atoms: C_15  and  O_31
REMARK    2  A    between atoms: C_16  and  C_20
REMARK    3  A    between atoms: N_19  and  C_22
REMARK    4  A    between atoms: C_22  and  C_25
REMARK                            x       y       z     vdW  Elec       q    Type
REMARK                         _______ _______ _______ _____ _____    ______ ____
ROOT
ATOM      1  O   UNL     1      36.278 -22.666 -14.731  0.00  0.00    -0.336 OA
ATOM      2  O   UNL     1      32.384 -23.404 -17.253  0.00  0.00    -0.268 OA
ATOM      3  O   UNL     1      32.736 -19.756 -20.785  0.00  0.00    -0.283 OA
ATOM      4  N   UNL     1      34.164 -22.888 -15.866  0.00  0.00    -0.253 N 
ATOM      5  N   UNL     1      35.168 -21.194 -17.880  0.00  0.00    -0.275 N 
ATOM      6  C   UNL     1      35.329 -22.037 -15.601  0.00  0.00    +0.215 C 
ATOM      7  C   UNL     1      33.599 -23.657 -14.742  0.00  0.00    +0.080 C 
ATOM      8  C   UNL     1      34.695 -24.202 -13.827  0.00  0.00    +0.052 C 
ATOM      9  C   UNL     1      36.080 -21.751 -16.891  0.00  0.00    +0.147 C 
ATOM     10  C   UNL     1      35.714 -23.126 -13.510  0.00  0.00    +0.146 C 
ATOM     11  C   UNL     1      33.395 -22.739 -17.028  0.00  0.00    +0.267 C 
ATOM     12  C   UNL     1      33.866 -21.686 -18.004  0.00  0.00    +0.143 C 
ATOM     13  C   UNL     1      32.586 -22.806 -13.966  0.00  0.00    +0.022 C 
ATOM     14  C   UNL     1      35.613 -20.234 -18.779  0.00  0.00    +0.074 C 
ATOM     15  C   UNL     1      33.009 -21.244 -18.951  0.00  0.00    +0.191 C 
ATOM     16  C   UNL     1      34.875 -19.709 -19.765  0.00  0.00    +0.110 C 
ATOM     17  C   UNL     1      33.478 -20.194 -19.912  0.00  0.00    +0.236 C 
ENDROOT
BRANCH  16  20
ATOM     18  O   UNL     1      36.704 -18.577 -20.709  0.00  0.00    -0.270 OA
ATOM     19  N   UNL     1      34.545 -17.945 -21.322  0.00  0.00    -0.297 N 
ATOM     20  C   UNL     1      35.481 -18.700 -20.634  0.00  0.00    +0.251 C 
ATOM     21  H   UNL     1      33.591 -18.140 -21.177  0.00  0.00    +0.150 HD
BRANCH  19  22
ATOM     22  C   UNL     1      34.896 -16.886 -22.241  0.00  0.00    +0.119 C 
BRANCH  22  25
ATOM     23  F   UNL     1      33.834 -15.327 -24.350  0.00  0.00    -0.204 F 
ATOM     24  F   UNL     1      31.832 -12.243 -21.373  0.00  0.00    -0.204 F 
ATOM     25  C   UNL     1      34.079 -15.648 -22.011  0.00  0.00    +0.025 C 
ATOM     26  C   UNL     1      33.585 -14.924 -23.097  0.00  0.00    +0.140 C 
ATOM     27  C   UNL     1      33.814 -15.221 -20.709  0.00  0.00    +0.002 C 
ATOM     28  C   UNL     1      32.826 -13.774 -22.881  0.00  0.00    +0.059 C 
ATOM     29  C   UNL     1      33.054 -14.071 -20.494  0.00  0.00    +0.030 C 
ATOM     30  C   UNL     1      32.561 -13.346 -21.579  0.00  0.00    +0.142 C 
ENDBRANCH  22  25
ENDBRANCH  19  22
ENDBRANCH  16  20
BRANCH  15  31
ATOM     31  O   UNL     1      31.712 -21.686 -19.087  0.00  0.00    -0.502 OA
ATOM     32  H   UNL     1      31.183 -21.376 -19.796  0.00  0.00    +0.292 HD
ENDBRANCH  15  31
TORSDOF 4
ENDMDL
MODEL 2
REMARK VINA RESULT:     -11.3      3.937      9.515
REMARK  Name = 54726191
REMARK  4 active torsions:
REMARK  status: ('A' for Active; 'I' for Inactive)
REMARK    1  A    between atoms: C_15  and  O_31
REMARK    2  A    between atoms: C_16  and  C_20
REMARK    3  A    between atoms: N_19  and  C_22
REMARK    4  A    between atoms: C_22  and  C_25
REMARK                            x       y       z     vdW  Elec       q    Type
REMARK                         _______ _______ _______ _____ _____    ______ ____
ROOT
ATOM      1  O   UNL     1      33.336 -12.279 -22.255  0.00  0.00    -0.336 OA
ATOM      2  O   UNL     1      32.017 -15.912 -24.926  0.00  0.00    -0.268 OA
ATOM      3  O   UNL     1      34.559 -19.757 -22.766  0.00  0.00    -0.283 OA
ATOM      4  N   UNL     1      32.856 -14.088 -23.773  0.00  0.00    -0.253 N 
ATOM      5  N   UNL     1      33.918 -15.859 -21.857  0.00  0.00    -0.275 N 
ATOM      6  C   UNL     1      33.724 -13.584 -22.702  0.00  0.00    +0.215 C 
ATOM      7  C   UNL     1      32.433 -13.144 -24.823  0.00  0.00    +0.080 C 
ATOM      8  C   UNL     1      32.135 -11.760 -24.248  0.00  0.00    +0.052 C 
ATOM      9  C   UNL     1      33.633 -14.483 -21.480  0.00  0.00    +0.147 C 
ATOM     10  C   UNL     1      33.237 -11.323 -23.302  0.00  0.00    +0.146 C 
ATOM     11  C   UNL     1      32.698 -15.461 -24.004  0.00  0.00    +0.267 C 
ATOM     12  C   UNL     1      33.436 -16.382 -23.060  0.00  0.00    +0.143 C 
ATOM     13  C   UNL     1      33.482 -13.079 -25.940  0.00  0.00    +0.022 C 
ATOM     14  C   UNL     1      34.588 -16.701 -20.980  0.00  0.00    +0.074 C 
ATOM     15  C   UNL     1      33.621 -17.672 -23.419  0.00  0.00    +0.191 C 
ATOM     16  C   UNL     1      34.839 -17.996 -21.203  0.00  0.00    +0.110 C 
ATOM     17  C   UNL     1      34.361 -18.579 -22.483  0.00  0.00    +0.236 C 
ENDROOT
BRANCH  16  20
ATOM     18  O   UNL     1      36.619 -18.339 -19.708  0.00  0.00    -0.270 OA
ATOM     19  N   UNL     1      34.931 -19.943 -19.844  0.00  0.00    -0.297 N 
ATOM     20  C   UNL     1      35.562 -18.757 -20.184  0.00  0.00    +0.251 C 
ATOM     21  H   UNL     1      34.087 -20.168 -20.296  0.00  0.00    +0.150 HD
BRANCH  19  22
ATOM     22  C   UNL     1      35.450 -20.868 -18.862  0.00  0.00    +0.119 C 
BRANCH  22  25
ATOM     23  F   UNL     1      35.912 -22.096 -16.355  0.00  0.00    -0.204 F 
ATOM     24  F   UNL     1      31.347 -23.211 -15.801  0.00  0.00    -0.204 F 
ATOM     25  C   UNL     1      34.358 -21.493 -18.045  0.00  0.00    +0.025 C 
ATOM     26  C   UNL     1      34.654 -22.083 -16.815  0.00  0.00    +0.140 C 
ATOM     27  C   UNL     1      33.045 -21.483 -18.516  0.00  0.00    +0.002 C 
ATOM     28  C   UNL     1      33.636 -22.663 -16.058  0.00  0.00    +0.059 C 
ATOM     29  C   UNL     1      32.027 -22.064 -17.757  0.00  0.00    +0.030 C 
ATOM     30  C   UNL     1      32.323 -22.654 -16.529  0.00  0.00    +0.142 C 
ENDBRANCH  22  25
ENDBRANCH  19  22
ENDBRANCH  16  20
BRANCH  15  31
ATOM     31  O   UNL     1      33.184 -18.215 -24.607  0.00  0.00    -0.502 OA
ATOM     32  H   UNL     1      32.432 -17.858 -25.036  0.00  0.00    +0.292 HD
ENDBRANCH  15  31
TORSDOF 4
ENDMDL
MODEL 3
REMARK VINA RESULT:     -10.9      6.214     12.143
REMARK  Name = 54726191
REMARK  4 active torsions:
REMARK  status: ('A' for Active; 'I' for Inactive)
REMARK    1  A    between atoms: C_15  and  O_31
REMARK    2  A    between atoms: C_16  and  C_20
REMARK    3  A    between atoms: N_19  and  C_22
REMARK    4  A    between atoms: C_22  and  C_25
REMARK                            x       y       z     vdW  Elec       q    Type
REMARK                         _______ _______ _______ _____ _____    ______ ____
ROOT
ATOM      1  O   UNL     1      33.067  -6.607 -24.872  0.00  0.00    -0.336 OA
ATOM      2  O   UNL     1      31.747  -8.456 -20.760  0.00  0.00    -0.268 OA
ATOM      3  O   UNL     1      31.715 -13.433 -21.831  0.00  0.00    -0.283 OA
ATOM      4  N   UNL     1      32.153  -7.530 -22.843  0.00  0.00    -0.253 N 
ATOM      5  N   UNL     1      32.919 -10.080 -23.764  0.00  0.00    -0.275 N 
ATOM      6  C   UNL     1      32.444  -7.745 -24.265  0.00  0.00    +0.215 C 
ATOM      7  C   UNL     1      31.631  -6.214 -22.434  0.00  0.00    +0.080 C 
ATOM      8  C   UNL     1      32.298  -5.079 -23.211  0.00  0.00    +0.052 C 
ATOM      9  C   UNL     1      33.425  -8.893 -24.437  0.00  0.00    +0.147 C 
ATOM     10  C   UNL     1      32.343  -5.397 -24.692  0.00  0.00    +0.146 C 
ATOM     11  C   UNL     1      32.040  -8.602 -21.947  0.00  0.00    +0.267 C 
ATOM     12  C   UNL     1      32.280  -9.978 -22.525  0.00  0.00    +0.143 C 
ATOM     13  C   UNL     1      30.104  -6.174 -22.576  0.00  0.00    +0.022 C 
ATOM     14  C   UNL     1      33.154 -11.340 -24.297  0.00  0.00    +0.074 C 
ATOM     15  C   UNL     1      31.855 -11.059 -21.834  0.00  0.00    +0.191 C 
ATOM     16  C   UNL     1      32.790 -12.494 -23.724  0.00  0.00    +0.110 C 
ATOM     17  C   UNL     1      32.088 -12.421 -22.416  0.00  0.00    +0.236 C 
ENDROOT
BRANCH  16  20
ATOM     18  O   UNL     1      32.949 -13.862 -25.626  0.00  0.00    -0.270 OA
ATOM     19  N   UNL     1      33.568 -14.732 -23.553  0.00  0.00    -0.297 N 
ATOM     20  C   UNL     1      33.102 -13.747 -24.409  0.00  0.00    +0.251 C 
ATOM     21  H   UNL     1      33.647 -14.518 -22.595  0.00  0.00    +0.150 HD
BRANCH  19  22
ATOM     22  C   UNL     1      33.943 -16.057 -23.992  0.00  0.00    +0.119 C 
BRANCH  22  25
ATOM     23  F   UNL     1      33.275 -18.796 -24.238  0.00  0.00    -0.204 F 
ATOM     24  F   UNL     1      34.270 -19.685 -19.698  0.00  0.00    -0.204 F 
ATOM     25  C   UNL     1      34.030 -17.025 -22.848  0.00  0.00    +0.025 C 
ATOM     26  C   UNL     1      33.685 -18.364 -23.038  0.00  0.00    +0.140 C 
ATOM     27  C   UNL     1      34.456 -16.585 -21.595  0.00  0.00    +0.002 C 
ATOM     28  C   UNL     1      33.766 -19.262 -21.973  0.00  0.00    +0.059 C 
ATOM     29  C   UNL     1      34.537 -17.484 -20.531  0.00  0.00    +0.030 C 
ATOM     30  C   UNL     1      34.192 -18.822 -20.719  0.00  0.00    +0.142 C 
ENDBRANCH  22  25
ENDBRANCH  19  22
ENDBRANCH  16  20
BRANCH  15  31
ATOM     31  O   UNL     1      31.199 -10.996 -20.626  0.00  0.00    -0.502 OA
ATOM     32  H   UNL     1      30.348 -10.607 -20.574  0.00  0.00    +0.292 HD
ENDBRANCH  15  31
TORSDOF 4
ENDMDL
MODEL 4
REMARK VINA RESULT:     -10.8      3.238      4.879
REMARK  Name = 54726191
REMARK  4 active torsions:
REMARK  status: ('A' for Active; 'I' for Inactive)
REMARK    1  A    between atoms: C_15  and  O_31
REMARK    2  A    between atoms: C_16  and  C_20
REMARK    3  A    between atoms: N_19  and  C_22
REMARK    4  A    between atoms: C_22  and  C_25
REMARK                            x       y       z     vdW  Elec       q    Type
REMARK                         _______ _______ _______ _____ _____    ______ ____
ROOT
ATOM      1  O   UNL     1      37.140 -24.198 -12.895  0.00  0.00    -0.336 OA
ATOM      2  O   UNL     1      32.547 -24.323 -11.919  0.00  0.00    -0.268 OA
ATOM      3  O   UNL     1      30.535 -22.389 -16.177  0.00  0.00    -0.283 OA
ATOM      4  N   UNL     1      34.812 -24.032 -12.296  0.00  0.00    -0.253 N 
ATOM      5  N   UNL     1      34.240 -23.547 -15.012  0.00  0.00    -0.275 N 
ATOM      6  C   UNL     1      35.876 -23.600 -13.209  0.00  0.00    +0.215 C 
ATOM      7  C   UNL     1      35.134 -24.146 -10.862  0.00  0.00    +0.080 C 
ATOM      8  C   UNL     1      36.539 -24.707 -10.645  0.00  0.00    +0.052 C 
ATOM      9  C   UNL     1      35.560 -24.030 -14.632  0.00  0.00    +0.147 C 
ATOM     10  C   UNL     1      37.540 -24.009 -11.544  0.00  0.00    +0.146 C 
ATOM     11  C   UNL     1      33.464 -24.015 -12.680  0.00  0.00    +0.267 C 
ATOM     12  C   UNL     1      33.184 -23.570 -14.097  0.00  0.00    +0.143 C 
ATOM     13  C   UNL     1      34.950 -22.794 -10.162  0.00  0.00    +0.022 C 
ATOM     14  C   UNL     1      33.989 -23.150 -16.318  0.00  0.00    +0.074 C 
ATOM     15  C   UNL     1      31.928 -23.194 -14.426  0.00  0.00    +0.191 C 
ATOM     16  C   UNL     1      32.798 -22.755 -16.782  0.00  0.00    +0.110 C 
ATOM     17  C   UNL     1      31.657 -22.746 -15.830  0.00  0.00    +0.236 C 
ENDROOT
BRANCH  16  20
ATOM     18  O   UNL     1      32.800 -23.190 -19.091  0.00  0.00    -0.270 OA
ATOM     19  N   UNL     1      32.452 -21.005 -18.352  0.00  0.00    -0.297 N 
ATOM     20  C   UNL     1      32.687 -22.360 -18.186  0.00  0.00    +0.251 C 
ATOM     21  H   UNL     1      32.382 -20.442 -17.548  0.00  0.00    +0.150 HD
BRANCH  19  22
ATOM     22  C   UNL     1      32.306 -20.374 -19.645  0.00  0.00    +0.119 C 
BRANCH  22  25
ATOM     23  F   UNL     1      32.539 -18.990 -22.102  0.00  0.00    -0.204 F 
ATOM     24  F   UNL     1      37.168 -18.223 -21.498  0.00  0.00    -0.204 F 
ATOM     25  C   UNL     1      33.602 -19.800 -20.140  0.00  0.00    +0.025 C 
ATOM     26  C   UNL     1      33.647 -19.129 -21.362  0.00  0.00    +0.140 C 
ATOM     27  C   UNL     1      34.761 -19.939 -19.376  0.00  0.00    +0.002 C 
ATOM     28  C   UNL     1      34.852 -18.596 -21.821  0.00  0.00    +0.059 C 
ATOM     29  C   UNL     1      35.966 -19.406 -19.836  0.00  0.00    +0.030 C 
ATOM     30  C   UNL     1      36.012 -18.735 -21.058  0.00  0.00    +0.142 C 
ENDBRANCH  22  25
ENDBRANCH  19  22
ENDBRANCH  16  20
BRANCH  15  31
ATOM     31  O   UNL     1      30.870 -23.178 -13.546  0.00  0.00    -0.502 OA
ATOM     32  H   UNL     1      30.229 -22.496 -13.595  0.00  0.00    +0.292 HD
ENDBRANCH  15  31
TORSDOF 4
ENDMDL
MODEL 5
REMARK VINA RESULT:     -10.1      6.049     11.989
REMARK  Name = 54726191
REMARK  4 active torsions:
REMARK  status: ('A' for Active; 'I' for Inactive)
REMARK    1  A    between atoms: C_15  and  O_31
REMARK    2  A    between atoms: C_16  and  C_20
REMARK    3  A    between atoms: N_19  and  C_22
REMARK    4  A    between atoms: C_22  and  C_25
REMARK                            x       y       z     vdW  Elec       q    Type
REMARK                         _______ _______ _______ _____ _____    ______ ____
ROOT
ATOM      1  O   UNL     1      30.453  -6.991 -20.577  0.00  0.00    -0.336 OA
ATOM      2  O   UNL     1      32.232  -8.516 -24.648  0.00  0.00    -0.268 OA
ATOM      3  O   UNL     1      33.814 -13.190 -23.396  0.00  0.00    -0.283 OA
ATOM      4  N   UNL     1      31.584  -7.673 -22.591  0.00  0.00    -0.253 N 
ATOM      5  N   UNL     1      31.655 -10.294 -21.559  0.00  0.00    -0.275 N 
ATOM      6  C   UNL     1      31.390  -7.907 -21.156  0.00  0.00    +0.215 C 
ATOM      7  C   UNL     1      31.669  -6.279 -23.061  0.00  0.00    +0.080 C 
ATOM      8  C   UNL     1      30.692  -5.373 -22.311  0.00  0.00    +0.052 C 
ATOM      9  C   UNL     1      30.814  -9.293 -20.918  0.00  0.00    +0.147 C 
ATOM     10  C   UNL     1      30.765  -5.626 -20.818  0.00  0.00    +0.146 C 
ATOM     11  C   UNL     1      32.013  -8.695 -23.450  0.00  0.00    +0.267 C 
ATOM     12  C   UNL     1      32.216 -10.052 -22.816  0.00  0.00    +0.143 C 
ATOM     13  C   UNL     1      33.110  -5.764 -22.958  0.00  0.00    +0.022 C 
ATOM     14  C   UNL     1      31.827 -11.541 -20.975  0.00  0.00    +0.074 C 
ATOM     15  C   UNL     1      32.947 -10.977 -23.476  0.00  0.00    +0.191 C 
ATOM     16  C   UNL     1      32.523 -12.549 -21.514  0.00  0.00    +0.110 C 
ATOM     17  C   UNL     1      33.153 -12.319 -22.840  0.00  0.00    +0.236 C 
ENDROOT
BRANCH  16  20
ATOM     18  O   UNL     1      31.801 -14.099 -19.903  0.00  0.00    -0.270 OA
ATOM     19  N   UNL     1      33.700 -14.584 -21.168  0.00  0.00    -0.297 N 
ATOM     20  C   UNL     1      32.621 -13.808 -20.775  0.00  0.00    +0.251 C 
ATOM     21  H   UNL     1      34.287 -14.241 -21.879  0.00  0.00    +0.150 HD
BRANCH  19  22
ATOM     22  C   UNL     1      34.009 -15.870 -20.585  0.00  0.00    +0.119 C 
BRANCH  22  25
ATOM     23  F   UNL     1      34.343 -18.599 -19.915  0.00  0.00    -0.204 F 
ATOM     24  F   UNL     1      33.884 -19.998 -24.412  0.00  0.00    -0.204 F 
ATOM     25  C   UNL     1      33.976 -16.972 -21.604  0.00  0.00    +0.025 C 
ATOM     26  C   UNL     1      34.148 -18.298 -21.206  0.00  0.00    +0.140 C 
ATOM     27  C   UNL     1      33.773 -16.668 -22.950  0.00  0.00    +0.002 C 
ATOM     28  C   UNL     1      34.117 -19.320 -22.155  0.00  0.00    +0.059 C 
ATOM     29  C   UNL     1      33.742 -17.691 -23.899  0.00  0.00    +0.030 C 
ATOM     30  C   UNL     1      33.914 -19.017 -23.502  0.00  0.00    +0.142 C 
ENDBRANCH  22  25
ENDBRANCH  19  22
ENDBRANCH  16  20
BRANCH  15  31
ATOM     31  O   UNL     1      33.537 -10.766 -24.702  0.00  0.00    -0.502 OA
ATOM     32  H   UNL     1      33.048 -10.909 -25.488  0.00  0.00    +0.292 HD
ENDBRANCH  15  31
TORSDOF 4
ENDMDL
MODEL 6
REMARK VINA RESULT:     -10.1      5.428      9.025
REMARK  Name = 54726191
REMARK  4 active torsions:
REMARK  status: ('A' for Active; 'I' for Inactive)
REMARK    1  A    between atoms: C_15  and  O_31
REMARK    2  A    between atoms: C_16  and  C_20
REMARK    3  A    between atoms: N_19  and  C_22
REMARK    4  A    between atoms: C_22  and  C_25
REMARK                            x       y       z     vdW  Elec       q    Type
REMARK                         _______ _______ _______ _____ _____    ______ ____
ROOT
ATOM      1  O   UNL     1      34.418 -17.237 -20.300  0.00  0.00    -0.336 OA
ATOM      2  O   UNL     1      34.387 -16.204 -24.883  0.00  0.00    -0.268 OA
ATOM      3  O   UNL     1      32.086 -11.663 -24.901  0.00  0.00    -0.283 OA
ATOM      4  N   UNL     1      34.181 -16.826 -22.662  0.00  0.00    -0.253 N 
ATOM      5  N   UNL     1      33.493 -14.166 -22.040  0.00  0.00    -0.275 N 
ATOM      6  C   UNL     1      33.742 -16.475 -21.307  0.00  0.00    +0.215 C 
ATOM      7  C   UNL     1      34.403 -18.250 -22.971  0.00  0.00    +0.080 C 
ATOM      8  C   UNL     1      35.043 -18.987 -21.794  0.00  0.00    +0.052 C 
ATOM      9  C   UNL     1      34.062 -15.020 -21.008  0.00  0.00    +0.147 C 
ATOM     10  C   UNL     1      34.337 -18.642 -20.498  0.00  0.00    +0.146 C 
ATOM     11  C   UNL     1      34.074 -15.920 -23.727  0.00  0.00    +0.267 C 
ATOM     12  C   UNL     1      33.525 -14.555 -23.382  0.00  0.00    +0.143 C 
ATOM     13  C   UNL     1      33.092 -18.916 -23.409  0.00  0.00    +0.022 C 
ATOM     14  C   UNL     1      33.001 -12.909 -21.716  0.00  0.00    +0.074 C 
ATOM     15  C   UNL     1      33.069 -13.765 -24.380  0.00  0.00    +0.191 C 
ATOM     16  C   UNL     1      32.520 -12.025 -22.598  0.00  0.00    +0.110 C 
ATOM     17  C   UNL     1      32.518 -12.415 -24.032  0.00  0.00    +0.236 C 
ENDROOT
BRANCH  16  20
ATOM     18  O   UNL     1      31.261 -10.675 -21.145  0.00  0.00    -0.270 OA
ATOM     19  N   UNL     1      32.521  -9.659 -22.825  0.00  0.00    -0.297 N 
ATOM     20  C   UNL     1      32.030 -10.738 -22.106  0.00  0.00    +0.251 C 
ATOM     21  H   UNL     1      33.132  -9.839 -23.576  0.00  0.00    +0.150 HD
BRANCH  19  22
ATOM     22  C   UNL     1      32.182  -8.286 -22.531  0.00  0.00    +0.119 C 
BRANCH  22  25
ATOM     23  F   UNL     1      34.490  -6.709 -22.095  0.00  0.00    -0.204 F 
ATOM     24  F   UNL     1      34.236  -4.735 -26.388  0.00  0.00    -0.204 F 
ATOM     25  C   UNL     1      32.731  -7.339 -23.558  0.00  0.00    +0.025 C 
ATOM     26  C   UNL     1      33.874  -6.590 -23.279  0.00  0.00    +0.140 C 
ATOM     27  C   UNL     1      32.096  -7.209 -24.794  0.00  0.00    +0.002 C 
ATOM     28  C   UNL     1      34.382  -5.710 -24.235  0.00  0.00    +0.059 C 
ATOM     29  C   UNL     1      32.605  -6.329 -25.750  0.00  0.00    +0.030 C 
ATOM     30  C   UNL     1      33.748  -5.579 -25.471  0.00  0.00    +0.142 C 
ENDBRANCH  22  25
ENDBRANCH  19  22
ENDBRANCH  16  20
BRANCH  15  31
ATOM     31  O   UNL     1      33.060 -14.124 -25.709  0.00  0.00    -0.502 OA
ATOM     32  H   UNL     1      32.247 -14.289 -26.144  0.00  0.00    +0.292 HD
ENDBRANCH  15  31
TORSDOF 4
ENDMDL
MODEL 7
REMARK VINA RESULT:      -9.9      5.209      8.717
REMARK  Name = 54726191
REMARK  4 active torsions:
REMARK  status: ('A' for Active; 'I' for Inactive)
REMARK    1  A    between atoms: C_15  and  O_31
REMARK    2  A    between atoms: C_16  and  C_20
REMARK    3  A    between atoms: N_19  and  C_22
REMARK    4  A    between atoms: C_22  and  C_25
REMARK                            x       y       z     vdW  Elec       q    Type
REMARK                         _______ _______ _______ _____ _____    ______ ____
ROOT
ATOM      1  O   UNL     1      34.534 -17.468 -20.247  0.00  0.00    -0.336 OA
ATOM      2  O   UNL     1      34.415 -16.422 -24.825  0.00  0.00    -0.268 OA
ATOM      3  O   UNL     1      31.975 -11.954 -24.798  0.00  0.00    -0.283 OA
ATOM      4  N   UNL     1      34.255 -17.057 -22.604  0.00  0.00    -0.253 N 
ATOM      5  N   UNL     1      33.494 -14.422 -21.964  0.00  0.00    -0.275 N 
ATOM      6  C   UNL     1      33.822 -16.724 -21.243  0.00  0.00    +0.215 C 
ATOM      7  C   UNL     1      34.517 -18.473 -22.921  0.00  0.00    +0.080 C 
ATOM      8  C   UNL     1      35.194 -19.193 -21.754  0.00  0.00    +0.052 C 
ATOM      9  C   UNL     1      34.101 -15.261 -20.941  0.00  0.00    +0.147 C 
ATOM     10  C   UNL     1      34.494 -18.875 -20.448  0.00  0.00    +0.146 C 
ATOM     11  C   UNL     1      34.108 -16.151 -23.664  0.00  0.00    +0.267 C 
ATOM     12  C   UNL     1      33.521 -14.805 -23.308  0.00  0.00    +0.143 C 
ATOM     13  C   UNL     1      33.222 -19.177 -23.345  0.00  0.00    +0.022 C 
ATOM     14  C   UNL     1      32.967 -13.182 -21.629  0.00  0.00    +0.074 C 
ATOM     15  C   UNL     1      33.029 -14.026 -24.296  0.00  0.00    +0.191 C 
ATOM     16  C   UNL     1      32.448 -12.310 -22.502  0.00  0.00    +0.110 C 
ATOM     17  C   UNL     1      32.441 -12.695 -23.937  0.00  0.00    +0.236 C 
ENDROOT
BRANCH  16  20
ATOM     18  O   UNL     1      31.194 -11.001 -21.008  0.00  0.00    -0.270 OA
ATOM     19  N   UNL     1      32.340  -9.948 -22.745  0.00  0.00    -0.297 N 
ATOM     20  C   UNL     1      31.925 -11.040 -21.999  0.00  0.00    +0.251 C 
ATOM     21  H   UNL     1      32.926 -10.109 -23.519  0.00  0.00    +0.150 HD
BRANCH  19  22
ATOM     22  C   UNL     1      31.956  -8.587 -22.448  0.00  0.00    +0.119 C 
BRANCH  22  25
ATOM     23  F   UNL     1      31.270  -8.143 -25.156  0.00  0.00    -0.204 F 
ATOM     24  F   UNL     1      34.641  -4.871 -25.715  0.00  0.00    -0.204 F 
ATOM     25  C   UNL     1      32.671  -7.597 -23.320  0.00  0.00    +0.025 C 
ATOM     26  C   UNL     1      32.281  -7.427 -24.649  0.00  0.00    +0.140 C 
ATOM     27  C   UNL     1      33.725  -6.846 -22.799  0.00  0.00    +0.002 C 
ATOM     28  C   UNL     1      32.948  -6.506 -25.458  0.00  0.00    +0.059 C 
ATOM     29  C   UNL     1      34.390  -5.924 -23.609  0.00  0.00    +0.030 C 
ATOM     30  C   UNL     1      34.002  -5.755 -24.938  0.00  0.00    +0.142 C 
ENDBRANCH  22  25
ENDBRANCH  19  22
ENDBRANCH  16  20
BRANCH  15  31
ATOM     31  O   UNL     1      33.014 -14.381 -25.626  0.00  0.00    -0.502 OA
ATOM     32  H   UNL     1      32.404 -15.022 -25.934  0.00  0.00    +0.292 HD
ENDBRANCH  15  31
TORSDOF 4
ENDMDL
MODEL 8
REMARK VINA RESULT:      -9.8      1.660      2.261
REMARK  Name = 54726191
REMARK  4 active torsions:
REMARK  status: ('A' for Active; 'I' for Inactive)
REMARK    1  A    between atoms: C_15  and  O_31
REMARK    2  A    between atoms: C_16  and  C_20
REMARK    3  A    between atoms: N_19  and  C_22
REMARK    4  A    between atoms: C_22  and  C_25
REMARK                            x       y       z     vdW  Elec       q    Type
REMARK                         _______ _______ _______ _____ _____    ______ ____
ROOT
ATOM      1  O   UNL     1      35.575 -23.055 -13.440  0.00  0.00    -0.336 OA
ATOM      2  O   UNL     1      31.804 -23.683 -16.170  0.00  0.00    -0.268 OA
ATOM      3  O   UNL     1      32.772 -20.491 -20.016  0.00  0.00    -0.283 OA
ATOM      4  N   UNL     1      33.531 -23.193 -14.708  0.00  0.00    -0.253 N 
ATOM      5  N   UNL     1      34.840 -21.833 -16.799  0.00  0.00    -0.275 N 
ATOM      6  C   UNL     1      34.758 -22.435 -14.441  0.00  0.00    +0.215 C 
ATOM      7  C   UNL     1      32.814 -23.777 -13.560  0.00  0.00    +0.080 C 
ATOM      8  C   UNL     1      33.783 -24.324 -12.511  0.00  0.00    +0.052 C 
ATOM      9  C   UNL     1      35.620 -22.365 -15.691  0.00  0.00    +0.147 C 
ATOM     10  C   UNL     1      34.886 -23.323 -12.227  0.00  0.00    +0.146 C 
ATOM     11  C   UNL     1      32.862 -23.098 -15.936  0.00  0.00    +0.267 C 
ATOM     12  C   UNL     1      33.505 -22.208 -16.974  0.00  0.00    +0.143 C 
ATOM     13  C   UNL     1      31.846 -22.753 -12.955  0.00  0.00    +0.022 C 
ATOM     14  C   UNL     1      35.442 -21.025 -17.754  0.00  0.00    +0.074 C 
ATOM     15  C   UNL     1      32.764 -21.791 -18.025  0.00  0.00    +0.191 C 
ATOM     16  C   UNL     1      34.831 -20.541 -18.842  0.00  0.00    +0.110 C 
ATOM     17  C   UNL     1      33.404 -20.902 -19.047  0.00  0.00    +0.236 C 
ENDROOT
BRANCH  16  20
ATOM     18  O   UNL     1      36.811 -19.843 -19.895  0.00  0.00    -0.270 OA
ATOM     19  N   UNL     1      34.812 -18.761 -20.416  0.00  0.00    -0.297 N 
ATOM     20  C   UNL     1      35.596 -19.696 -19.759  0.00  0.00    +0.251 C 
ATOM     21  H   UNL     1      33.848 -18.742 -20.221  0.00  0.00    +0.150 HD
BRANCH  19  22
ATOM     22  C   UNL     1      35.337 -17.812 -21.371  0.00  0.00    +0.119 C 
BRANCH  22  25
ATOM     23  F   UNL     1      34.540 -15.144 -21.873  0.00  0.00    -0.204 F 
ATOM     24  F   UNL     1      31.535 -16.440 -25.290  0.00  0.00    -0.204 F 
ATOM     25  C   UNL     1      34.324 -17.445 -22.415  0.00  0.00    +0.025 C 
ATOM     26  C   UNL     1      33.975 -16.108 -22.612  0.00  0.00    +0.140 C 
ATOM     27  C   UNL     1      33.731 -18.442 -23.190  0.00  0.00    +0.002 C 
ATOM     28  C   UNL     1      33.033 -15.769 -23.583  0.00  0.00    +0.059 C 
ATOM     29  C   UNL     1      32.789 -18.102 -24.161  0.00  0.00    +0.030 C 
ATOM     30  C   UNL     1      32.439 -16.766 -24.358  0.00  0.00    +0.142 C 
ENDBRANCH  22  25
ENDBRANCH  19  22
ENDBRANCH  16  20
BRANCH  15  31
ATOM     31  O   UNL     1      31.441 -22.118 -18.216  0.00  0.00    -0.502 OA
ATOM     32  H   UNL     1      31.205 -22.771 -18.844  0.00  0.00    +0.292 HD
ENDBRANCH  15  31
TORSDOF 4
ENDMDL
MODEL 9
REMARK VINA RESULT:      -9.7      8.560     14.601
REMARK  Name = 54726191
REMARK  4 active torsions:
REMARK  status: ('A' for Active; 'I' for Inactive)
REMARK    1  A    between atoms: C_15  and  O_31
REMARK    2  A    between atoms: C_16  and  C_20
REMARK    3  A    between atoms: N_19  and  C_22
REMARK    4  A    between atoms: C_22  and  C_25
REMARK                            x       y       z     vdW  Elec       q    Type
REMARK                         _______ _______ _______ _____ _____    ______ ____
ROOT
ATOM      1  O   UNL     1      31.292  -6.326 -25.914  0.00  0.00    -0.336 OA
ATOM      2  O   UNL     1      31.176  -3.670 -22.041  0.00  0.00    -0.268 OA
ATOM      3  O   UNL     1      30.629  -7.183 -18.398  0.00  0.00    -0.283 OA
ATOM      4  N   UNL     1      30.983  -4.951 -23.961  0.00  0.00    -0.253 N 
ATOM      5  N   UNL     1      31.340  -7.260 -22.387  0.00  0.00    -0.275 N 
ATOM      6  C   UNL     1      30.832  -6.282 -24.558  0.00  0.00    +0.215 C 
ATOM      7  C   UNL     1      30.659  -3.777 -24.791  0.00  0.00    +0.080 C 
ATOM      8  C   UNL     1      31.112  -3.971 -26.239  0.00  0.00    +0.052 C 
ATOM      9  C   UNL     1      31.671  -7.300 -23.804  0.00  0.00    +0.147 C 
ATOM     10  C   UNL     1      30.703  -5.339 -26.750  0.00  0.00    +0.146 C 
ATOM     11  C   UNL     1      31.098  -4.777 -22.574  0.00  0.00    +0.267 C 
ATOM     12  C   UNL     1      31.101  -6.041 -21.746  0.00  0.00    +0.143 C 
ATOM     13  C   UNL     1      29.162  -3.456 -24.706  0.00  0.00    +0.022 C 
ATOM     14  C   UNL     1      31.356  -8.424 -21.632  0.00  0.00    +0.074 C 
ATOM     15  C   UNL     1      30.857  -5.952 -20.420  0.00  0.00    +0.191 C 
ATOM     16  C   UNL     1      31.132  -8.485 -20.314  0.00  0.00    +0.110 C 
ATOM     17  C   UNL     1      30.853  -7.210 -19.604  0.00  0.00    +0.236 C 
ENDROOT
BRANCH  16  20
ATOM     18  O   UNL     1      31.300  -9.880 -18.431  0.00  0.00    -0.270 OA
ATOM     19  N   UNL     1      31.069 -10.850 -20.539  0.00  0.00    -0.297 N 
ATOM     20  C   UNL     1      31.177  -9.789 -19.653  0.00  0.00    +0.251 C 
ATOM     21  H   UNL     1      30.975 -10.648 -21.498  0.00  0.00    +0.150 HD
BRANCH  19  22
ATOM     22  C   UNL     1      31.088 -12.235 -20.128  0.00  0.00    +0.119 C 
BRANCH  22  25
ATOM     23  F   UNL     1      32.396 -14.524 -19.100  0.00  0.00    -0.204 F 
ATOM     24  F   UNL     1      34.760 -15.270 -23.130  0.00  0.00    -0.204 F 
ATOM     25  C   UNL     1      32.067 -13.045 -20.927  0.00  0.00    +0.025 C 
ATOM     26  C   UNL     1      32.678 -14.164 -20.359  0.00  0.00    +0.140 C 
ATOM     27  C   UNL     1      32.366 -12.679 -22.240  0.00  0.00    +0.002 C 
ATOM     28  C   UNL     1      33.587 -14.915 -21.104  0.00  0.00    +0.059 C 
ATOM     29  C   UNL     1      33.276 -13.431 -22.984  0.00  0.00    +0.030 C 
ATOM     30  C   UNL     1      33.887 -14.548 -22.416  0.00  0.00    +0.142 C 
ENDBRANCH  22  25
ENDBRANCH  19  22
ENDBRANCH  16  20
BRANCH  15  31
ATOM     31  O   UNL     1      30.591  -4.774 -19.759  0.00  0.00    -0.502 OA
ATOM     32  H   UNL     1      30.575  -4.755 -18.823  0.00  0.00    +0.292 HD
ENDBRANCH  15  31
TORSDOF 4
ENDMDL
