MODEL 1
REMARK VINA RESULT:     -11.5      0.000      0.000
REMARK  Name = 52913524
REMARK  9 active torsions:
REMARK  status: ('A' for Active; 'I' for Inactive)
REMARK    1  A    between atoms: C_1  and  C_10
REMARK    2  A    between atoms: C_4  and  C_24
REMARK    3  A    between atoms: C_5  and  C_22
REMARK    4  A    between atoms: C_8  and  O_13
REMARK    5  A    between atoms: C_9  and  O_15
REMARK    6  A    between atoms: C_11  and  O_17
REMARK    7  A    between atoms: C_12  and  C_19
REMARK    8  A    between atoms: C_19  and  O_20
REMARK    9  A    between atoms: C_24  and  C_27
REMARK                            x       y       z     vdW  Elec       q    Type
REMARK                         _______ _______ _______ _____ _____    ______ ____
ROOT
ATOM      1  C   UNL     1      33.142 -23.661 -13.934  0.00  0.00    +0.007 C 
ATOM      2  C   UNL     1      33.056 -23.532 -15.320  0.00  0.00    -0.006 C 
ATOM      3  C   UNL     1      32.064 -23.290 -13.130  0.00  0.00    -0.002 C 
ATOM      4  C   UNL     1      31.891 -23.030 -15.902  0.00  0.00    -0.022 C 
ATOM      5  C   UNL     1      30.813 -22.658 -15.098  0.00  0.00    -0.026 C 
ATOM      6  C   UNL     1      30.900 -22.788 -13.712  0.00  0.00    -0.005 C 
ENDROOT
BRANCH   1  10
ATOM      7  O   UNL     1      35.092 -23.113 -12.685  0.00  0.00    -0.347 OA
ATOM      8  C   UNL     1      35.307 -24.908 -14.330  0.00  0.00    +0.171 C 
ATOM      9  C   UNL     1      36.647 -25.308 -13.704  0.00  0.00    +0.169 C 
ATOM     10  C   UNL     1      34.407 -24.208 -13.301  0.00  0.00    +0.167 C 
ATOM     11  C   UNL     1      37.272 -24.144 -12.937  0.00  0.00    +0.169 C 
ATOM     12  C   UNL     1      36.260 -23.523 -11.972  0.00  0.00    +0.174 C 
BRANCH   8  13
ATOM     13  O   UNL     1      34.644 -26.081 -14.797  0.00  0.00    -0.379 OA
ATOM     14  H   UNL     1      34.399 -26.638 -14.041  0.00  0.00    +0.211 HD
ENDBRANCH   8  13
BRANCH   9  15
ATOM     15  O   UNL     1      37.556 -25.696 -14.735  0.00  0.00    -0.379 OA
ATOM     16  H   UNL     1      38.413 -25.922 -14.342  0.00  0.00    +0.211 HD
ENDBRANCH   9  15
BRANCH  11  17
ATOM     17  O   UNL     1      38.396 -24.616 -12.198  0.00  0.00    -0.379 OA
ATOM     18  H   UNL     1      39.131 -23.990 -12.294  0.00  0.00    +0.211 HD
ENDBRANCH  11  17
BRANCH  12  19
ATOM     19  C   UNL     1      36.826 -22.288 -11.276  0.00  0.00    +0.169 C 
BRANCH  19  20
ATOM     20  O   UNL     1      36.360 -22.271  -9.940  0.00  0.00    -0.379 OA
ATOM     21  H   UNL     1      36.984 -22.752  -9.373  0.00  0.00    +0.211 HD
ENDBRANCH  19  20
ENDBRANCH  12  19
ENDBRANCH   1  10
BRANCH   5  22
ATOM     22  C   UNL     1      29.557 -22.118 -15.698  0.00  0.00    +0.026 C 
ATOM     23  C   UNL     1      28.318 -22.516 -14.904  0.00  0.00    +0.005 C 
ENDBRANCH   5  22
BRANCH   4  24
ATOM     24  C   UNL     1      31.822 -22.899 -17.388  0.00  0.00    +0.052 C 
BRANCH  24  27
ATOM     25  O   UNL     1      33.253 -19.498 -20.578  0.00  0.00    -0.468 OA
ATOM     26  O   UNL     1      35.934 -19.627 -19.526  0.00  0.00    -0.468 OA
ATOM     27  C   UNL     1      32.910 -22.026 -17.978  0.00  0.00    -0.015 C 
ATOM     28  C   UNL     1      32.605 -21.136 -19.008  0.00  0.00    +0.036 C 
ATOM     29  C   UNL     1      34.216 -22.116 -17.495  0.00  0.00    -0.001 C 
ATOM     30  C   UNL     1      33.610 -20.338 -19.555  0.00  0.00    +0.172 C 
ATOM     31  C   UNL     1      34.911 -20.408 -19.053  0.00  0.00    +0.172 C 
ATOM     32  C   UNL     1      35.218 -21.309 -18.032  0.00  0.00    +0.040 C 
ATOM     33  C   UNL     1      34.394 -18.999 -21.281  0.00  0.00    +0.253 C 
ATOM     34  C   UNL     1      35.450 -18.527 -20.300  0.00  0.00    +0.253 C 
ENDBRANCH  24  27
ENDBRANCH   4  24
TORSDOF 9
ENDMDL
MODEL 2
REMARK VINA RESULT:     -11.4      0.960      2.362
REMARK  Name = 52913524
REMARK  9 active torsions:
REMARK  status: ('A' for Active; 'I' for Inactive)
REMARK    1  A    between atoms: C_1  and  C_10
REMARK    2  A    between atoms: C_4  and  C_24
REMARK    3  A    between atoms: C_5  and  C_22
REMARK    4  A    between atoms: C_8  and  O_13
REMARK    5  A    between atoms: C_9  and  O_15
REMARK    6  A    between atoms: C_11  and  O_17
REMARK    7  A    between atoms: C_12  and  C_19
REMARK    8  A    between atoms: C_19  and  O_20
REMARK    9  A    between atoms: C_24  and  C_27
REMARK                            x       y       z     vdW  Elec       q    Type
REMARK                         _______ _______ _______ _____ _____    ______ ____
ROOT
ATOM      1  C   UNL     1      33.502 -23.505 -14.084  0.00  0.00    +0.007 C 
ATOM      2  C   UNL     1      33.194 -23.189 -15.407  0.00  0.00    -0.006 C 
ATOM      3  C   UNL     1      32.501 -23.499 -13.113  0.00  0.00    -0.002 C 
ATOM      4  C   UNL     1      31.883 -22.868 -15.759  0.00  0.00    -0.022 C 
ATOM      5  C   UNL     1      30.881 -22.862 -14.788  0.00  0.00    -0.026 C 
ATOM      6  C   UNL     1      31.190 -23.178 -13.465  0.00  0.00    -0.005 C 
ENDROOT
BRANCH   1  10
ATOM      7  O   UNL     1      35.180 -25.191 -14.147  0.00  0.00    -0.347 OA
ATOM      8  C   UNL     1      35.164 -23.729 -12.188  0.00  0.00    +0.171 C 
ATOM      9  C   UNL     1      36.556 -24.240 -11.807  0.00  0.00    +0.169 C 
ATOM     10  C   UNL     1      34.927 -23.855 -13.701  0.00  0.00    +0.167 C 
ATOM     11  C   UNL     1      36.834 -25.610 -12.424  0.00  0.00    +0.169 C 
ATOM     12  C   UNL     1      36.530 -25.603 -13.923  0.00  0.00    +0.174 C 
BRANCH   8  13
ATOM     13  O   UNL     1      35.057 -22.354 -11.821  0.00  0.00    -0.379 OA
ATOM     14  H   UNL     1      34.516 -21.885 -12.476  0.00  0.00    +0.211 HD
ENDBRANCH   8  13
BRANCH   9  15
ATOM     15  O   UNL     1      36.641 -24.370 -10.387  0.00  0.00    -0.379 OA
ATOM     16  H   UNL     1      37.564 -24.525 -10.131  0.00  0.00    +0.211 HD
ENDBRANCH   9  15
BRANCH  11  17
ATOM     17  O   UNL     1      38.204 -25.947 -12.224  0.00  0.00    -0.379 OA
ATOM     18  H   UNL     1      38.604 -25.320 -11.601  0.00  0.00    +0.211 HD
ENDBRANCH  11  17
BRANCH  12  19
ATOM     19  C   UNL     1      36.693 -26.989 -14.540  0.00  0.00    +0.169 C 
BRANCH  19  20
ATOM     20  O   UNL     1      35.838 -27.085 -15.664  0.00  0.00    -0.379 OA
ATOM     21  H   UNL     1      35.477 -26.208 -15.871  0.00  0.00    +0.211 HD
ENDBRANCH  19  20
ENDBRANCH  12  19
ENDBRANCH   1  10
BRANCH   5  22
ATOM     22  C   UNL     1      29.471 -22.520 -15.141  0.00  0.00    +0.026 C 
ATOM     23  C   UNL     1      28.475 -23.540 -14.598  0.00  0.00    +0.005 C 
ENDBRANCH   5  22
BRANCH   4  24
ATOM     24  C   UNL     1      31.576 -22.533 -17.182  0.00  0.00    +0.052 C 
BRANCH  24  27
ATOM     25  O   UNL     1      33.079 -19.455 -20.654  0.00  0.00    -0.468 OA
ATOM     26  O   UNL     1      35.807 -19.789 -19.780  0.00  0.00    -0.468 OA
ATOM     27  C   UNL     1      32.694 -21.800 -17.894  0.00  0.00    -0.015 C 
ATOM     28  C   UNL     1      32.399 -20.939 -18.951  0.00  0.00    +0.036 C 
ATOM     29  C   UNL     1      34.018 -21.992 -17.497  0.00  0.00    -0.001 C 
ATOM     30  C   UNL     1      33.431 -20.271 -19.610  0.00  0.00    +0.172 C 
ATOM     31  C   UNL     1      34.753 -20.442 -19.194  0.00  0.00    +0.172 C 
ATOM     32  C   UNL     1      35.049 -21.314 -18.147  0.00  0.00    +0.040 C 
ATOM     33  C   UNL     1      34.208 -19.105 -21.460  0.00  0.00    +0.253 C 
ATOM     34  C   UNL     1      35.371 -18.689 -20.583  0.00  0.00    +0.253 C 
ENDBRANCH  24  27
ENDBRANCH   4  24
TORSDOF 9
ENDMDL
MODEL 3
REMARK VINA RESULT:     -10.3      2.616      7.082
REMARK  Name = 52913524
REMARK  9 active torsions:
REMARK  status: ('A' for Active; 'I' for Inactive)
REMARK    1  A    between atoms: C_1  and  C_10
REMARK    2  A    between atoms: C_4  and  C_24
REMARK    3  A    between atoms: C_5  and  C_22
REMARK    4  A    between atoms: C_8  and  O_13
REMARK    5  A    between atoms: C_9  and  O_15
REMARK    6  A    between atoms: C_11  and  O_17
REMARK    7  A    between atoms: C_12  and  C_19
REMARK    8  A    between atoms: C_19  and  O_20
REMARK    9  A    between atoms: C_24  and  C_27
REMARK                            x       y       z     vdW  Elec       q    Type
REMARK                         _______ _______ _______ _____ _____    ______ ____
ROOT
ATOM      1  C   UNL     1      32.745 -22.610 -16.728  0.00  0.00    +0.007 C 
ATOM      2  C   UNL     1      34.013 -22.418 -16.179  0.00  0.00    -0.006 C 
ATOM      3  C   UNL     1      32.455 -22.124 -18.003  0.00  0.00    -0.002 C 
ATOM      4  C   UNL     1      34.991 -21.738 -16.905  0.00  0.00    -0.022 C 
ATOM      5  C   UNL     1      34.701 -21.251 -18.181  0.00  0.00    -0.026 C 
ATOM      6  C   UNL     1      33.434 -21.445 -18.729  0.00  0.00    -0.005 C 
ENDROOT
BRANCH   1  10
ATOM      7  O   UNL     1      30.455 -22.629 -16.082  0.00  0.00    -0.347 OA
ATOM      8  C   UNL     1      32.063 -23.493 -14.457  0.00  0.00    +0.171 C 
ATOM      9  C   UNL     1      30.909 -24.098 -13.651  0.00  0.00    +0.169 C 
ATOM     10  C   UNL     1      31.683 -23.350 -15.939  0.00  0.00    +0.167 C 
ATOM     11  C   UNL     1      29.591 -23.383 -13.946  0.00  0.00    +0.169 C 
ATOM     12  C   UNL     1      29.352 -23.284 -15.454  0.00  0.00    +0.174 C 
BRANCH   8  13
ATOM     13  O   UNL     1      33.199 -24.351 -14.357  0.00  0.00    -0.379 OA
ATOM     14  H   UNL     1      33.117 -25.074 -14.998  0.00  0.00    +0.211 HD
ENDBRANCH   8  13
BRANCH   9  15
ATOM     15  O   UNL     1      31.182 -23.962 -12.256  0.00  0.00    -0.379 OA
ATOM     16  H   UNL     1      30.375 -24.140 -11.749  0.00  0.00    +0.211 HD
ENDBRANCH   9  15
BRANCH  11  17
ATOM     17  O   UNL     1      28.519 -24.108 -13.348  0.00  0.00    -0.379 OA
ATOM     18  H   UNL     1      27.774 -23.507 -13.186  0.00  0.00    +0.211 HD
ENDBRANCH  11  17
BRANCH  12  19
ATOM     19  C   UNL     1      28.097 -22.477 -15.776  0.00  0.00    +0.169 C 
BRANCH  19  20
ATOM     20  O   UNL     1      27.719 -21.753 -14.620  0.00  0.00    -0.379 OA
ATOM     21  H   UNL     1      26.756 -21.795 -14.513  0.00  0.00    +0.211 HD
ENDBRANCH  19  20
ENDBRANCH  12  19
ENDBRANCH   1  10
BRANCH   5  22
ATOM     22  C   UNL     1      35.731 -20.520 -18.977  0.00  0.00    +0.026 C 
ATOM     23  C   UNL     1      35.111 -19.630 -20.049  0.00  0.00    +0.005 C 
ENDBRANCH   5  22
BRANCH   4  24
ATOM     24  C   UNL     1      36.341 -21.543 -16.297  0.00  0.00    +0.052 C 
BRANCH  24  27
ATOM     25  O   UNL     1      35.366 -22.837 -11.697  0.00  0.00    -0.468 OA
ATOM     26  O   UNL     1      37.357 -24.917 -11.851  0.00  0.00    -0.468 OA
ATOM     27  C   UNL     1      36.606 -22.428 -15.097  0.00  0.00    -0.015 C 
ATOM     28  C   UNL     1      35.864 -22.256 -13.929  0.00  0.00    +0.036 C 
ATOM     29  C   UNL     1      37.596 -23.409 -15.159  0.00  0.00    -0.001 C 
ATOM     30  C   UNL     1      36.115 -23.067 -12.822  0.00  0.00    +0.172 C 
ATOM     31  C   UNL     1      37.086 -24.067 -12.893  0.00  0.00    +0.172 C 
ATOM     32  C   UNL     1      37.838 -24.229 -14.057  0.00  0.00    +0.040 C 
ATOM     33  C   UNL     1      35.930 -23.468 -10.543  0.00  0.00    +0.253 C 
ATOM     34  C   UNL     1      36.322 -24.896 -10.865  0.00  0.00    +0.253 C 
ENDBRANCH  24  27
ENDBRANCH   4  24
TORSDOF 9
ENDMDL
MODEL 4
REMARK VINA RESULT:     -10.3      2.488      5.765
REMARK  Name = 52913524
REMARK  9 active torsions:
REMARK  status: ('A' for Active; 'I' for Inactive)
REMARK    1  A    between atoms: C_1  and  C_10
REMARK    2  A    between atoms: C_4  and  C_24
REMARK    3  A    between atoms: C_5  and  C_22
REMARK    4  A    between atoms: C_8  and  O_13
REMARK    5  A    between atoms: C_9  and  O_15
REMARK    6  A    between atoms: C_11  and  O_17
REMARK    7  A    between atoms: C_12  and  C_19
REMARK    8  A    between atoms: C_19  and  O_20
REMARK    9  A    between atoms: C_24  and  C_27
REMARK                            x       y       z     vdW  Elec       q    Type
REMARK                         _______ _______ _______ _____ _____    ______ ____
ROOT
ATOM      1  C   UNL     1      35.899 -22.430 -15.451  0.00  0.00    +0.007 C 
ATOM      2  C   UNL     1      34.604 -22.662 -15.916  0.00  0.00    -0.006 C 
ATOM      3  C   UNL     1      36.768 -21.621 -16.183  0.00  0.00    -0.002 C 
ATOM      4  C   UNL     1      34.179 -22.086 -17.113  0.00  0.00    -0.022 C 
ATOM      5  C   UNL     1      35.049 -21.277 -17.845  0.00  0.00    -0.026 C 
ATOM      6  C   UNL     1      36.343 -21.045 -17.380  0.00  0.00    -0.005 C 
ENDROOT
BRANCH   1  10
ATOM      7  O   UNL     1      37.321 -24.067 -14.470  0.00  0.00    -0.347 OA
ATOM      8  C   UNL     1      35.190 -23.648 -13.350  0.00  0.00    +0.171 C 
ATOM      9  C   UNL     1      35.695 -24.413 -12.123  0.00  0.00    +0.169 C 
ATOM     10  C   UNL     1      36.360 -23.056 -14.150  0.00  0.00    +0.167 C 
ATOM     11  C   UNL     1      36.820 -25.379 -12.495  0.00  0.00    +0.169 C 
ATOM     12  C   UNL     1      37.900 -24.668 -13.311  0.00  0.00    +0.174 C 
BRANCH   8  13
ATOM     13  O   UNL     1      34.345 -22.583 -12.918  0.00  0.00    -0.379 OA
ATOM     14  H   UNL     1      33.558 -22.543 -13.484  0.00  0.00    +0.211 HD
ENDBRANCH   8  13
BRANCH   9  15
ATOM     15  O   UNL     1      34.624 -25.176 -11.565  0.00  0.00    -0.379 OA
ATOM     16  H   UNL     1      34.149 -25.634 -12.276  0.00  0.00    +0.211 HD
ENDBRANCH   9  15
BRANCH  11  17
ATOM     17  O   UNL     1      37.401 -25.905 -11.305  0.00  0.00    -0.379 OA
ATOM     18  H   UNL     1      38.365 -25.942 -11.405  0.00  0.00    +0.211 HD
ENDBRANCH  11  17
BRANCH  12  19
ATOM     19  C   UNL     1      38.978 -25.636 -13.788  0.00  0.00    +0.169 C 
BRANCH  19  20
ATOM     20  O   UNL     1      39.257 -25.365 -15.149  0.00  0.00    -0.379 OA
ATOM     21  H   UNL     1      39.580 -24.454 -15.238  0.00  0.00    +0.211 HD
ENDBRANCH  19  20
ENDBRANCH  12  19
ENDBRANCH   1  10
BRANCH   5  22
ATOM     22  C   UNL     1      34.617 -20.650 -19.130  0.00  0.00    +0.026 C 
ATOM     23  C   UNL     1      35.691 -19.743 -19.721  0.00  0.00    +0.005 C 
ENDBRANCH   5  22
BRANCH   4  24
ATOM     24  C   UNL     1      32.789 -22.349 -17.591  0.00  0.00    +0.052 C 
BRANCH  24  27
ATOM     25  O   UNL     1      31.813 -24.438 -13.293  0.00  0.00    -0.468 OA
ATOM     26  O   UNL     1      29.087 -23.515 -13.453  0.00  0.00    -0.468 OA
ATOM     27  C   UNL     1      31.811 -22.679 -16.482  0.00  0.00    -0.015 C 
ATOM     28  C   UNL     1      32.241 -23.401 -15.368  0.00  0.00    +0.036 C 
ATOM     29  C   UNL     1      30.482 -22.265 -16.577  0.00  0.00    -0.001 C 
ATOM     30  C   UNL     1      31.337 -23.709 -14.351  0.00  0.00    +0.172 C 
ATOM     31  C   UNL     1      30.014 -23.272 -14.434  0.00  0.00    +0.172 C 
ATOM     32  C   UNL     1      29.582 -22.562 -15.555  0.00  0.00    +0.040 C 
ATOM     33  C   UNL     1      30.754 -24.986 -12.502  0.00  0.00    +0.253 C 
ATOM     34  C   UNL     1      29.702 -23.928 -12.231  0.00  0.00    +0.253 C 
ENDBRANCH  24  27
ENDBRANCH   4  24
TORSDOF 9
ENDMDL
MODEL 5
REMARK VINA RESULT:     -10.0     10.448     14.298
REMARK  Name = 52913524
REMARK  9 active torsions:
REMARK  status: ('A' for Active; 'I' for Inactive)
REMARK    1  A    between atoms: C_1  and  C_10
REMARK    2  A    between atoms: C_4  and  C_24
REMARK    3  A    between atoms: C_5  and  C_22
REMARK    4  A    between atoms: C_8  and  O_13
REMARK    5  A    between atoms: C_9  and  O_15
REMARK    6  A    between atoms: C_11  and  O_17
REMARK    7  A    between atoms: C_12  and  C_19
REMARK    8  A    between atoms: C_19  and  O_20
REMARK    9  A    between atoms: C_24  and  C_27
REMARK                            x       y       z     vdW  Elec       q    Type
REMARK                         _______ _______ _______ _____ _____    ______ ____
ROOT
ATOM      1  C   UNL     1      32.111 -12.320 -21.420  0.00  0.00    +0.007 C 
ATOM      2  C   UNL     1      31.641 -11.098 -21.902  0.00  0.00    -0.006 C 
ATOM      3  C   UNL     1      31.823 -12.711 -20.113  0.00  0.00    -0.002 C 
ATOM      4  C   UNL     1      30.883 -10.268 -21.076  0.00  0.00    -0.022 C 
ATOM      5  C   UNL     1      30.595 -10.659 -19.768  0.00  0.00    -0.026 C 
ATOM      6  C   UNL     1      31.065 -11.881 -19.287  0.00  0.00    -0.005 C 
ENDROOT
BRANCH   1  10
ATOM      7  O   UNL     1      32.191 -13.429 -23.524  0.00  0.00    -0.347 OA
ATOM      8  C   UNL     1      33.260 -14.563 -21.641  0.00  0.00    +0.171 C 
ATOM      9  C   UNL     1      33.950 -15.518 -22.621  0.00  0.00    +0.169 C 
ATOM     10  C   UNL     1      32.933 -13.223 -22.318  0.00  0.00    +0.167 C 
ATOM     11  C   UNL     1      33.195 -15.595 -23.947  0.00  0.00    +0.169 C 
ATOM     12  C   UNL     1      32.910 -14.194 -24.493  0.00  0.00    +0.174 C 
BRANCH   8  13
ATOM     13  O   UNL     1      34.132 -14.318 -20.539  0.00  0.00    -0.379 OA
ATOM     14  H   UNL     1      34.558 -13.454 -20.648  0.00  0.00    +0.211 HD
ENDBRANCH   8  13
BRANCH   9  15
ATOM     15  O   UNL     1      33.988 -16.830 -22.057  0.00  0.00    -0.379 OA
ATOM     16  H   UNL     1      34.905 -17.145 -22.034  0.00  0.00    +0.211 HD
ENDBRANCH   9  15
BRANCH  11  17
ATOM     17  O   UNL     1      33.979 -16.317 -24.893  0.00  0.00    -0.379 OA
ATOM     18  H   UNL     1      34.450 -17.035 -24.442  0.00  0.00    +0.211 HD
ENDBRANCH  11  17
BRANCH  12  19
ATOM     19  C   UNL     1      32.060 -14.243 -25.759  0.00  0.00    +0.169 C 
BRANCH  19  20
ATOM     20  O   UNL     1      31.456 -15.519 -25.847  0.00  0.00    -0.379 OA
ATOM     21  H   UNL     1      30.746 -15.587 -25.189  0.00  0.00    +0.211 HD
ENDBRANCH  19  20
ENDBRANCH  12  19
ENDBRANCH   1  10
BRANCH   5  22
ATOM     22  C   UNL     1      29.787  -9.787 -18.866  0.00  0.00    +0.026 C 
ATOM     23  C   UNL     1      30.629  -8.701 -18.204  0.00  0.00    +0.005 C 
ENDBRANCH   5  22
BRANCH   4  24
ATOM     24  C   UNL     1      30.391  -8.964 -21.614  0.00  0.00    +0.052 C 
BRANCH  24  27
ATOM     25  O   UNL     1      32.422  -6.789 -25.478  0.00  0.00    -0.468 OA
ATOM     26  O   UNL     1      34.476  -5.680 -23.785  0.00  0.00    -0.468 OA
ATOM     27  C   UNL     1      31.480  -8.098 -22.213  0.00  0.00    -0.015 C 
ATOM     28  C   UNL     1      31.469  -7.811 -23.578  0.00  0.00    +0.036 C 
ATOM     29  C   UNL     1      32.496  -7.593 -21.400  0.00  0.00    -0.001 C 
ATOM     30  C   UNL     1      32.476  -7.019 -24.128  0.00  0.00    +0.172 C 
ATOM     31  C   UNL     1      33.477  -6.491 -23.310  0.00  0.00    +0.172 C 
ATOM     32  C   UNL     1      33.496  -6.790 -21.948  0.00  0.00    +0.040 C 
ATOM     33  C   UNL     1      33.659  -6.276 -25.982  0.00  0.00    +0.253 C 
ATOM     34  C   UNL     1      34.171  -5.167 -25.084  0.00  0.00    +0.253 C 
ENDBRANCH  24  27
ENDBRANCH   4  24
TORSDOF 9
ENDMDL
MODEL 6
REMARK VINA RESULT:      -9.8     11.509     16.680
REMARK  Name = 52913524
REMARK  9 active torsions:
REMARK  status: ('A' for Active; 'I' for Inactive)
REMARK    1  A    between atoms: C_1  and  C_10
REMARK    2  A    between atoms: C_4  and  C_24
REMARK    3  A    between atoms: C_5  and  C_22
REMARK    4  A    between atoms: C_8  and  O_13
REMARK    5  A    between atoms: C_9  and  O_15
REMARK    6  A    between atoms: C_11  and  O_17
REMARK    7  A    between atoms: C_12  and  C_19
REMARK    8  A    between atoms: C_19  and  O_20
REMARK    9  A    between atoms: C_24  and  C_27
REMARK                            x       y       z     vdW  Elec       q    Type
REMARK                         _______ _______ _______ _____ _____    ______ ____
ROOT
ATOM      1  C   UNL     1      33.055 -10.611 -23.481  0.00  0.00    +0.007 C 
ATOM      2  C   UNL     1      32.331  -9.740 -22.667  0.00  0.00    -0.006 C 
ATOM      3  C   UNL     1      34.216 -10.169 -24.117  0.00  0.00    -0.002 C 
ATOM      4  C   UNL     1      32.767  -8.427 -22.490  0.00  0.00    -0.022 C 
ATOM      5  C   UNL     1      33.927  -7.985 -23.127  0.00  0.00    -0.026 C 
ATOM      6  C   UNL     1      34.651  -8.856 -23.940  0.00  0.00    -0.005 C 
ENDROOT
BRANCH   1  10
ATOM      7  O   UNL     1      33.408 -12.882 -22.864  0.00  0.00    -0.347 OA
ATOM      8  C   UNL     1      32.638 -12.470 -25.146  0.00  0.00    +0.171 C 
ATOM      9  C   UNL     1      32.311 -13.959 -25.295  0.00  0.00    +0.169 C 
ATOM     10  C   UNL     1      32.582 -12.039 -23.673  0.00  0.00    +0.167 C 
ATOM     11  C   UNL     1      33.116 -14.806 -24.310  0.00  0.00    +0.169 C 
ATOM     12  C   UNL     1      32.996 -14.250 -22.890  0.00  0.00    +0.174 C 
BRANCH   8  13
ATOM     13  O   UNL     1      31.682 -11.709 -25.883  0.00  0.00    -0.379 OA
ATOM     14  H   UNL     1      30.937 -11.479 -25.306  0.00  0.00    +0.211 HD
ENDBRANCH   8  13
BRANCH   9  15
ATOM     15  O   UNL     1      32.640 -14.387 -26.618  0.00  0.00    -0.379 OA
ATOM     16  H   UNL     1      32.990 -13.637 -27.123  0.00  0.00    +0.211 HD
ENDBRANCH   9  15
BRANCH  11  17
ATOM     17  O   UNL     1      32.629 -16.145 -24.333  0.00  0.00    -0.379 OA
ATOM     18  H   UNL     1      33.367 -16.755 -24.486  0.00  0.00    +0.211 HD
ENDBRANCH  11  17
BRANCH  12  19
ATOM     19  C   UNL     1      33.880 -15.012 -21.908  0.00  0.00    +0.169 C 
BRANCH  19  20
ATOM     20  O   UNL     1      34.922 -15.639 -22.632  0.00  0.00    -0.379 OA
ATOM     21  H   UNL     1      35.601 -14.982 -22.855  0.00  0.00    +0.211 HD
ENDBRANCH  19  20
ENDBRANCH  12  19
ENDBRANCH   1  10
BRANCH   5  22
ATOM     22  C   UNL     1      34.412  -6.584 -22.953  0.00  0.00    +0.026 C 
ATOM     23  C   UNL     1      34.196  -5.737 -24.203  0.00  0.00    +0.005 C 
ENDBRANCH   5  22
BRANCH   4  24
ATOM     24  C   UNL     1      31.974  -7.512 -21.615  0.00  0.00    +0.052 C 
BRANCH  24  27
ATOM     25  O   UNL     1      30.623  -2.846 -22.052  0.00  0.00    -0.468 OA
ATOM     26  O   UNL     1      29.253  -3.465 -24.512  0.00  0.00    -0.468 OA
ATOM     27  C   UNL     1      31.244  -6.421 -22.370  0.00  0.00    -0.015 C 
ATOM     28  C   UNL     1      31.263  -5.111 -21.890  0.00  0.00    +0.036 C 
ATOM     29  C   UNL     1      30.549  -6.728 -23.540  0.00  0.00    -0.001 C 
ATOM     30  C   UNL     1      30.584  -4.109 -22.583  0.00  0.00    +0.172 C 
ATOM     31  C   UNL     1      29.911  -4.411 -23.769  0.00  0.00    +0.172 C 
ATOM     32  C   UNL     1      29.881  -5.723 -24.241  0.00  0.00    +0.040 C 
ATOM     33  C   UNL     1      29.631  -1.993 -22.631  0.00  0.00    +0.253 C 
ATOM     34  C   UNL     1      29.633  -2.137 -24.140  0.00  0.00    +0.253 C 
ENDBRANCH  24  27
ENDBRANCH   4  24
TORSDOF 9
ENDMDL
MODEL 7
REMARK VINA RESULT:      -9.4      2.857      7.264
REMARK  Name = 52913524
REMARK  9 active torsions:
REMARK  status: ('A' for Active; 'I' for Inactive)
REMARK    1  A    between atoms: C_1  and  C_10
REMARK    2  A    between atoms: C_4  and  C_24
REMARK    3  A    between atoms: C_5  and  C_22
REMARK    4  A    between atoms: C_8  and  O_13
REMARK    5  A    between atoms: C_9  and  O_15
REMARK    6  A    between atoms: C_11  and  O_17
REMARK    7  A    between atoms: C_12  and  C_19
REMARK    8  A    between atoms: C_19  and  O_20
REMARK    9  A    between atoms: C_24  and  C_27
REMARK                            x       y       z     vdW  Elec       q    Type
REMARK                         _______ _______ _______ _____ _____    ______ ____
ROOT
ATOM      1  C   UNL     1      32.520 -23.060 -16.234  0.00  0.00    +0.007 C 
ATOM      2  C   UNL     1      33.630 -22.658 -15.490  0.00  0.00    -0.006 C 
ATOM      3  C   UNL     1      32.441 -22.751 -17.592  0.00  0.00    -0.002 C 
ATOM      4  C   UNL     1      34.660 -21.945 -16.105  0.00  0.00    -0.022 C 
ATOM      5  C   UNL     1      34.580 -21.636 -17.463  0.00  0.00    -0.026 C 
ATOM      6  C   UNL     1      33.472 -22.038 -18.207  0.00  0.00    -0.005 C 
ENDROOT
BRANCH   1  10
ATOM      7  O   UNL     1      30.168 -23.189 -15.897  0.00  0.00    -0.347 OA
ATOM      8  C   UNL     1      31.587 -23.915 -14.044  0.00  0.00    +0.171 C 
ATOM      9  C   UNL     1      30.368 -24.559 -13.376  0.00  0.00    +0.169 C 
ATOM     10  C   UNL     1      31.401 -23.835 -15.567  0.00  0.00    +0.167 C 
ATOM     11  C   UNL     1      29.066 -23.929 -13.868  0.00  0.00    +0.169 C 
ATOM     12  C   UNL     1      29.026 -23.886 -15.397  0.00  0.00    +0.174 C 
BRANCH   8  13
ATOM     13  O   UNL     1      32.742 -24.704 -13.764  0.00  0.00    -0.379 OA
ATOM     14  H   UNL     1      33.531 -24.257 -14.107  0.00  0.00    +0.211 HD
ENDBRANCH   8  13
BRANCH   9  15
ATOM     15  O   UNL     1      30.445 -24.368 -11.962  0.00  0.00    -0.379 OA
ATOM     16  H   UNL     1      29.566 -24.491 -11.572  0.00  0.00    +0.211 HD
ENDBRANCH   9  15
BRANCH  11  17
ATOM     17  O   UNL     1      27.963 -24.695 -13.391  0.00  0.00    -0.379 OA
ATOM     18  H   UNL     1      27.194 -24.545 -13.964  0.00  0.00    +0.211 HD
ENDBRANCH  11  17
BRANCH  12  19
ATOM     19  C   UNL     1      27.786 -23.161 -15.910  0.00  0.00    +0.169 C 
BRANCH  19  20
ATOM     20  O   UNL     1      26.900 -24.117 -16.461  0.00  0.00    -0.379 OA
ATOM     21  H   UNL     1      26.211 -24.331 -15.812  0.00  0.00    +0.211 HD
ENDBRANCH  19  20
ENDBRANCH  12  19
ENDBRANCH   1  10
BRANCH   5  22
ATOM     22  C   UNL     1      35.670 -20.873 -18.142  0.00  0.00    +0.026 C 
ATOM     23  C   UNL     1      35.240 -20.337 -19.504  0.00  0.00    +0.005 C 
ENDBRANCH   5  22
BRANCH   4  24
ATOM     24  C   UNL     1      35.837 -21.524 -15.288  0.00  0.00    +0.052 C 
BRANCH  24  27
ATOM     25  O   UNL     1      39.391 -24.847 -14.936  0.00  0.00    -0.468 OA
ATOM     26  O   UNL     1      38.307 -25.752 -12.422  0.00  0.00    -0.468 OA
ATOM     27  C   UNL     1      36.504 -22.661 -14.542  0.00  0.00    -0.015 C 
ATOM     28  C   UNL     1      37.660 -23.247 -15.056  0.00  0.00    +0.036 C 
ATOM     29  C   UNL     1      35.957 -23.125 -13.345  0.00  0.00    -0.001 C 
ATOM     30  C   UNL     1      38.268 -24.299 -14.371  0.00  0.00    +0.172 C 
ATOM     31  C   UNL     1      37.737 -24.745 -13.159  0.00  0.00    +0.172 C 
ATOM     32  C   UNL     1      36.572 -24.168 -12.652  0.00  0.00    +0.040 C 
ATOM     33  C   UNL     1      39.720 -26.110 -14.351  0.00  0.00    +0.253 C 
ATOM     34  C   UNL     1      39.647 -26.023 -12.840  0.00  0.00    +0.253 C 
ENDBRANCH  24  27
ENDBRANCH   4  24
TORSDOF 9
ENDMDL
MODEL 8
REMARK VINA RESULT:      -9.4      2.622      6.958
REMARK  Name = 52913524
REMARK  9 active torsions:
REMARK  status: ('A' for Active; 'I' for Inactive)
REMARK    1  A    between atoms: C_1  and  C_10
REMARK    2  A    between atoms: C_4  and  C_24
REMARK    3  A    between atoms: C_5  and  C_22
REMARK    4  A    between atoms: C_8  and  O_13
REMARK    5  A    between atoms: C_9  and  O_15
REMARK    6  A    between atoms: C_11  and  O_17
REMARK    7  A    between atoms: C_12  and  C_19
REMARK    8  A    between atoms: C_19  and  O_20
REMARK    9  A    between atoms: C_24  and  C_27
REMARK                            x       y       z     vdW  Elec       q    Type
REMARK                         _______ _______ _______ _____ _____    ______ ____
ROOT
ATOM      1  C   UNL     1      32.296 -22.303 -16.160  0.00  0.00    +0.007 C 
ATOM      2  C   UNL     1      33.622 -22.217 -15.735  0.00  0.00    -0.006 C 
ATOM      3  C   UNL     1      31.974 -22.055 -17.494  0.00  0.00    -0.002 C 
ATOM      4  C   UNL     1      34.625 -21.881 -16.645  0.00  0.00    -0.022 C 
ATOM      5  C   UNL     1      34.302 -21.632 -17.980  0.00  0.00    -0.026 C 
ATOM      6  C   UNL     1      32.977 -21.719 -18.404  0.00  0.00    -0.005 C 
ENDROOT
BRANCH   1  10
ATOM      7  O   UNL     1      31.706 -23.726 -14.346  0.00  0.00    -0.347 OA
ATOM      8  C   UNL     1      29.909 -23.092 -15.877  0.00  0.00    +0.171 C 
ATOM      9  C   UNL     1      28.880 -23.609 -14.868  0.00  0.00    +0.169 C 
ATOM     10  C   UNL     1      31.206 -22.669 -15.172  0.00  0.00    +0.167 C 
ATOM     11  C   UNL     1      29.499 -24.632 -13.917  0.00  0.00    +0.169 C 
ATOM     12  C   UNL     1      30.795 -24.095 -13.309  0.00  0.00    +0.174 C 
BRANCH   8  13
ATOM     13  O   UNL     1      29.367 -21.960 -16.556  0.00  0.00    -0.379 OA
ATOM     14  H   UNL     1      29.139 -21.273 -15.910  0.00  0.00    +0.211 HD
ENDBRANCH   8  13
BRANCH   9  15
ATOM     15  O   UNL     1      27.809 -24.246 -15.566  0.00  0.00    -0.379 OA
ATOM     16  H   UNL     1      28.129 -25.069 -15.968  0.00  0.00    +0.211 HD
ENDBRANCH   9  15
BRANCH  11  17
ATOM     17  O   UNL     1      28.575 -24.922 -12.871  0.00  0.00    -0.379 OA
ATOM     18  H   UNL     1      28.973 -24.695 -12.016  0.00  0.00    +0.211 HD
ENDBRANCH  11  17
BRANCH  12  19
ATOM     19  C   UNL     1      31.490 -25.141 -12.443  0.00  0.00    +0.169 C 
BRANCH  19  20
ATOM     20  O   UNL     1      32.738 -24.622 -12.023  0.00  0.00    -0.379 OA
ATOM     21  H   UNL     1      33.268 -25.332 -11.628  0.00  0.00    +0.211 HD
ENDBRANCH  19  20
ENDBRANCH  12  19
ENDBRANCH   1  10
BRANCH   5  22
ATOM     22  C   UNL     1      35.358 -21.271 -18.971  0.00  0.00    +0.026 C 
ATOM     23  C   UNL     1      34.940 -20.108 -19.865  0.00  0.00    +0.005 C 
ENDBRANCH   5  22
BRANCH   4  24
ATOM     24  C   UNL     1      36.037 -21.794 -16.167  0.00  0.00    +0.052 C 
BRANCH  24  27
ATOM     25  O   UNL     1      35.076 -22.983 -11.536  0.00  0.00    -0.468 OA
ATOM     26  O   UNL     1      37.129 -25.005 -11.620  0.00  0.00    -0.468 OA
ATOM     27  C   UNL     1      36.322 -22.636 -14.940  0.00  0.00    -0.015 C 
ATOM     28  C   UNL     1      35.568 -22.453 -13.781  0.00  0.00    +0.036 C 
ATOM     29  C   UNL     1      37.343 -23.588 -14.968  0.00  0.00    -0.001 C 
ATOM     30  C   UNL     1      35.837 -23.223 -12.650  0.00  0.00    +0.172 C 
ATOM     31  C   UNL     1      36.839 -24.195 -12.687  0.00  0.00    +0.172 C 
ATOM     32  C   UNL     1      37.603 -24.367 -13.842  0.00  0.00    +0.040 C 
ATOM     33  C   UNL     1      35.652 -23.563 -10.362  0.00  0.00    +0.253 C 
ATOM     34  C   UNL     1      36.088 -24.988 -10.640  0.00  0.00    +0.253 C 
ENDBRANCH  24  27
ENDBRANCH   4  24
TORSDOF 9
ENDMDL
MODEL 9
REMARK VINA RESULT:      -9.3     10.694     16.393
REMARK  Name = 52913524
REMARK  9 active torsions:
REMARK  status: ('A' for Active; 'I' for Inactive)
REMARK    1  A    between atoms: C_1  and  C_10
REMARK    2  A    between atoms: C_4  and  C_24
REMARK    3  A    between atoms: C_5  and  C_22
REMARK    4  A    between atoms: C_8  and  O_13
REMARK    5  A    between atoms: C_9  and  O_15
REMARK    6  A    between atoms: C_11  and  O_17
REMARK    7  A    between atoms: C_12  and  C_19
REMARK    8  A    between atoms: C_19  and  O_20
REMARK    9  A    between atoms: C_24  and  C_27
REMARK                            x       y       z     vdW  Elec       q    Type
REMARK                         _______ _______ _______ _____ _____    ______ ____
ROOT
ATOM      1  C   UNL     1      32.354  -7.977 -22.524  0.00  0.00    +0.007 C 
ATOM      2  C   UNL     1      32.001  -9.130 -23.226  0.00  0.00    -0.006 C 
ATOM      3  C   UNL     1      33.650  -7.470 -22.622  0.00  0.00    -0.002 C 
ATOM      4  C   UNL     1      32.944  -9.776 -24.026  0.00  0.00    -0.022 C 
ATOM      5  C   UNL     1      34.240  -9.269 -24.123  0.00  0.00    -0.026 C 
ATOM      6  C   UNL     1      34.593  -8.117 -23.422  0.00  0.00    -0.005 C 
ENDROOT
BRANCH   1  10
ATOM      7  O   UNL     1      31.092  -5.982 -22.222  0.00  0.00    -0.347 OA
ATOM      8  C   UNL     1      31.796  -7.155 -20.197  0.00  0.00    +0.171 C 
ATOM      9  C   UNL     1      30.822  -6.304 -19.377  0.00  0.00    +0.169 C 
ATOM     10  C   UNL     1      31.329  -7.275 -21.656  0.00  0.00    +0.167 C 
ATOM     11  C   UNL     1      30.490  -4.995 -20.092  0.00  0.00    +0.169 C 
ATOM     12  C   UNL     1      30.069  -5.257 -21.539  0.00  0.00    +0.174 C 
BRANCH   8  13
ATOM     13  O   UNL     1      31.863  -8.462 -19.629  0.00  0.00    -0.379 OA
ATOM     14  H   UNL     1      31.031  -8.932 -19.797  0.00  0.00    +0.211 HD
ENDBRANCH   8  13
BRANCH   9  15
ATOM     15  O   UNL     1      31.416  -5.982 -18.119  0.00  0.00    -0.379 OA
ATOM     16  H   UNL     1      31.593  -5.029 -18.080  0.00  0.00    +0.211 HD
ENDBRANCH   9  15
BRANCH  11  17
ATOM     17  O   UNL     1      29.426  -4.340 -19.405  0.00  0.00    -0.379 OA
ATOM     18  H   UNL     1      29.595  -3.385 -19.384  0.00  0.00    +0.211 HD
ENDBRANCH  11  17
BRANCH  12  19
ATOM     19  C   UNL     1      29.840  -3.958 -22.306  0.00  0.00    +0.169 C 
BRANCH  19  20
ATOM     20  O   UNL     1      30.590  -2.930 -21.685  0.00  0.00    -0.379 OA
ATOM     21  H   UNL     1      30.569  -3.051 -20.723  0.00  0.00    +0.211 HD
ENDBRANCH  19  20
ENDBRANCH  12  19
ENDBRANCH   1  10
BRANCH   5  22
ATOM     22  C   UNL     1      35.267  -9.944 -24.972  0.00  0.00    +0.026 C 
ATOM     23  C   UNL     1      35.526  -9.192 -26.274  0.00  0.00    +0.005 C 
ENDBRANCH   5  22
BRANCH   4  24
ATOM     24  C   UNL     1      32.543 -11.008 -24.767  0.00  0.00    +0.052 C 
BRANCH  24  27
ATOM     25  O   UNL     1      33.230 -15.837 -24.840  0.00  0.00    -0.468 OA
ATOM     26  O   UNL     1      33.915 -15.790 -22.039  0.00  0.00    -0.468 OA
ATOM     27  C   UNL     1      32.897 -12.296 -24.052  0.00  0.00    -0.015 C 
ATOM     28  C   UNL     1      32.922 -13.499 -24.758  0.00  0.00    +0.036 C 
ATOM     29  C   UNL     1      33.190 -12.279 -22.688  0.00  0.00    -0.001 C 
ATOM     30  C   UNL     1      33.241 -14.685 -24.097  0.00  0.00    +0.172 C 
ATOM     31  C   UNL     1      33.562 -14.664 -22.738  0.00  0.00    +0.172 C 
ATOM     32  C   UNL     1      33.522 -13.463 -22.029  0.00  0.00    +0.040 C 
ATOM     33  C   UNL     1      33.225 -17.004 -24.013  0.00  0.00    +0.253 C 
ATOM     34  C   UNL     1      34.257 -16.871 -22.910  0.00  0.00    +0.253 C 
ENDBRANCH  24  27
ENDBRANCH   4  24
TORSDOF 9
ENDMDL
