MODEL 1
REMARK VINA RESULT:     -11.3      0.000      0.000
REMARK  Name = 4413
REMARK  6 active torsions:
REMARK  status: ('A' for Active; 'I' for Inactive)
REMARK    1  A    between atoms: O_1  and  C_9
REMARK    2  A    between atoms: O_1  and  C_19
REMARK    3  A    between atoms: C_6  and  C_14
REMARK    4  A    between atoms: C_19  and  C_20
REMARK    5  A    between atoms: C_23  and  N_26
REMARK    6  A    between atoms: N_26  and  C_29
REMARK                            x       y       z     vdW  Elec       q    Type
REMARK                         _______ _______ _______ _____ _____    ______ ____
ROOT
ATOM      1  O   UNL     1      31.698 -22.411 -17.404  0.00  0.00    -0.421 OA
ENDROOT
BRANCH   1   9
ATOM      2  C   UNL     1      32.873 -23.365 -13.519  0.00  0.00    +0.000 C 
ATOM      3  C   UNL     1      33.839 -22.955 -14.469  0.00  0.00    +0.003 C 
ATOM      4  C   UNL     1      33.285 -23.683 -12.214  0.00  0.00    +0.003 C 
ATOM      5  C   UNL     1      33.425 -22.638 -15.773  0.00  0.00    +0.038 C 
ATOM      6  C   UNL     1      34.630 -23.596 -11.852  0.00  0.00    +0.031 C 
ATOM      7  C   UNL     1      35.187 -22.874 -14.088  0.00  0.00    +0.000 C 
ATOM      8  C   UNL     1      31.524 -23.447 -13.901  0.00  0.00    +0.003 C 
ATOM      9  C   UNL     1      32.081 -22.724 -16.136  0.00  0.00    +0.149 C 
ATOM     10  C   UNL     1      35.579 -23.193 -12.787  0.00  0.00    +0.003 C 
ATOM     11  C   UNL     1      31.132 -23.127 -15.201  0.00  0.00    +0.038 C 
BRANCH   6  14
ATOM     12  N   UNL     1      36.018 -23.189  -9.834  0.00  0.00    -0.343 N 
ATOM     13  N   UNL     1      34.485 -24.953  -9.874  0.00  0.00    -0.285 NA
ATOM     14  C   UNL     1      35.041 -23.929 -10.497  0.00  0.00    +0.117 C 
ATOM     15  H   UNL     1      36.280 -23.432  -8.917  0.00  0.00    +0.144 HD
ATOM     16  H   UNL     1      36.445 -22.424 -10.282  0.00  0.00    +0.144 HD
ATOM     17  H   UNL     1      34.763 -25.180  -8.957  0.00  0.00    +0.188 HD
ENDBRANCH   6  14
ENDBRANCH   1   9
BRANCH   1  19
ATOM     18  O   UNL     1      32.963 -23.858 -18.721  0.00  0.00    -0.244 OA
ATOM     19  C   UNL     1      32.639 -22.729 -18.385  0.00  0.00    +0.346 C 
BRANCH  19  20
ATOM     20  C   UNL     1      33.212 -21.504 -18.998  0.00  0.00    +0.076 C 
ATOM     21  C   UNL     1      32.356 -20.541 -19.491  0.00  0.00    +0.008 C 
ATOM     22  C   UNL     1      34.584 -21.366 -19.054  0.00  0.00    +0.008 C 
ATOM     23  C   UNL     1      34.277 -19.225 -20.134  0.00  0.00    +0.084 C 
ATOM     24  C   UNL     1      32.894 -19.390 -20.065  0.00  0.00    +0.019 C 
ATOM     25  C   UNL     1      35.123 -20.214 -19.629  0.00  0.00    +0.019 C 
BRANCH  23  26
ATOM     26  N   UNL     1      34.817 -18.072 -20.710  0.00  0.00    -0.214 NA
BRANCH  26  29
ATOM     27  N   UNL     1      34.887 -16.659 -22.569  0.00  0.00    -0.370 N 
ATOM     28  N   UNL     1      34.414 -18.858 -22.953  0.00  0.00    -0.370 N 
ATOM     29  C   UNL     1      34.707 -17.901 -22.007  0.00  0.00    +0.193 C 
ATOM     30  H   UNL     1      35.103 -15.887 -21.998  0.00  0.00    +0.159 HD
ATOM     31  H   UNL     1      34.802 -16.543 -23.544  0.00  0.00    +0.159 HD
ATOM     32  H   UNL     1      34.262 -19.791 -22.679  0.00  0.00    +0.159 HD
ATOM     33  H   UNL     1      34.357 -18.609 -23.905  0.00  0.00    +0.159 HD
ENDBRANCH  26  29
ENDBRANCH  23  26
ENDBRANCH  19  20
ENDBRANCH   1  19
TORSDOF 6
ENDMDL
MODEL 2
REMARK VINA RESULT:     -11.2      2.254      8.513
REMARK  Name = 4413
REMARK  6 active torsions:
REMARK  status: ('A' for Active; 'I' for Inactive)
REMARK    1  A    between atoms: O_1  and  C_9
REMARK    2  A    between atoms: O_1  and  C_19
REMARK    3  A    between atoms: C_6  and  C_14
REMARK    4  A    between atoms: C_19  and  C_20
REMARK    5  A    between atoms: C_23  and  N_26
REMARK    6  A    between atoms: N_26  and  C_29
REMARK                            x       y       z     vdW  Elec       q    Type
REMARK                         _______ _______ _______ _____ _____    ______ ____
ROOT
ATOM      1  O   UNL     1      33.064 -23.426 -16.931  0.00  0.00    -0.421 OA
ENDROOT
BRANCH   1   9
ATOM      2  C   UNL     1      33.188 -20.168 -19.530  0.00  0.00    +0.000 C 
ATOM      3  C   UNL     1      34.393 -20.745 -19.060  0.00  0.00    +0.003 C 
ATOM      4  C   UNL     1      33.247 -19.072 -20.406  0.00  0.00    +0.003 C 
ATOM      5  C   UNL     1      34.333 -21.841 -18.185  0.00  0.00    +0.038 C 
ATOM      6  C   UNL     1      34.476 -18.551 -20.812  0.00  0.00    +0.031 C 
ATOM      7  C   UNL     1      35.620 -20.209 -19.480  0.00  0.00    +0.000 C 
ATOM      8  C   UNL     1      31.960 -20.705 -19.110  0.00  0.00    +0.003 C 
ATOM      9  C   UNL     1      33.104 -22.362 -17.778  0.00  0.00    +0.149 C 
ATOM     10  C   UNL     1      35.660 -19.118 -20.350  0.00  0.00    +0.003 C 
ATOM     11  C   UNL     1      31.920 -21.795 -18.240  0.00  0.00    +0.038 C 
BRANCH   6  14
ATOM     12  N   UNL     1      34.220 -16.126 -21.281  0.00  0.00    -0.343 N 
ATOM     13  N   UNL     1      34.848 -17.597 -22.986  0.00  0.00    -0.285 NA
ATOM     14  C   UNL     1      34.520 -17.415 -21.719  0.00  0.00    +0.117 C 
ATOM     15  H   UNL     1      34.257 -15.372 -21.913  0.00  0.00    +0.144 HD
ATOM     16  H   UNL     1      33.971 -15.971 -20.342  0.00  0.00    +0.144 HD
ATOM     17  H   UNL     1      34.879 -16.829 -23.601  0.00  0.00    +0.188 HD
ENDBRANCH   6  14
ENDBRANCH   1   9
BRANCH   1  19
ATOM     18  O   UNL     1      32.055 -22.596 -15.002  0.00  0.00    -0.244 OA
ATOM     19  C   UNL     1      33.016 -23.083 -15.578  0.00  0.00    +0.346 C 
BRANCH  19  20
ATOM     20  C   UNL     1      34.298 -23.397 -14.897  0.00  0.00    +0.076 C 
ATOM     21  C   UNL     1      34.539 -24.694 -14.492  0.00  0.00    +0.008 C 
ATOM     22  C   UNL     1      35.209 -22.381 -14.691  0.00  0.00    +0.008 C 
ATOM     23  C   UNL     1      36.682 -23.980 -13.636  0.00  0.00    +0.084 C 
ATOM     24  C   UNL     1      35.744 -24.988 -13.855  0.00  0.00    +0.019 C 
ATOM     25  C   UNL     1      36.414 -22.676 -14.053  0.00  0.00    +0.019 C 
BRANCH  23  26
ATOM     26  N   UNL     1      37.889 -24.274 -12.995  0.00  0.00    -0.214 NA
BRANCH  26  29
ATOM     27  N   UNL     1      39.043 -24.920 -14.921  0.00  0.00    -0.370 N 
ATOM     28  N   UNL     1      39.426 -26.131 -13.025  0.00  0.00    -0.370 N 
ATOM     29  C   UNL     1      38.742 -25.076 -13.588  0.00  0.00    +0.193 C 
ATOM     30  H   UNL     1      38.619 -24.199 -15.441  0.00  0.00    +0.159 HD
ATOM     31  H   UNL     1      39.685 -25.528 -15.355  0.00  0.00    +0.159 HD
ATOM     32  H   UNL     1      39.298 -26.349 -12.074  0.00  0.00    +0.159 HD
ATOM     33  H   UNL     1      40.045 -26.666 -13.574  0.00  0.00    +0.159 HD
ENDBRANCH  26  29
ENDBRANCH  23  26
ENDBRANCH  19  20
ENDBRANCH   1  19
TORSDOF 6
ENDMDL
MODEL 3
REMARK VINA RESULT:     -11.1      2.857      4.877
REMARK  Name = 4413
REMARK  6 active torsions:
REMARK  status: ('A' for Active; 'I' for Inactive)
REMARK    1  A    between atoms: O_1  and  C_9
REMARK    2  A    between atoms: O_1  and  C_19
REMARK    3  A    between atoms: C_6  and  C_14
REMARK    4  A    between atoms: C_19  and  C_20
REMARK    5  A    between atoms: C_23  and  N_26
REMARK    6  A    between atoms: N_26  and  C_29
REMARK                            x       y       z     vdW  Elec       q    Type
REMARK                         _______ _______ _______ _____ _____    ______ ____
ROOT
ATOM      1  O   UNL     1      34.225 -19.902 -20.735  0.00  0.00    -0.421 OA
ENDROOT
BRANCH   1   9
ATOM      2  C   UNL     1      34.408 -21.914 -17.087  0.00  0.00    +0.000 C 
ATOM      3  C   UNL     1      33.165 -21.760 -17.749  0.00  0.00    +0.003 C 
ATOM      4  C   UNL     1      34.452 -22.595 -15.860  0.00  0.00    +0.003 C 
ATOM      5  C   UNL     1      33.122 -21.080 -18.976  0.00  0.00    +0.038 C 
ATOM      6  C   UNL     1      33.289 -23.117 -15.293  0.00  0.00    +0.031 C 
ATOM      7  C   UNL     1      32.006 -22.292 -17.164  0.00  0.00    +0.000 C 
ATOM      8  C   UNL     1      35.568 -21.382 -17.672  0.00  0.00    +0.003 C 
ATOM      9  C   UNL     1      34.285 -20.557 -19.544  0.00  0.00    +0.149 C 
ATOM     10  C   UNL     1      32.068 -22.966 -15.944  0.00  0.00    +0.003 C 
ATOM     11  C   UNL     1      35.505 -20.709 -18.893  0.00  0.00    +0.038 C 
BRANCH   6  14
ATOM     12  N   UNL     1      34.021 -25.035 -13.896  0.00  0.00    -0.343 N 
ATOM     13  N   UNL     1      32.763 -23.304 -12.956  0.00  0.00    -0.285 NA
ATOM     14  C   UNL     1      33.352 -23.819 -14.021  0.00  0.00    +0.117 C 
ATOM     15  H   UNL     1      34.051 -25.492 -13.025  0.00  0.00    +0.144 HD
ATOM     16  H   UNL     1      34.464 -25.436 -14.678  0.00  0.00    +0.144 HD
ATOM     17  H   UNL     1      32.804 -23.778 -12.093  0.00  0.00    +0.188 HD
ENDBRANCH   6  14
ENDBRANCH   1   9
BRANCH   1  19
ATOM     18  O   UNL     1      35.558 -18.195 -19.876  0.00  0.00    -0.244 OA
ATOM     19  C   UNL     1      34.778 -18.620 -20.715  0.00  0.00    +0.346 C 
BRANCH  19  20
ATOM     20  C   UNL     1      34.305 -17.812 -21.868  0.00  0.00    +0.076 C 
ATOM     21  C   UNL     1      34.544 -16.453 -21.873  0.00  0.00    +0.008 C 
ATOM     22  C   UNL     1      33.643 -18.446 -22.899  0.00  0.00    +0.008 C 
ATOM     23  C   UNL     1      33.431 -16.312 -24.012  0.00  0.00    +0.084 C 
ATOM     24  C   UNL     1      34.102 -15.695 -22.957  0.00  0.00    +0.019 C 
ATOM     25  C   UNL     1      33.201 -17.688 -23.984  0.00  0.00    +0.019 C 
BRANCH  23  26
ATOM     26  N   UNL     1      32.986 -15.552 -25.098  0.00  0.00    -0.214 NA
BRANCH  26  29
ATOM     27  N   UNL     1      32.720 -13.350 -25.833  0.00  0.00    -0.370 N 
ATOM     28  N   UNL     1      31.915 -13.858 -23.759  0.00  0.00    -0.370 N 
ATOM     29  C   UNL     1      32.555 -14.332 -24.883  0.00  0.00    +0.193 C 
ATOM     30  H   UNL     1      33.165 -13.560 -26.686  0.00  0.00    +0.159 HD
ATOM     31  H   UNL     1      32.392 -12.438 -25.660  0.00  0.00    +0.159 HD
ATOM     32  H   UNL     1      31.736 -14.463 -23.004  0.00  0.00    +0.159 HD
ATOM     33  H   UNL     1      31.635 -12.915 -23.712  0.00  0.00    +0.159 HD
ENDBRANCH  26  29
ENDBRANCH  23  26
ENDBRANCH  19  20
ENDBRANCH   1  19
TORSDOF 6
ENDMDL
MODEL 4
REMARK VINA RESULT:     -11.1      1.225      9.214
REMARK  Name = 4413
REMARK  6 active torsions:
REMARK  status: ('A' for Active; 'I' for Inactive)
REMARK    1  A    between atoms: O_1  and  C_9
REMARK    2  A    between atoms: O_1  and  C_19
REMARK    3  A    between atoms: C_6  and  C_14
REMARK    4  A    between atoms: C_19  and  C_20
REMARK    5  A    between atoms: C_23  and  N_26
REMARK    6  A    between atoms: N_26  and  C_29
REMARK                            x       y       z     vdW  Elec       q    Type
REMARK                         _______ _______ _______ _____ _____    ______ ____
ROOT
ATOM      1  O   UNL     1      33.852 -22.639 -17.374  0.00  0.00    -0.421 OA
ENDROOT
BRANCH   1   9
ATOM      2  C   UNL     1      33.460 -19.661 -20.266  0.00  0.00    +0.000 C 
ATOM      3  C   UNL     1      34.743 -20.010 -19.778  0.00  0.00    +0.003 C 
ATOM      4  C   UNL     1      33.346 -18.656 -21.240  0.00  0.00    +0.003 C 
ATOM      5  C   UNL     1      34.857 -21.015 -18.804  0.00  0.00    +0.038 C 
ATOM      6  C   UNL     1      34.479 -18.005 -21.727  0.00  0.00    +0.031 C 
ATOM      7  C   UNL     1      35.872 -19.344 -20.280  0.00  0.00    +0.000 C 
ATOM      8  C   UNL     1      32.330 -20.327 -19.763  0.00  0.00    +0.003 C 
ATOM      9  C   UNL     1      33.724 -21.667 -18.316  0.00  0.00    +0.149 C 
ATOM     10  C   UNL     1      35.740 -18.348 -21.248  0.00  0.00    +0.003 C 
ATOM     11  C   UNL     1      32.463 -21.323 -18.796  0.00  0.00    +0.038 C 
BRANCH   6  14
ATOM     12  N   UNL     1      33.745 -17.225 -23.968  0.00  0.00    -0.343 N 
ATOM     13  N   UNL     1      34.796 -15.749 -22.491  0.00  0.00    -0.285 NA
ATOM     14  C   UNL     1      34.343 -16.966 -22.736  0.00  0.00    +0.117 C 
ATOM     15  H   UNL     1      33.663 -16.506 -24.635  0.00  0.00    +0.144 HD
ATOM     16  H   UNL     1      33.404 -18.126 -24.170  0.00  0.00    +0.144 HD
ATOM     17  H   UNL     1      34.705 -15.044 -23.173  0.00  0.00    +0.188 HD
ENDBRANCH   6  14
ENDBRANCH   1   9
BRANCH   1  19
ATOM     18  O   UNL     1      31.628 -22.503 -16.693  0.00  0.00    -0.244 OA
ATOM     19  C   UNL     1      32.812 -22.682 -16.444  0.00  0.00    +0.346 C 
BRANCH  19  20
ATOM     20  C   UNL     1      33.318 -22.987 -15.082  0.00  0.00    +0.076 C 
ATOM     21  C   UNL     1      32.470 -23.584 -14.173  0.00  0.00    +0.008 C 
ATOM     22  C   UNL     1      34.623 -22.665 -14.769  0.00  0.00    +0.008 C 
ATOM     23  C   UNL     1      34.262 -23.559 -12.553  0.00  0.00    +0.084 C 
ATOM     24  C   UNL     1      32.947 -23.873 -12.894  0.00  0.00    +0.019 C 
ATOM     25  C   UNL     1      35.100 -22.954 -13.490  0.00  0.00    +0.019 C 
BRANCH  23  26
ATOM     26  N   UNL     1      34.740 -23.846 -11.271  0.00  0.00    -0.214 NA
BRANCH  26  29
ATOM     27  N   UNL     1      36.029 -25.778 -11.525  0.00  0.00    -0.370 N 
ATOM     28  N   UNL     1      37.069 -23.942 -10.658  0.00  0.00    -0.370 N 
ATOM     29  C   UNL     1      35.892 -24.462 -11.148  0.00  0.00    +0.193 C 
ATOM     30  H   UNL     1      35.258 -26.268 -11.893  0.00  0.00    +0.159 HD
ATOM     31  H   UNL     1      36.899 -26.230 -11.428  0.00  0.00    +0.159 HD
ATOM     32  H   UNL     1      37.104 -23.007 -10.354  0.00  0.00    +0.159 HD
ATOM     33  H   UNL     1      37.877 -24.505 -10.613  0.00  0.00    +0.159 HD
ENDBRANCH  26  29
ENDBRANCH  23  26
ENDBRANCH  19  20
ENDBRANCH   1  19
TORSDOF 6
ENDMDL
MODEL 5
REMARK VINA RESULT:     -10.9      4.285     10.600
REMARK  Name = 4413
REMARK  6 active torsions:
REMARK  status: ('A' for Active; 'I' for Inactive)
REMARK    1  A    between atoms: O_1  and  C_9
REMARK    2  A    between atoms: O_1  and  C_19
REMARK    3  A    between atoms: C_6  and  C_14
REMARK    4  A    between atoms: C_19  and  C_20
REMARK    5  A    between atoms: C_23  and  N_26
REMARK    6  A    between atoms: N_26  and  C_29
REMARK                            x       y       z     vdW  Elec       q    Type
REMARK                         _______ _______ _______ _____ _____    ______ ____
ROOT
ATOM      1  O   UNL     1      34.440 -18.877 -21.828  0.00  0.00    -0.421 OA
ENDROOT
BRANCH   1   9
ATOM      2  C   UNL     1      33.717 -14.976 -23.112  0.00  0.00    +0.000 C 
ATOM      3  C   UNL     1      33.805 -15.261 -21.728  0.00  0.00    +0.003 C 
ATOM      4  C   UNL     1      33.473 -13.657 -23.528  0.00  0.00    +0.003 C 
ATOM      5  C   UNL     1      34.049 -16.580 -21.313  0.00  0.00    +0.038 C 
ATOM      6  C   UNL     1      33.319 -12.634 -22.593  0.00  0.00    +0.031 C 
ATOM      7  C   UNL     1      33.648 -14.218 -20.802  0.00  0.00    +0.000 C 
ATOM      8  C   UNL     1      33.874 -16.020 -24.040  0.00  0.00    +0.003 C 
ATOM      9  C   UNL     1      34.203 -17.605 -22.248  0.00  0.00    +0.149 C 
ATOM     10  C   UNL     1      33.406 -12.913 -21.232  0.00  0.00    +0.003 C 
ATOM     11  C   UNL     1      34.116 -17.324 -23.608  0.00  0.00    +0.038 C 
BRANCH   6  14
ATOM     12  N   UNL     1      32.042 -10.506 -22.487  0.00  0.00    -0.343 N 
ATOM     13  N   UNL     1      33.815 -10.743 -23.991  0.00  0.00    -0.285 NA
ATOM     14  C   UNL     1      33.066 -11.273 -23.040  0.00  0.00    +0.117 C 
ATOM     15  H   UNL     1      31.890  -9.587 -22.804  0.00  0.00    +0.144 HD
ATOM     16  H   UNL     1      31.472 -10.884 -21.779  0.00  0.00    +0.144 HD
ATOM     17  H   UNL     1      33.646  -9.822 -24.295  0.00  0.00    +0.188 HD
ENDBRANCH   6  14
ENDBRANCH   1   9
BRANCH   1  19
ATOM     18  O   UNL     1      35.874 -18.261 -20.098  0.00  0.00    -0.244 OA
ATOM     19  C   UNL     1      34.983 -18.968 -20.545  0.00  0.00    +0.346 C 
BRANCH  19  20
ATOM     20  C   UNL     1      34.330 -20.046 -19.759  0.00  0.00    +0.076 C 
ATOM     21  C   UNL     1      32.955 -20.156 -19.792  0.00  0.00    +0.008 C 
ATOM     22  C   UNL     1      35.120 -20.905 -19.022  0.00  0.00    +0.008 C 
ATOM     23  C   UNL     1      33.118 -22.051 -18.303  0.00  0.00    +0.084 C 
ATOM     24  C   UNL     1      32.343 -21.170 -19.055  0.00  0.00    +0.019 C 
ATOM     25  C   UNL     1      34.507 -21.919 -18.285  0.00  0.00    +0.019 C 
BRANCH  23  26
ATOM     26  N   UNL     1      32.504 -23.066 -17.563  0.00  0.00    -0.214 NA
BRANCH  26  29
ATOM     27  N   UNL     1      32.685 -22.777 -15.252  0.00  0.00    -0.370 N 
ATOM     28  N   UNL     1      30.635 -22.415 -16.187  0.00  0.00    -0.370 N 
ATOM     29  C   UNL     1      31.948 -22.765 -16.413  0.00  0.00    +0.193 C 
ATOM     30  H   UNL     1      33.641 -23.012 -15.278  0.00  0.00    +0.159 HD
ATOM     31  H   UNL     1      32.257 -22.549 -14.395  0.00  0.00    +0.159 HD
ATOM     32  H   UNL     1      30.002 -22.369 -16.938  0.00  0.00    +0.159 HD
ATOM     33  H   UNL     1      30.331 -22.208 -15.273  0.00  0.00    +0.159 HD
ENDBRANCH  26  29
ENDBRANCH  23  26
ENDBRANCH  19  20
ENDBRANCH   1  19
TORSDOF 6
ENDMDL
MODEL 6
REMARK VINA RESULT:     -10.9      4.697      7.635
REMARK  Name = 4413
REMARK  6 active torsions:
REMARK  status: ('A' for Active; 'I' for Inactive)
REMARK    1  A    between atoms: O_1  and  C_9
REMARK    2  A    between atoms: O_1  and  C_19
REMARK    3  A    between atoms: C_6  and  C_14
REMARK    4  A    between atoms: C_19  and  C_20
REMARK    5  A    between atoms: C_23  and  N_26
REMARK    6  A    between atoms: N_26  and  C_29
REMARK                            x       y       z     vdW  Elec       q    Type
REMARK                         _______ _______ _______ _____ _____    ______ ____
ROOT
ATOM      1  O   UNL     1      35.082 -17.121 -22.858  0.00  0.00    -0.421 OA
ENDROOT
BRANCH   1   9
ATOM      2  C   UNL     1      34.805 -19.940 -19.798  0.00  0.00    +0.000 C 
ATOM      3  C   UNL     1      33.634 -19.494 -20.457  0.00  0.00    +0.003 C 
ATOM      4  C   UNL     1      34.694 -20.890 -18.769  0.00  0.00    +0.003 C 
ATOM      5  C   UNL     1      33.746 -18.544 -21.486  0.00  0.00    +0.038 C 
ATOM      6  C   UNL     1      33.447 -21.393 -18.397  0.00  0.00    +0.031 C 
ATOM      7  C   UNL     1      32.388 -20.011 -20.070  0.00  0.00    +0.000 C 
ATOM      8  C   UNL     1      36.051 -19.421 -20.185  0.00  0.00    +0.003 C 
ATOM      9  C   UNL     1      34.992 -18.039 -21.858  0.00  0.00    +0.149 C 
ATOM     10  C   UNL     1      32.296 -20.955 -19.046  0.00  0.00    +0.003 C 
ATOM     11  C   UNL     1      36.142 -18.478 -21.209  0.00  0.00    +0.038 C 
BRANCH   6  14
ATOM     12  N   UNL     1      32.245 -23.221 -17.221  0.00  0.00    -0.343 N 
ATOM     13  N   UNL     1      34.319 -22.478 -16.438  0.00  0.00    -0.285 NA
ATOM     14  C   UNL     1      33.349 -22.376 -17.330  0.00  0.00    +0.117 C 
ATOM     15  H   UNL     1      32.201 -23.879 -16.491  0.00  0.00    +0.144 HD
ATOM     16  H   UNL     1      31.512 -23.159 -17.875  0.00  0.00    +0.144 HD
ATOM     17  H   UNL     1      34.254 -23.143 -15.715  0.00  0.00    +0.188 HD
ENDBRANCH   6  14
ENDBRANCH   1   9
BRANCH   1  19
ATOM     18  O   UNL     1      33.195 -17.629 -24.126  0.00  0.00    -0.244 OA
ATOM     19  C   UNL     1      33.870 -16.834 -23.488  0.00  0.00    +0.346 C 
BRANCH  19  20
ATOM     20  C   UNL     1      33.476 -15.418 -23.280  0.00  0.00    +0.076 C 
ATOM     21  C   UNL     1      32.717 -14.787 -24.244  0.00  0.00    +0.008 C 
ATOM     22  C   UNL     1      33.879 -14.777 -22.126  0.00  0.00    +0.008 C 
ATOM     23  C   UNL     1      32.740 -12.787 -22.890  0.00  0.00    +0.084 C 
ATOM     24  C   UNL     1      32.346 -13.458 -24.047  0.00  0.00    +0.019 C 
ATOM     25  C   UNL     1      33.507 -13.446 -21.929  0.00  0.00    +0.019 C 
BRANCH  23  26
ATOM     26  N   UNL     1      32.369 -11.454 -22.692  0.00  0.00    -0.214 NA
BRANCH  26  29
ATOM     27  N   UNL     1      32.747  -9.184 -23.096  0.00  0.00    -0.370 N 
ATOM     28  N   UNL     1      34.107 -10.671 -24.168  0.00  0.00    -0.370 N 
ATOM     29  C   UNL     1      33.052 -10.510 -23.297  0.00  0.00    +0.193 C 
ATOM     30  H   UNL     1      32.011  -8.934 -22.493  0.00  0.00    +0.159 HD
ATOM     31  H   UNL     1      33.267  -8.485 -23.556  0.00  0.00    +0.159 HD
ATOM     32  H   UNL     1      34.424 -11.574 -24.396  0.00  0.00    +0.159 HD
ATOM     33  H   UNL     1      34.545  -9.881 -24.563  0.00  0.00    +0.159 HD
ENDBRANCH  26  29
ENDBRANCH  23  26
ENDBRANCH  19  20
ENDBRANCH   1  19
TORSDOF 6
ENDMDL
MODEL 7
REMARK VINA RESULT:     -10.9      2.800      9.021
REMARK  Name = 4413
REMARK  6 active torsions:
REMARK  status: ('A' for Active; 'I' for Inactive)
REMARK    1  A    between atoms: O_1  and  C_9
REMARK    2  A    between atoms: O_1  and  C_19
REMARK    3  A    between atoms: C_6  and  C_14
REMARK    4  A    between atoms: C_19  and  C_20
REMARK    5  A    between atoms: C_23  and  N_26
REMARK    6  A    between atoms: N_26  and  C_29
REMARK                            x       y       z     vdW  Elec       q    Type
REMARK                         _______ _______ _______ _____ _____    ______ ____
ROOT
ATOM      1  O   UNL     1      34.035 -22.705 -17.660  0.00  0.00    -0.421 OA
ENDROOT
BRANCH   1   9
ATOM      2  C   UNL     1      33.578 -19.484 -20.268  0.00  0.00    +0.000 C 
ATOM      3  C   UNL     1      34.873 -19.887 -19.861  0.00  0.00    +0.003 C 
ATOM      4  C   UNL     1      33.441 -18.398 -21.147  0.00  0.00    +0.003 C 
ATOM      5  C   UNL     1      35.008 -20.974 -18.982  0.00  0.00    +0.038 C 
ATOM      6  C   UNL     1      34.564 -17.719 -21.619  0.00  0.00    +0.031 C 
ATOM      7  C   UNL     1      35.992 -19.193 -20.346  0.00  0.00    +0.000 C 
ATOM      8  C   UNL     1      32.458 -20.180 -19.782  0.00  0.00    +0.003 C 
ATOM      9  C   UNL     1      33.885 -21.654 -18.509  0.00  0.00    +0.149 C 
ATOM     10  C   UNL     1      35.838 -18.115 -21.219  0.00  0.00    +0.003 C 
ATOM     11  C   UNL     1      32.613 -21.257 -18.909  0.00  0.00    +0.038 C 
BRANCH   6  14
ATOM     12  N   UNL     1      34.268 -16.788 -23.902  0.00  0.00    -0.343 N 
ATOM     13  N   UNL     1      34.394 -15.362 -22.054  0.00  0.00    -0.285 NA
ATOM     14  C   UNL     1      34.406 -16.595 -22.528  0.00  0.00    +0.117 C 
ATOM     15  H   UNL     1      34.161 -16.013 -24.499  0.00  0.00    +0.144 HD
ATOM     16  H   UNL     1      34.277 -17.699 -24.275  0.00  0.00    +0.144 HD
ATOM     17  H   UNL     1      34.287 -14.600 -22.669  0.00  0.00    +0.188 HD
ENDBRANCH   6  14
ENDBRANCH   1   9
BRANCH   1  19
ATOM     18  O   UNL     1      35.163 -21.791 -15.837  0.00  0.00    -0.244 OA
ATOM     19  C   UNL     1      34.186 -22.345 -16.319  0.00  0.00    +0.346 C 
BRANCH  19  20
ATOM     20  C   UNL     1      32.987 -22.713 -15.524  0.00  0.00    +0.076 C 
ATOM     21  C   UNL     1      31.757 -22.745 -16.148  0.00  0.00    +0.008 C 
ATOM     22  C   UNL     1      33.141 -23.012 -14.186  0.00  0.00    +0.008 C 
ATOM     23  C   UNL     1      30.760 -23.400 -14.047  0.00  0.00    +0.084 C 
ATOM     24  C   UNL     1      30.632 -23.093 -15.401  0.00  0.00    +0.019 C 
ATOM     25  C   UNL     1      32.015 -23.359 -13.439  0.00  0.00    +0.019 C 
BRANCH  23  26
ATOM     26  N   UNL     1      29.632 -23.747 -13.298  0.00  0.00    -0.214 NA
BRANCH  26  29
ATOM     27  N   UNL     1      28.607 -25.804 -13.716  0.00  0.00    -0.370 N 
ATOM     28  N   UNL     1      27.663 -23.960 -14.673  0.00  0.00    -0.370 N 
ATOM     29  C   UNL     1      28.677 -24.440 -13.874  0.00  0.00    +0.193 C 
ATOM     30  H   UNL     1      29.276 -26.272 -13.166  0.00  0.00    +0.159 HD
ATOM     31  H   UNL     1      27.886 -26.314 -14.153  0.00  0.00    +0.159 HD
ATOM     32  H   UNL     1      27.601 -22.997 -14.864  0.00  0.00    +0.159 HD
ATOM     33  H   UNL     1      26.999 -24.581 -15.052  0.00  0.00    +0.159 HD
ENDBRANCH  26  29
ENDBRANCH  23  26
ENDBRANCH  19  20
ENDBRANCH   1  19
TORSDOF 6
ENDMDL
MODEL 8
REMARK VINA RESULT:     -10.6      9.065     13.365
REMARK  Name = 4413
REMARK  6 active torsions:
REMARK  status: ('A' for Active; 'I' for Inactive)
REMARK    1  A    between atoms: O_1  and  C_9
REMARK    2  A    between atoms: O_1  and  C_19
REMARK    3  A    between atoms: C_6  and  C_14
REMARK    4  A    between atoms: C_19  and  C_20
REMARK    5  A    between atoms: C_23  and  N_26
REMARK    6  A    between atoms: N_26  and  C_29
REMARK                            x       y       z     vdW  Elec       q    Type
REMARK                         _______ _______ _______ _____ _____    ______ ____
ROOT
ATOM      1  O   UNL     1      32.609 -10.605 -24.787  0.00  0.00    -0.421 OA
ENDROOT
BRANCH   1   9
ATOM      2  C   UNL     1      33.181 -14.700 -24.251  0.00  0.00    +0.000 C 
ATOM      3  C   UNL     1      33.406 -13.807 -23.175  0.00  0.00    +0.003 C 
ATOM      4  C   UNL     1      33.379 -16.076 -24.054  0.00  0.00    +0.003 C 
ATOM      5  C   UNL     1      33.209 -12.431 -23.373  0.00  0.00    +0.038 C 
ATOM      6  C   UNL     1      33.791 -16.566 -22.815  0.00  0.00    +0.031 C 
ATOM      7  C   UNL     1      33.820 -14.317 -21.935  0.00  0.00    +0.000 C 
ATOM      8  C   UNL     1      32.767 -14.189 -25.493  0.00  0.00    +0.003 C 
ATOM      9  C   UNL     1      32.797 -11.941 -24.613  0.00  0.00    +0.149 C 
ATOM     10  C   UNL     1      34.011 -15.688 -21.757  0.00  0.00    +0.003 C 
ATOM     11  C   UNL     1      32.576 -12.819 -25.670  0.00  0.00    +0.038 C 
BRANCH   6  14
ATOM     12  N   UNL     1      34.656 -18.492 -21.507  0.00  0.00    -0.343 N 
ATOM     13  N   UNL     1      33.540 -18.846 -23.530  0.00  0.00    -0.285 NA
ATOM     14  C   UNL     1      33.991 -17.994 -22.627  0.00  0.00    +0.117 C 
ATOM     15  H   UNL     1      34.779 -19.463 -21.400  0.00  0.00    +0.144 HD
ATOM     16  H   UNL     1      35.001 -17.873 -20.824  0.00  0.00    +0.144 HD
ATOM     17  H   UNL     1      33.674 -19.813 -23.405  0.00  0.00    +0.188 HD
ENDBRANCH   6  14
ENDBRANCH   1   9
BRANCH   1  19
ATOM     18  O   UNL     1      34.844  -9.952 -24.707  0.00  0.00    -0.244 OA
ATOM     19  C   UNL     1      33.679  -9.813 -24.365  0.00  0.00    +0.346 C 
BRANCH  19  20
ATOM     20  C   UNL     1      33.227  -8.746 -23.437  0.00  0.00    +0.076 C 
ATOM     21  C   UNL     1      31.934  -8.781 -22.959  0.00  0.00    +0.008 C 
ATOM     22  C   UNL     1      34.117  -7.753 -23.080  0.00  0.00    +0.008 C 
ATOM     23  C   UNL     1      32.390  -6.765 -21.708  0.00  0.00    +0.084 C 
ATOM     24  C   UNL     1      31.511  -7.780 -22.085  0.00  0.00    +0.019 C 
ATOM     25  C   UNL     1      33.693  -6.751 -22.205  0.00  0.00    +0.019 C 
BRANCH  23  26
ATOM     26  N   UNL     1      31.966  -5.761 -20.833  0.00  0.00    -0.214 NA
BRANCH  26  29
ATOM     27  N   UNL     1      31.573  -5.035 -18.648  0.00  0.00    -0.370 N 
ATOM     28  N   UNL     1      32.291  -7.185 -18.916  0.00  0.00    -0.370 N 
ATOM     29  C   UNL     1      31.952  -6.007 -19.544  0.00  0.00    +0.193 C 
ATOM     30  H   UNL     1      31.306  -4.144 -18.970  0.00  0.00    +0.159 HD
ATOM     31  H   UNL     1      31.567  -5.232 -17.682  0.00  0.00    +0.159 HD
ATOM     32  H   UNL     1      32.580  -7.960 -19.447  0.00  0.00    +0.159 HD
ATOM     33  H   UNL     1      32.241  -7.252 -17.934  0.00  0.00    +0.159 HD
ENDBRANCH  26  29
ENDBRANCH  23  26
ENDBRANCH  19  20
ENDBRANCH   1  19
TORSDOF 6
ENDMDL
MODEL 9
REMARK VINA RESULT:     -10.5      3.645      5.931
REMARK  Name = 4413
REMARK  6 active torsions:
REMARK  status: ('A' for Active; 'I' for Inactive)
REMARK    1  A    between atoms: O_1  and  C_9
REMARK    2  A    between atoms: O_1  and  C_19
REMARK    3  A    between atoms: C_6  and  C_14
REMARK    4  A    between atoms: C_19  and  C_20
REMARK    5  A    between atoms: C_23  and  N_26
REMARK    6  A    between atoms: N_26  and  C_29
REMARK                            x       y       z     vdW  Elec       q    Type
REMARK                         _______ _______ _______ _____ _____    ______ ____
ROOT
ATOM      1  O   UNL     1      34.471 -18.955 -21.843  0.00  0.00    -0.421 OA
ENDROOT
BRANCH   1   9
ATOM      2  C   UNL     1      32.733 -21.051 -18.685  0.00  0.00    +0.000 C 
ATOM      3  C   UNL     1      34.142 -20.983 -18.798  0.00  0.00    +0.003 C 
ATOM      4  C   UNL     1      32.163 -21.761 -17.616  0.00  0.00    +0.003 C 
ATOM      5  C   UNL     1      34.711 -20.273 -19.868  0.00  0.00    +0.038 C 
ATOM      6  C   UNL     1      32.971 -22.394 -16.671  0.00  0.00    +0.031 C 
ATOM      7  C   UNL     1      34.940 -21.625 -17.839  0.00  0.00    +0.000 C 
ATOM      8  C   UNL     1      31.934 -20.408 -19.646  0.00  0.00    +0.003 C 
ATOM      9  C   UNL     1      33.903 -19.640 -20.813  0.00  0.00    +0.149 C 
ATOM     10  C   UNL     1      34.357 -22.327 -16.782  0.00  0.00    +0.003 C 
ATOM     11  C   UNL     1      32.518 -19.707 -20.702  0.00  0.00    +0.038 C 
BRANCH   6  14
ATOM     12  N   UNL     1      33.146 -23.797 -14.630  0.00  0.00    -0.343 N 
ATOM     13  N   UNL     1      31.050 -23.164 -15.450  0.00  0.00    -0.285 NA
ATOM     14  C   UNL     1      32.366 -23.126 -15.570  0.00  0.00    +0.117 C 
ATOM     15  H   UNL     1      32.714 -24.286 -13.892  0.00  0.00    +0.144 HD
ATOM     16  H   UNL     1      34.127 -23.783 -14.704  0.00  0.00    +0.144 HD
ATOM     17  H   UNL     1      30.639 -23.659 -14.704  0.00  0.00    +0.188 HD
ENDBRANCH   6  14
ENDBRANCH   1   9
BRANCH   1  19
ATOM     18  O   UNL     1      36.069 -17.624 -20.791  0.00  0.00    -0.244 OA
ATOM     19  C   UNL     1      35.061 -17.744 -21.473  0.00  0.00    +0.346 C 
BRANCH  19  20
ATOM     20  C   UNL     1      34.311 -16.588 -22.026  0.00  0.00    +0.076 C 
ATOM     21  C   UNL     1      33.992 -15.538 -21.190  0.00  0.00    +0.008 C 
ATOM     22  C   UNL     1      33.958 -16.600 -23.360  0.00  0.00    +0.008 C 
ATOM     23  C   UNL     1      32.922 -14.438 -23.055  0.00  0.00    +0.084 C 
ATOM     24  C   UNL     1      33.290 -14.452 -21.710  0.00  0.00    +0.019 C 
ATOM     25  C   UNL     1      33.255 -15.512 -23.880  0.00  0.00    +0.019 C 
BRANCH  23  26
ATOM     26  N   UNL     1      32.217 -13.350 -23.577  0.00  0.00    -0.214 NA
BRANCH  26  29
ATOM     27  N   UNL     1      32.873 -12.148 -25.469  0.00  0.00    -0.370 N 
ATOM     28  N   UNL     1      33.664 -11.426 -23.454  0.00  0.00    -0.370 N 
ATOM     29  C   UNL     1      32.888 -12.356 -24.110  0.00  0.00    +0.193 C 
ATOM     30  H   UNL     1      32.354 -12.746 -26.054  0.00  0.00    +0.159 HD
ATOM     31  H   UNL     1      33.381 -11.399 -25.858  0.00  0.00    +0.159 HD
ATOM     32  H   UNL     1      33.757 -11.466 -22.475  0.00  0.00    +0.159 HD
ATOM     33  H   UNL     1      34.124 -10.720 -23.965  0.00  0.00    +0.159 HD
ENDBRANCH  26  29
ENDBRANCH  23  26
ENDBRANCH  19  20
ENDBRANCH   1  19
TORSDOF 6
ENDMDL
