MODEL 1
REMARK VINA RESULT:     -12.4      0.000      0.000
REMARK  Name = 68488178
REMARK  9 active torsions:
REMARK  status: ('A' for Active; 'I' for Inactive)
REMARK    1  A    between atoms: N_1  and  C_10
REMARK    2  A    between atoms: N_2  and  C_29
REMARK    3  A    between atoms: C_10  and  C_11
REMARK    4  A    between atoms: C_16  and  O_17
REMARK    5  A    between atoms: O_17  and  C_18
REMARK    6  A    between atoms: C_23  and  C_26
REMARK    7  A    between atoms: C_29  and  C_30
REMARK    8  A    between atoms: C_35  and  C_37
REMARK    9  A    between atoms: C_37  and  O_38
REMARK                            x       y       z     vdW  Elec       q    Type
REMARK                         _______ _______ _______ _____ _____    ______ ____
ROOT
ATOM      1  N   UNL     1      32.203 -23.104 -16.392  0.00  0.00    +0.388 N 
ATOM      2  N   UNL     1      33.243 -24.446 -14.163  0.00  0.00    +0.388 N 
ATOM      3  C   UNL     1      33.325 -22.563 -15.588  0.00  0.00    -0.081 C 
ATOM      4  C   UNL     1      32.079 -23.530 -14.072  0.00  0.00    -0.081 C 
ATOM      5  C   UNL     1      32.677 -22.150 -14.278  0.00  0.00    -0.046 C 
ATOM      6  C   UNL     1      31.291 -23.701 -15.384  0.00  0.00    -0.098 C 
ATOM      7  C   UNL     1      34.152 -23.778 -15.128  0.00  0.00    -0.098 C 
ATOM      8  H   UNL     1      32.522 -23.786 -17.082  0.00  0.00    -0.079 HD
ATOM      9  H   UNL     1      32.970 -25.381 -14.467  0.00  0.00    -0.079 HD
ENDROOT
BRANCH   1  10
ATOM     10  C   UNL     1      31.541 -22.081 -17.192  0.00  0.00    -0.050 C 
BRANCH  10  11
ATOM     11  C   UNL     1      32.490 -21.424 -18.159  0.00  0.00    -0.043 C 
ATOM     12  C   UNL     1      33.857 -21.693 -18.086  0.00  0.00    -0.003 C 
ATOM     13  C   UNL     1      32.002 -20.547 -19.129  0.00  0.00    -0.003 C 
ATOM     14  C   UNL     1      34.737 -21.085 -18.982  0.00  0.00    +0.037 C 
ATOM     15  C   UNL     1      32.882 -19.939 -20.024  0.00  0.00    +0.037 C 
ATOM     16  C   UNL     1      34.249 -20.208 -19.951  0.00  0.00    +0.145 C 
BRANCH  16  17
ATOM     17  O   UNL     1      35.108 -19.614 -20.824  0.00  0.00    -0.453 OA
BRANCH  17  18
ATOM     18  C   UNL     1      34.618 -18.581 -21.606  0.00  0.00    +0.145 C 
ATOM     19  C   UNL     1      34.097 -18.851 -22.872  0.00  0.00    +0.038 C 
ATOM     20  C   UNL     1      34.645 -17.271 -21.129  0.00  0.00    +0.038 C 
ATOM     21  C   UNL     1      33.607 -17.811 -23.661  0.00  0.00    +0.008 C 
ATOM     22  C   UNL     1      34.155 -16.231 -21.918  0.00  0.00    +0.008 C 
ATOM     23  C   UNL     1      33.635 -16.501 -23.185  0.00  0.00    +0.054 C 
BRANCH  23  26
ATOM     24  O   UNL     1      33.129 -14.199 -23.409  0.00  0.00    -0.431 OA
ATOM     25  N   UNL     1      32.666 -15.458 -25.230  0.00  0.00    -0.206 NA
ATOM     26  C   UNL     1      33.128 -15.425 -24.001  0.00  0.00    +0.230 C 
ATOM     27  C   UNL     1      32.614 -13.381 -24.369  0.00  0.00    +0.202 C 
ATOM     28  C   UNL     1      32.335 -14.149 -25.472  0.00  0.00    +0.143 C 
ENDBRANCH  23  26
ENDBRANCH  17  18
ENDBRANCH  16  17
ENDBRANCH  10  11
ENDBRANCH   1  10
BRANCH   2  29
ATOM     29  C   UNL     1      33.882 -24.670 -12.872  0.00  0.00    -0.050 C 
BRANCH  29  30
ATOM     30  C   UNL     1      35.364 -24.898 -13.012  0.00  0.00    -0.043 C 
ATOM     31  C   UNL     1      35.836 -25.977 -13.760  0.00  0.00    -0.006 C 
ATOM     32  C   UNL     1      36.265 -24.030 -12.393  0.00  0.00    -0.006 C 
ATOM     33  C   UNL     1      37.208 -26.188 -13.889  0.00  0.00    +0.006 C 
ATOM     34  C   UNL     1      37.637 -24.242 -12.522  0.00  0.00    +0.006 C 
ATOM     35  C   UNL     1      38.110 -25.320 -13.271  0.00  0.00    +0.075 C 
BRANCH  35  37
ATOM     36  O   UNL     1      40.133 -26.587 -13.127  0.00  0.00    -0.245 OA
ATOM     37  C   UNL     1      39.540 -25.540 -13.407  0.00  0.00    +0.338 C 
BRANCH  37  38
ATOM     38  O   UNL     1      40.191 -24.447 -13.889  0.00  0.00    -0.477 OA
ATOM     39  H   UNL     1      40.990 -24.163 -13.490  0.00  0.00    +0.295 HD
ENDBRANCH  37  38
ENDBRANCH  35  37
ENDBRANCH  29  30
ENDBRANCH   2  29
TORSDOF 9
ENDMDL
MODEL 2
REMARK VINA RESULT:     -12.1      4.965     14.740
REMARK  Name = 68488178
REMARK  9 active torsions:
REMARK  status: ('A' for Active; 'I' for Inactive)
REMARK    1  A    between atoms: N_1  and  C_10
REMARK    2  A    between atoms: N_2  and  C_29
REMARK    3  A    between atoms: C_10  and  C_11
REMARK    4  A    between atoms: C_16  and  O_17
REMARK    5  A    between atoms: O_17  and  C_18
REMARK    6  A    between atoms: C_23  and  C_26
REMARK    7  A    between atoms: C_29  and  C_30
REMARK    8  A    between atoms: C_35  and  C_37
REMARK    9  A    between atoms: C_37  and  O_38
REMARK                            x       y       z     vdW  Elec       q    Type
REMARK                         _______ _______ _______ _____ _____    ______ ____
ROOT
ATOM      1  N   UNL     1      33.196 -11.901 -23.294  0.00  0.00    +0.388 N 
ATOM      2  N   UNL     1      34.036  -9.228 -23.280  0.00  0.00    +0.388 N 
ATOM      3  C   UNL     1      33.417 -11.128 -24.540  0.00  0.00    -0.081 C 
ATOM      4  C   UNL     1      32.607  -9.616 -23.182  0.00  0.00    -0.081 C 
ATOM      5  C   UNL     1      32.269 -10.134 -24.568  0.00  0.00    -0.046 C 
ATOM      6  C   UNL     1      32.570 -10.923 -22.369  0.00  0.00    -0.098 C 
ATOM      7  C   UNL     1      34.603 -10.188 -24.260  0.00  0.00    -0.098 C 
ATOM      8  H   UNL     1      34.066 -12.285 -22.924  0.00  0.00    -0.079 HD
ATOM      9  H   UNL     1      34.506  -9.271 -22.375  0.00  0.00    -0.079 HD
ENDROOT
BRANCH   1  10
ATOM     10  C   UNL     1      32.356 -13.075 -23.503  0.00  0.00    -0.050 C 
BRANCH  10  11
ATOM     11  C   UNL     1      33.102 -14.353 -23.228  0.00  0.00    -0.043 C 
ATOM     12  C   UNL     1      33.342 -15.256 -24.265  0.00  0.00    -0.003 C 
ATOM     13  C   UNL     1      33.551 -14.636 -21.938  0.00  0.00    -0.003 C 
ATOM     14  C   UNL     1      34.033 -16.442 -24.011  0.00  0.00    +0.037 C 
ATOM     15  C   UNL     1      34.241 -15.821 -21.684  0.00  0.00    +0.037 C 
ATOM     16  C   UNL     1      34.482 -16.724 -22.720  0.00  0.00    +0.145 C 
BRANCH  16  17
ATOM     17  O   UNL     1      35.155 -17.881 -22.472  0.00  0.00    -0.453 OA
BRANCH  17  18
ATOM     18  C   UNL     1      34.655 -18.718 -21.489  0.00  0.00    +0.145 C 
ATOM     19  C   UNL     1      33.291 -19.007 -21.446  0.00  0.00    +0.038 C 
ATOM     20  C   UNL     1      35.515 -19.271 -20.540  0.00  0.00    +0.038 C 
ATOM     21  C   UNL     1      32.787 -19.847 -20.454  0.00  0.00    +0.008 C 
ATOM     22  C   UNL     1      35.011 -20.112 -19.548  0.00  0.00    +0.008 C 
ATOM     23  C   UNL     1      33.646 -20.401 -19.505  0.00  0.00    +0.054 C 
BRANCH  23  26
ATOM     24  O   UNL     1      34.063 -21.870 -17.697  0.00  0.00    -0.431 OA
ATOM     25  N   UNL     1      31.877 -21.564 -18.189  0.00  0.00    -0.206 NA
ATOM     26  C   UNL     1      33.125 -21.269 -18.478  0.00  0.00    +0.230 C 
ATOM     27  C   UNL     1      33.325 -22.618 -16.830  0.00  0.00    +0.202 C 
ATOM     28  C   UNL     1      31.999 -22.428 -17.132  0.00  0.00    +0.143 C 
ENDBRANCH  23  26
ENDBRANCH  17  18
ENDBRANCH  16  17
ENDBRANCH  10  11
ENDBRANCH   1  10
BRANCH   2  29
ATOM     29  C   UNL     1      34.214  -7.843 -23.702  0.00  0.00    -0.050 C 
BRANCH  29  30
ATOM     30  C   UNL     1      33.201  -6.929 -23.065  0.00  0.00    -0.043 C 
ATOM     31  C   UNL     1      33.009  -6.956 -21.683  0.00  0.00    -0.006 C 
ATOM     32  C   UNL     1      32.455  -6.055 -23.856  0.00  0.00    -0.006 C 
ATOM     33  C   UNL     1      32.071  -6.110 -21.094  0.00  0.00    +0.006 C 
ATOM     34  C   UNL     1      31.516  -5.209 -23.266  0.00  0.00    +0.006 C 
ATOM     35  C   UNL     1      31.325  -5.235 -21.884  0.00  0.00    +0.075 C 
BRANCH  35  37
ATOM     36  O   UNL     1      29.508  -3.679 -21.876  0.00  0.00    -0.245 OA
ATOM     37  C   UNL     1      30.347  -4.353 -21.269  0.00  0.00    +0.338 C 
BRANCH  37  38
ATOM     38  O   UNL     1      30.442  -4.337 -19.911  0.00  0.00    -0.477 OA
ATOM     39  H   UNL     1      31.284  -4.361 -19.500  0.00  0.00    +0.295 HD
ENDBRANCH  37  38
ENDBRANCH  35  37
ENDBRANCH  29  30
ENDBRANCH   2  29
TORSDOF 9
ENDMDL
MODEL 3
REMARK VINA RESULT:     -11.6      3.716     13.541
REMARK  Name = 68488178
REMARK  9 active torsions:
REMARK  status: ('A' for Active; 'I' for Inactive)
REMARK    1  A    between atoms: N_1  and  C_10
REMARK    2  A    between atoms: N_2  and  C_29
REMARK    3  A    between atoms: C_10  and  C_11
REMARK    4  A    between atoms: C_16  and  O_17
REMARK    5  A    between atoms: O_17  and  C_18
REMARK    6  A    between atoms: C_23  and  C_26
REMARK    7  A    between atoms: C_29  and  C_30
REMARK    8  A    between atoms: C_35  and  C_37
REMARK    9  A    between atoms: C_37  and  O_38
REMARK                            x       y       z     vdW  Elec       q    Type
REMARK                         _______ _______ _______ _____ _____    ______ ____
ROOT
ATOM      1  N   UNL     1      32.271 -14.312 -24.240  0.00  0.00    +0.388 N 
ATOM      2  N   UNL     1      32.689 -11.542 -24.235  0.00  0.00    +0.388 N 
ATOM      3  C   UNL     1      33.627 -13.710 -24.240  0.00  0.00    -0.081 C 
ATOM      4  C   UNL     1      32.488 -12.316 -25.484  0.00  0.00    -0.081 C 
ATOM      5  C   UNL     1      33.769 -13.118 -25.631  0.00  0.00    -0.046 C 
ATOM      6  C   UNL     1      31.486 -13.435 -25.143  0.00  0.00    -0.098 C 
ATOM      7  C   UNL     1      33.530 -12.429 -23.392  0.00  0.00    -0.098 C 
ATOM      8  H   UNL     1      31.875 -14.360 -23.300  0.00  0.00    -0.079 HD
ATOM      9  H   UNL     1      31.803 -11.303 -23.787  0.00  0.00    -0.079 HD
ENDROOT
BRANCH   1  10
ATOM     10  C   UNL     1      32.274 -15.700 -24.688  0.00  0.00    -0.050 C 
BRANCH  10  11
ATOM     11  C   UNL     1      33.072 -16.585 -23.769  0.00  0.00    -0.043 C 
ATOM     12  C   UNL     1      33.754 -16.031 -22.686  0.00  0.00    -0.003 C 
ATOM     13  C   UNL     1      33.131 -17.960 -24.001  0.00  0.00    -0.003 C 
ATOM     14  C   UNL     1      34.494 -16.850 -21.834  0.00  0.00    +0.037 C 
ATOM     15  C   UNL     1      33.871 -18.780 -23.149  0.00  0.00    +0.037 C 
ATOM     16  C   UNL     1      34.553 -18.225 -22.066  0.00  0.00    +0.145 C 
BRANCH  16  17
ATOM     17  O   UNL     1      35.276 -19.025 -21.235  0.00  0.00    -0.453 OA
BRANCH  17  18
ATOM     18  C   UNL     1      34.583 -19.777 -20.301  0.00  0.00    +0.145 C 
ATOM     19  C   UNL     1      33.189 -19.738 -20.270  0.00  0.00    +0.038 C 
ATOM     20  C   UNL     1      35.278 -20.572 -19.390  0.00  0.00    +0.038 C 
ATOM     21  C   UNL     1      32.491 -20.492 -19.328  0.00  0.00    +0.008 C 
ATOM     22  C   UNL     1      34.580 -21.326 -18.447  0.00  0.00    +0.008 C 
ATOM     23  C   UNL     1      33.185 -21.287 -18.416  0.00  0.00    +0.054 C 
BRANCH  23  26
ATOM     24  O   UNL     1      33.231 -22.886 -16.671  0.00  0.00    -0.431 OA
ATOM     25  N   UNL     1      31.175 -22.100 -17.188  0.00  0.00    -0.206 NA
ATOM     26  C   UNL     1      32.464 -22.067 -17.441  0.00  0.00    +0.230 C 
ATOM     27  C   UNL     1      32.327 -23.495 -15.854  0.00  0.00    +0.202 C 
ATOM     28  C   UNL     1      31.082 -23.014 -16.171  0.00  0.00    +0.143 C 
ENDBRANCH  23  26
ENDBRANCH  17  18
ENDBRANCH  16  17
ENDBRANCH  10  11
ENDBRANCH   1  10
BRANCH   2  29
ATOM     29  C   UNL     1      33.320 -10.249 -24.471  0.00  0.00    -0.050 C 
BRANCH  29  30
ATOM     30  C   UNL     1      33.007  -9.264 -23.377  0.00  0.00    -0.043 C 
ATOM     31  C   UNL     1      31.907  -9.473 -22.544  0.00  0.00    -0.006 C 
ATOM     32  C   UNL     1      33.816  -8.141 -23.195  0.00  0.00    -0.006 C 
ATOM     33  C   UNL     1      31.618  -8.559 -21.531  0.00  0.00    +0.006 C 
ATOM     34  C   UNL     1      33.526  -7.229 -22.182  0.00  0.00    +0.006 C 
ATOM     35  C   UNL     1      32.427  -7.438 -21.348  0.00  0.00    +0.075 C 
BRANCH  35  37
ATOM     36  O   UNL     1      31.545  -5.407 -20.444  0.00  0.00    -0.245 OA
ATOM     37  C   UNL     1      32.124  -6.487 -20.292  0.00  0.00    +0.338 C 
BRANCH  37  38
ATOM     38  O   UNL     1      32.553  -6.911 -19.071  0.00  0.00    -0.477 OA
ATOM     39  H   UNL     1      31.933  -7.078 -18.389  0.00  0.00    +0.295 HD
ENDBRANCH  37  38
ENDBRANCH  35  37
ENDBRANCH  29  30
ENDBRANCH   2  29
TORSDOF 9
ENDMDL
MODEL 4
REMARK VINA RESULT:     -11.5      4.136      7.516
REMARK  Name = 68488178
REMARK  9 active torsions:
REMARK  status: ('A' for Active; 'I' for Inactive)
REMARK    1  A    between atoms: N_1  and  C_10
REMARK    2  A    between atoms: N_2  and  C_29
REMARK    3  A    between atoms: C_10  and  C_11
REMARK    4  A    between atoms: C_16  and  O_17
REMARK    5  A    between atoms: O_17  and  C_18
REMARK    6  A    between atoms: C_23  and  C_26
REMARK    7  A    between atoms: C_29  and  C_30
REMARK    8  A    between atoms: C_35  and  C_37
REMARK    9  A    between atoms: C_37  and  O_38
REMARK                            x       y       z     vdW  Elec       q    Type
REMARK                         _______ _______ _______ _____ _____    ______ ____
ROOT
ATOM      1  N   UNL     1      34.253 -17.440 -21.132  0.00  0.00    +0.388 N 
ATOM      2  N   UNL     1      34.228 -19.869 -19.736  0.00  0.00    +0.388 N 
ATOM      3  C   UNL     1      33.590 -18.657 -21.661  0.00  0.00    -0.081 C 
ATOM      4  C   UNL     1      35.340 -19.477 -20.636  0.00  0.00    -0.081 C 
ATOM      5  C   UNL     1      34.742 -19.576 -22.027  0.00  0.00    -0.046 C 
ATOM      6  C   UNL     1      35.493 -17.951 -20.495  0.00  0.00    -0.098 C 
ATOM      7  C   UNL     1      33.010 -19.397 -20.441  0.00  0.00    -0.098 C 
ATOM      8  H   UNL     1      33.656 -16.936 -20.475  0.00  0.00    -0.079 HD
ATOM      9  H   UNL     1      34.325 -19.457 -18.807  0.00  0.00    -0.079 HD
ENDROOT
BRANCH   1  10
ATOM     10  C   UNL     1      34.534 -16.458 -22.172  0.00  0.00    -0.050 C 
BRANCH  10  11
ATOM     11  C   UNL     1      33.730 -15.199 -21.987  0.00  0.00    -0.043 C 
ATOM     12  C   UNL     1      33.646 -14.604 -20.728  0.00  0.00    -0.003 C 
ATOM     13  C   UNL     1      33.070 -14.627 -23.075  0.00  0.00    -0.003 C 
ATOM     14  C   UNL     1      32.901 -13.437 -20.556  0.00  0.00    +0.037 C 
ATOM     15  C   UNL     1      32.325 -13.460 -22.903  0.00  0.00    +0.037 C 
ATOM     16  C   UNL     1      32.240 -12.865 -21.643  0.00  0.00    +0.145 C 
BRANCH  16  17
ATOM     17  O   UNL     1      31.512 -11.727 -21.476  0.00  0.00    -0.453 OA
BRANCH  17  18
ATOM     18  C   UNL     1      31.971 -10.573 -22.089  0.00  0.00    +0.145 C 
ATOM     19  C   UNL     1      31.426  -9.337 -21.745  0.00  0.00    +0.038 C 
ATOM     20  C   UNL     1      32.978 -10.648 -23.051  0.00  0.00    +0.038 C 
ATOM     21  C   UNL     1      31.885  -8.175 -22.364  0.00  0.00    +0.008 C 
ATOM     22  C   UNL     1      33.438  -9.486 -23.671  0.00  0.00    +0.008 C 
ATOM     23  C   UNL     1      32.892  -8.249 -23.327  0.00  0.00    +0.054 C 
BRANCH  23  26
ATOM     24  O   UNL     1      33.260  -7.034 -25.325  0.00  0.00    -0.431 OA
ATOM     25  N   UNL     1      33.888  -5.967 -23.432  0.00  0.00    -0.206 NA
ATOM     26  C   UNL     1      33.367  -7.047 -23.968  0.00  0.00    +0.230 C 
ATOM     27  C   UNL     1      33.767  -5.818 -25.673  0.00  0.00    +0.202 C 
ATOM     28  C   UNL     1      34.146  -5.174 -24.521  0.00  0.00    +0.143 C 
ENDBRANCH  23  26
ENDBRANCH  17  18
ENDBRANCH  16  17
ENDBRANCH  10  11
ENDBRANCH   1  10
BRANCH   2  29
ATOM     29  C   UNL     1      34.192 -21.304 -19.479  0.00  0.00    -0.050 C 
BRANCH  29  30
ATOM     30  C   UNL     1      34.535 -21.627 -18.050  0.00  0.00    -0.043 C 
ATOM     31  C   UNL     1      33.590 -22.242 -17.228  0.00  0.00    -0.006 C 
ATOM     32  C   UNL     1      35.797 -21.311 -17.546  0.00  0.00    -0.006 C 
ATOM     33  C   UNL     1      33.908 -22.540 -15.904  0.00  0.00    +0.006 C 
ATOM     34  C   UNL     1      36.114 -21.609 -16.221  0.00  0.00    +0.006 C 
ATOM     35  C   UNL     1      35.170 -22.225 -15.399  0.00  0.00    +0.075 C 
BRANCH  35  37
ATOM     36  O   UNL     1      36.643 -22.631 -13.560  0.00  0.00    -0.245 OA
ATOM     37  C   UNL     1      35.500 -22.537 -14.019  0.00  0.00    +0.338 C 
BRANCH  37  38
ATOM     38  O   UNL     1      34.394 -22.721 -13.248  0.00  0.00    -0.477 OA
ATOM     39  H   UNL     1      33.634 -22.188 -13.382  0.00  0.00    +0.295 HD
ENDBRANCH  37  38
ENDBRANCH  35  37
ENDBRANCH  29  30
ENDBRANCH   2  29
TORSDOF 9
ENDMDL
MODEL 5
REMARK VINA RESULT:     -11.5      3.053     12.384
REMARK  Name = 68488178
REMARK  9 active torsions:
REMARK  status: ('A' for Active; 'I' for Inactive)
REMARK    1  A    between atoms: N_1  and  C_10
REMARK    2  A    between atoms: N_2  and  C_29
REMARK    3  A    between atoms: C_10  and  C_11
REMARK    4  A    between atoms: C_16  and  O_17
REMARK    5  A    between atoms: O_17  and  C_18
REMARK    6  A    between atoms: C_23  and  C_26
REMARK    7  A    between atoms: C_29  and  C_30
REMARK    8  A    between atoms: C_35  and  C_37
REMARK    9  A    between atoms: C_37  and  O_38
REMARK                            x       y       z     vdW  Elec       q    Type
REMARK                         _______ _______ _______ _____ _____    ______ ____
ROOT
ATOM      1  N   UNL     1      33.938 -18.800 -20.894  0.00  0.00    +0.388 N 
ATOM      2  N   UNL     1      33.737 -16.222 -21.975  0.00  0.00    +0.388 N 
ATOM      3  C   UNL     1      34.961 -17.753 -20.655  0.00  0.00    -0.081 C 
ATOM      4  C   UNL     1      34.347 -17.354 -22.716  0.00  0.00    -0.081 C 
ATOM      5  C   UNL     1      35.659 -17.604 -21.994  0.00  0.00    -0.046 C 
ATOM      6  C   UNL     1      33.553 -18.611 -22.315  0.00  0.00    -0.098 C 
ATOM      7  C   UNL     1      34.201 -16.417 -20.577  0.00  0.00    -0.098 C 
ATOM      8  H   UNL     1      33.143 -18.709 -20.259  0.00  0.00    -0.079 HD
ATOM      9  H   UNL     1      32.719 -16.220 -22.051  0.00  0.00    -0.079 HD
ENDROOT
BRANCH   1  10
ATOM     10  C   UNL     1      34.439 -20.144 -20.635  0.00  0.00    -0.050 C 
BRANCH  10  11
ATOM     11  C   UNL     1      33.674 -20.826 -19.532  0.00  0.00    -0.043 C 
ATOM     12  C   UNL     1      34.312 -21.762 -18.717  0.00  0.00    -0.003 C 
ATOM     13  C   UNL     1      32.329 -20.521 -19.325  0.00  0.00    -0.003 C 
ATOM     14  C   UNL     1      33.603 -22.394 -17.695  0.00  0.00    +0.037 C 
ATOM     15  C   UNL     1      31.620 -21.153 -18.303  0.00  0.00    +0.037 C 
ATOM     16  C   UNL     1      32.257 -22.090 -17.488  0.00  0.00    +0.145 C 
BRANCH  16  17
ATOM     17  O   UNL     1      31.566 -22.707 -16.491  0.00  0.00    -0.453 OA
BRANCH  17  18
ATOM     18  C   UNL     1      32.230 -22.948 -15.300  0.00  0.00    +0.145 C 
ATOM     19  C   UNL     1      33.610 -22.764 -15.222  0.00  0.00    +0.038 C 
ATOM     20  C   UNL     1      31.519 -23.375 -14.179  0.00  0.00    +0.038 C 
ATOM     21  C   UNL     1      34.280 -23.009 -14.024  0.00  0.00    +0.008 C 
ATOM     22  C   UNL     1      32.188 -23.621 -12.980  0.00  0.00    +0.008 C 
ATOM     23  C   UNL     1      33.570 -23.437 -12.902  0.00  0.00    +0.054 C 
BRANCH  23  26
ATOM     24  O   UNL     1      35.383 -22.946 -11.462  0.00  0.00    -0.431 OA
ATOM     25  N   UNL     1      33.967 -24.537 -10.701  0.00  0.00    -0.206 NA
ATOM     26  C   UNL     1      34.262 -23.691 -11.663  0.00  0.00    +0.230 C 
ATOM     27  C   UNL     1      35.836 -23.371 -10.250  0.00  0.00    +0.202 C 
ATOM     28  C   UNL     1      34.973 -24.336  -9.792  0.00  0.00    +0.143 C 
ENDBRANCH  23  26
ENDBRANCH  17  18
ENDBRANCH  16  17
ENDBRANCH  10  11
ENDBRANCH   1  10
BRANCH   2  29
ATOM     29  C   UNL     1      34.131 -14.924 -22.508  0.00  0.00    -0.050 C 
BRANCH  29  30
ATOM     30  C   UNL     1      33.232 -13.820 -22.018  0.00  0.00    -0.043 C 
ATOM     31  C   UNL     1      32.599 -13.935 -20.781  0.00  0.00    -0.006 C 
ATOM     32  C   UNL     1      33.032 -12.683 -22.802  0.00  0.00    -0.006 C 
ATOM     33  C   UNL     1      31.765 -12.913 -20.328  0.00  0.00    +0.006 C 
ATOM     34  C   UNL     1      32.199 -11.662 -22.349  0.00  0.00    +0.006 C 
ATOM     35  C   UNL     1      31.565 -11.776 -21.111  0.00  0.00    +0.075 C 
BRANCH  35  37
ATOM     36  O   UNL     1      31.045  -9.545 -20.421  0.00  0.00    -0.245 OA
ATOM     37  C   UNL     1      30.697 -10.710 -20.638  0.00  0.00    +0.338 C 
BRANCH  37  38
ATOM     38  O   UNL     1      29.416 -11.129 -20.449  0.00  0.00    -0.477 OA
ATOM     39  H   UNL     1      29.101 -11.299 -19.582  0.00  0.00    +0.295 HD
ENDBRANCH  37  38
ENDBRANCH  35  37
ENDBRANCH  29  30
ENDBRANCH   2  29
TORSDOF 9
ENDMDL
MODEL 6
REMARK VINA RESULT:     -11.2      4.657      8.316
REMARK  Name = 68488178
REMARK  9 active torsions:
REMARK  status: ('A' for Active; 'I' for Inactive)
REMARK    1  A    between atoms: N_1  and  C_10
REMARK    2  A    between atoms: N_2  and  C_29
REMARK    3  A    between atoms: C_10  and  C_11
REMARK    4  A    between atoms: C_16  and  O_17
REMARK    5  A    between atoms: O_17  and  C_18
REMARK    6  A    between atoms: C_23  and  C_26
REMARK    7  A    between atoms: C_29  and  C_30
REMARK    8  A    between atoms: C_35  and  C_37
REMARK    9  A    between atoms: C_37  and  O_38
REMARK                            x       y       z     vdW  Elec       q    Type
REMARK                         _______ _______ _______ _____ _____    ______ ____
ROOT
ATOM      1  N   UNL     1      34.047 -17.038 -21.719  0.00  0.00    +0.388 N 
ATOM      2  N   UNL     1      34.536 -19.361 -20.230  0.00  0.00    +0.388 N 
ATOM      3  C   UNL     1      34.678 -18.244 -22.307  0.00  0.00    -0.081 C 
ATOM      4  C   UNL     1      35.491 -18.227 -20.277  0.00  0.00    -0.081 C 
ATOM      5  C   UNL     1      36.061 -18.281 -21.683  0.00  0.00    -0.046 C 
ATOM      6  C   UNL     1      34.639 -16.947 -20.360  0.00  0.00    -0.098 C 
ATOM      7  C   UNL     1      34.020 -19.454 -21.620  0.00  0.00    -0.098 C 
ATOM      8  H   UNL     1      33.029 -17.112 -21.696  0.00  0.00    -0.079 HD
ATOM      9  H   UNL     1      33.792 -19.207 -19.548  0.00  0.00    -0.079 HD
ENDROOT
BRANCH   1  10
ATOM     10  C   UNL     1      34.292 -15.835 -22.506  0.00  0.00    -0.050 C 
BRANCH  10  11
ATOM     11  C   UNL     1      33.407 -14.695 -22.078  0.00  0.00    -0.043 C 
ATOM     12  C   UNL     1      33.378 -14.299 -20.741  0.00  0.00    -0.003 C 
ATOM     13  C   UNL     1      32.617 -14.034 -23.019  0.00  0.00    -0.003 C 
ATOM     14  C   UNL     1      32.558 -13.242 -20.344  0.00  0.00    +0.037 C 
ATOM     15  C   UNL     1      31.797 -12.978 -22.622  0.00  0.00    +0.037 C 
ATOM     16  C   UNL     1      31.768 -12.582 -21.285  0.00  0.00    +0.145 C 
BRANCH  16  17
ATOM     17  O   UNL     1      30.967 -11.551 -20.898  0.00  0.00    -0.453 OA
BRANCH  17  18
ATOM     18  C   UNL     1      31.224 -10.300 -21.433  0.00  0.00    +0.145 C 
ATOM     19  C   UNL     1      32.259 -10.135 -22.353  0.00  0.00    +0.038 C 
ATOM     20  C   UNL     1      30.449  -9.205 -21.051  0.00  0.00    +0.038 C 
ATOM     21  C   UNL     1      32.520  -8.874 -22.890  0.00  0.00    +0.008 C 
ATOM     22  C   UNL     1      30.710  -7.945 -21.588  0.00  0.00    +0.008 C 
ATOM     23  C   UNL     1      31.746  -7.779 -22.508  0.00  0.00    +0.054 C 
BRANCH  23  26
ATOM     24  O   UNL     1      31.175  -5.486 -22.654  0.00  0.00    -0.431 OA
ATOM     25  N   UNL     1      32.954  -6.106 -23.905  0.00  0.00    -0.206 NA
ATOM     26  C   UNL     1      32.016  -6.475 -23.063  0.00  0.00    +0.230 C 
ATOM     27  C   UNL     1      31.637  -4.384 -23.309  0.00  0.00    +0.202 C 
ATOM     28  C   UNL     1      32.716  -4.765 -24.066  0.00  0.00    +0.143 C 
ENDBRANCH  23  26
ENDBRANCH  17  18
ENDBRANCH  16  17
ENDBRANCH  10  11
ENDBRANCH   1  10
BRANCH   2  29
ATOM     29  C   UNL     1      35.160 -20.604 -19.792  0.00  0.00    -0.050 C 
BRANCH  29  30
ATOM     30  C   UNL     1      34.401 -21.244 -18.661  0.00  0.00    -0.043 C 
ATOM     31  C   UNL     1      33.026 -21.451 -18.773  0.00  0.00    -0.006 C 
ATOM     32  C   UNL     1      35.073 -21.630 -17.500  0.00  0.00    -0.006 C 
ATOM     33  C   UNL     1      32.323 -22.043 -17.724  0.00  0.00    +0.006 C 
ATOM     34  C   UNL     1      34.369 -22.222 -16.452  0.00  0.00    +0.006 C 
ATOM     35  C   UNL     1      32.994 -22.430 -16.564  0.00  0.00    +0.075 C 
BRANCH  35  37
ATOM     36  O   UNL     1      32.761 -23.491 -14.433  0.00  0.00    -0.245 OA
ATOM     37  C   UNL     1      32.261 -23.048 -15.472  0.00  0.00    +0.338 C 
BRANCH  37  38
ATOM     38  O   UNL     1      30.921 -23.096 -15.706  0.00  0.00    -0.477 OA
ATOM     39  H   UNL     1      30.444 -23.887 -15.544  0.00  0.00    +0.295 HD
ENDBRANCH  37  38
ENDBRANCH  35  37
ENDBRANCH  29  30
ENDBRANCH   2  29
TORSDOF 9
ENDMDL
MODEL 7
REMARK VINA RESULT:     -11.1      3.571      6.159
REMARK  Name = 68488178
REMARK  9 active torsions:
REMARK  status: ('A' for Active; 'I' for Inactive)
REMARK    1  A    between atoms: N_1  and  C_10
REMARK    2  A    between atoms: N_2  and  C_29
REMARK    3  A    between atoms: C_10  and  C_11
REMARK    4  A    between atoms: C_16  and  O_17
REMARK    5  A    between atoms: O_17  and  C_18
REMARK    6  A    between atoms: C_23  and  C_26
REMARK    7  A    between atoms: C_29  and  C_30
REMARK    8  A    between atoms: C_35  and  C_37
REMARK    9  A    between atoms: C_37  and  O_38
REMARK                            x       y       z     vdW  Elec       q    Type
REMARK                         _______ _______ _______ _____ _____    ______ ____
ROOT
ATOM      1  N   UNL     1      34.823 -19.213 -19.730  0.00  0.00    +0.388 N 
ATOM      2  N   UNL     1      33.511 -21.282 -18.370  0.00  0.00    +0.388 N 
ATOM      3  C   UNL     1      33.774 -20.046 -20.366  0.00  0.00    -0.081 C 
ATOM      4  C   UNL     1      34.801 -21.482 -19.075  0.00  0.00    -0.081 C 
ATOM      5  C   UNL     1      34.434 -21.401 -20.546  0.00  0.00    -0.046 C 
ATOM      6  C   UNL     1      35.595 -20.175 -18.903  0.00  0.00    -0.098 C 
ATOM      7  C   UNL     1      32.751 -20.369 -19.261  0.00  0.00    -0.098 C 
ATOM      8  H   UNL     1      34.425 -18.455 -19.175  0.00  0.00    -0.079 HD
ATOM      9  H   UNL     1      33.643 -20.893 -17.435  0.00  0.00    -0.079 HD
ENDROOT
BRANCH   1  10
ATOM     10  C   UNL     1      35.664 -18.528 -20.704  0.00  0.00    -0.050 C 
BRANCH  10  11
ATOM     11  C   UNL     1      34.852 -17.695 -21.659  0.00  0.00    -0.043 C 
ATOM     12  C   UNL     1      34.452 -18.230 -22.885  0.00  0.00    -0.003 C 
ATOM     13  C   UNL     1      34.499 -16.389 -21.320  0.00  0.00    -0.003 C 
ATOM     14  C   UNL     1      33.699 -17.458 -23.770  0.00  0.00    +0.037 C 
ATOM     15  C   UNL     1      33.747 -15.617 -22.205  0.00  0.00    +0.037 C 
ATOM     16  C   UNL     1      33.347 -16.152 -23.430  0.00  0.00    +0.145 C 
BRANCH  16  17
ATOM     17  O   UNL     1      32.613 -15.399 -24.294  0.00  0.00    -0.453 OA
BRANCH  17  18
ATOM     18  C   UNL     1      32.781 -14.024 -24.253  0.00  0.00    +0.145 C 
ATOM     19  C   UNL     1      32.641 -13.270 -25.417  0.00  0.00    +0.038 C 
ATOM     20  C   UNL     1      33.091 -13.396 -23.047  0.00  0.00    +0.038 C 
ATOM     21  C   UNL     1      32.813 -11.886 -25.376  0.00  0.00    +0.008 C 
ATOM     22  C   UNL     1      33.264 -12.013 -23.006  0.00  0.00    +0.008 C 
ATOM     23  C   UNL     1      33.124 -11.257 -24.171  0.00  0.00    +0.054 C 
BRANCH  23  26
ATOM     24  O   UNL     1      32.212  -9.096 -24.490  0.00  0.00    -0.431 OA
ATOM     25  N   UNL     1      34.364  -9.128 -23.793  0.00  0.00    -0.206 NA
ATOM     26  C   UNL     1      33.302  -9.826 -24.129  0.00  0.00    +0.230 C 
ATOM     27  C   UNL     1      32.637  -7.807 -24.367  0.00  0.00    +0.202 C 
ATOM     28  C   UNL     1      33.942  -7.832 -23.943  0.00  0.00    +0.143 C 
ENDBRANCH  23  26
ENDBRANCH  17  18
ENDBRANCH  16  17
ENDBRANCH  10  11
ENDBRANCH   1  10
BRANCH   2  29
ATOM     29  C   UNL     1      32.801 -22.533 -18.131  0.00  0.00    -0.050 C 
BRANCH  29  30
ATOM     30  C   UNL     1      32.422 -22.695 -16.683  0.00  0.00    -0.043 C 
ATOM     31  C   UNL     1      31.078 -22.691 -16.310  0.00  0.00    -0.006 C 
ATOM     32  C   UNL     1      33.415 -22.848 -15.715  0.00  0.00    -0.006 C 
ATOM     33  C   UNL     1      30.727 -22.841 -14.969  0.00  0.00    +0.006 C 
ATOM     34  C   UNL     1      33.064 -22.997 -14.374  0.00  0.00    +0.006 C 
ATOM     35  C   UNL     1      31.719 -22.994 -14.000  0.00  0.00    +0.075 C 
BRANCH  35  37
ATOM     36  O   UNL     1      30.202 -23.280 -12.173  0.00  0.00    -0.245 OA
ATOM     37  C   UNL     1      31.353 -23.150 -12.602  0.00  0.00    +0.338 C 
BRANCH  37  38
ATOM     38  O   UNL     1      32.435 -23.141 -11.776  0.00  0.00    -0.477 OA
ATOM     39  H   UNL     1      32.400 -23.586 -10.952  0.00  0.00    +0.295 HD
ENDBRANCH  37  38
ENDBRANCH  35  37
ENDBRANCH  29  30
ENDBRANCH   2  29
TORSDOF 9
ENDMDL
MODEL 8
REMARK VINA RESULT:     -10.9      5.450     10.130
REMARK  Name = 68488178
REMARK  9 active torsions:
REMARK  status: ('A' for Active; 'I' for Inactive)
REMARK    1  A    between atoms: N_1  and  C_10
REMARK    2  A    between atoms: N_2  and  C_29
REMARK    3  A    between atoms: C_10  and  C_11
REMARK    4  A    between atoms: C_16  and  O_17
REMARK    5  A    between atoms: O_17  and  C_18
REMARK    6  A    between atoms: C_23  and  C_26
REMARK    7  A    between atoms: C_29  and  C_30
REMARK    8  A    between atoms: C_35  and  C_37
REMARK    9  A    between atoms: C_37  and  O_38
REMARK                            x       y       z     vdW  Elec       q    Type
REMARK                         _______ _______ _______ _____ _____    ______ ____
ROOT
ATOM      1  N   UNL     1      32.899 -15.287 -22.869  0.00  0.00    +0.388 N 
ATOM      2  N   UNL     1      33.954 -17.563 -21.622  0.00  0.00    +0.388 N 
ATOM      3  C   UNL     1      33.619 -16.345 -23.619  0.00  0.00    -0.081 C 
ATOM      4  C   UNL     1      34.704 -16.287 -21.720  0.00  0.00    -0.081 C 
ATOM      5  C   UNL     1      35.066 -16.183 -23.191  0.00  0.00    -0.046 C 
ATOM      6  C   UNL     1      33.660 -15.161 -21.601  0.00  0.00    -0.098 C 
ATOM      7  C   UNL     1      33.264 -17.677 -22.932  0.00  0.00    -0.098 C 
ATOM      8  H   UNL     1      31.919 -15.528 -22.714  0.00  0.00    -0.079 HD
ATOM      9  H   UNL     1      33.302 -17.564 -20.837  0.00  0.00    -0.079 HD
ENDROOT
BRANCH   1  10
ATOM     10  C   UNL     1      32.837 -14.026 -23.599  0.00  0.00    -0.050 C 
BRANCH  10  11
ATOM     11  C   UNL     1      32.368 -12.894 -22.724  0.00  0.00    -0.043 C 
ATOM     12  C   UNL     1      32.760 -11.585 -23.008  0.00  0.00    -0.003 C 
ATOM     13  C   UNL     1      31.541 -13.154 -21.631  0.00  0.00    -0.003 C 
ATOM     14  C   UNL     1      32.325 -10.536 -22.198  0.00  0.00    +0.037 C 
ATOM     15  C   UNL     1      31.106 -12.105 -20.821  0.00  0.00    +0.037 C 
ATOM     16  C   UNL     1      31.498 -10.796 -21.105  0.00  0.00    +0.145 C 
BRANCH  16  17
ATOM     17  O   UNL     1      31.074  -9.772 -20.313  0.00  0.00    -0.453 OA
BRANCH  17  18
ATOM     18  C   UNL     1      31.066  -8.499 -20.858  0.00  0.00    +0.145 C 
ATOM     19  C   UNL     1      30.202  -8.197 -21.911  0.00  0.00    +0.038 C 
ATOM     20  C   UNL     1      31.921  -7.519 -20.354  0.00  0.00    +0.038 C 
ATOM     21  C   UNL     1      30.196  -6.915 -22.461  0.00  0.00    +0.008 C 
ATOM     22  C   UNL     1      31.915  -6.238 -20.904  0.00  0.00    +0.008 C 
ATOM     23  C   UNL     1      31.051  -5.935 -21.958  0.00  0.00    +0.054 C 
BRANCH  23  26
ATOM     24  O   UNL     1      31.362  -4.546 -23.850  0.00  0.00    -0.431 OA
ATOM     25  N   UNL     1      30.778  -3.458 -21.956  0.00  0.00    -0.206 NA
ATOM     26  C   UNL     1      31.045  -4.610 -22.528  0.00  0.00    +0.230 C 
ATOM     27  C   UNL     1      31.286  -3.216 -24.132  0.00  0.00    +0.202 C 
ATOM     28  C   UNL     1      30.931  -2.560 -22.980  0.00  0.00    +0.143 C 
ENDBRANCH  23  26
ENDBRANCH  17  18
ENDBRANCH  16  17
ENDBRANCH  10  11
ENDBRANCH   1  10
BRANCH   2  29
ATOM     29  C   UNL     1      34.822 -18.705 -21.358  0.00  0.00    -0.050 C 
BRANCH  29  30
ATOM     30  C   UNL     1      34.218 -19.647 -20.350  0.00  0.00    -0.043 C 
ATOM     31  C   UNL     1      32.832 -19.724 -20.212  0.00  0.00    -0.006 C 
ATOM     32  C   UNL     1      35.044 -20.440 -19.554  0.00  0.00    -0.006 C 
ATOM     33  C   UNL     1      32.273 -20.596 -19.278  0.00  0.00    +0.006 C 
ATOM     34  C   UNL     1      34.485 -21.311 -18.620  0.00  0.00    +0.006 C 
ATOM     35  C   UNL     1      33.099 -21.390 -18.482  0.00  0.00    +0.075 C 
BRANCH  35  37
ATOM     36  O   UNL     1      33.117 -23.205 -16.924  0.00  0.00    -0.245 OA
ATOM     37  C   UNL     1      32.515 -22.299 -17.509  0.00  0.00    +0.338 C 
BRANCH  37  38
ATOM     38  O   UNL     1      31.195 -22.049 -17.290  0.00  0.00    -0.477 OA
ATOM     39  H   UNL     1      30.751 -22.465 -16.577  0.00  0.00    +0.295 HD
ENDBRANCH  37  38
ENDBRANCH  35  37
ENDBRANCH  29  30
ENDBRANCH   2  29
TORSDOF 9
ENDMDL
MODEL 9
REMARK VINA RESULT:     -10.9      5.067      8.136
REMARK  Name = 68488178
REMARK  9 active torsions:
REMARK  status: ('A' for Active; 'I' for Inactive)
REMARK    1  A    between atoms: N_1  and  C_10
REMARK    2  A    between atoms: N_2  and  C_29
REMARK    3  A    between atoms: C_10  and  C_11
REMARK    4  A    between atoms: C_16  and  O_17
REMARK    5  A    between atoms: O_17  and  C_18
REMARK    6  A    between atoms: C_23  and  C_26
REMARK    7  A    between atoms: C_29  and  C_30
REMARK    8  A    between atoms: C_35  and  C_37
REMARK    9  A    between atoms: C_37  and  O_38
REMARK                            x       y       z     vdW  Elec       q    Type
REMARK                         _______ _______ _______ _____ _____    ______ ____
ROOT
ATOM      1  N   UNL     1      34.586 -16.942 -20.724  0.00  0.00    +0.388 N 
ATOM      2  N   UNL     1      34.679 -19.589 -19.810  0.00  0.00    +0.388 N 
ATOM      3  C   UNL     1      33.825 -18.037 -21.373  0.00  0.00    -0.081 C 
ATOM      4  C   UNL     1      35.672 -19.039 -20.765  0.00  0.00    -0.081 C 
ATOM      5  C   UNL     1      34.891 -18.874 -22.056  0.00  0.00    -0.046 C 
ATOM      6  C   UNL     1      35.885 -17.566 -20.368  0.00  0.00    -0.098 C 
ATOM      7  C   UNL     1      33.392 -18.989 -20.244  0.00  0.00    -0.098 C 
ATOM      8  H   UNL     1      34.097 -16.568 -19.910  0.00  0.00    -0.079 HD
ATOM      9  H   UNL     1      34.911 -19.358 -18.843  0.00  0.00    -0.079 HD
ENDROOT
BRANCH   1  10
ATOM     10  C   UNL     1      34.755 -15.783 -21.593  0.00  0.00    -0.050 C 
BRANCH  10  11
ATOM     11  C   UNL     1      33.584 -14.842 -21.506  0.00  0.00    -0.043 C 
ATOM     12  C   UNL     1      33.056 -14.498 -20.261  0.00  0.00    -0.003 C 
ATOM     13  C   UNL     1      33.025 -14.312 -22.670  0.00  0.00    -0.003 C 
ATOM     14  C   UNL     1      31.971 -13.626 -20.179  0.00  0.00    +0.037 C 
ATOM     15  C   UNL     1      31.940 -13.440 -22.589  0.00  0.00    +0.037 C 
ATOM     16  C   UNL     1      31.413 -13.096 -21.343  0.00  0.00    +0.145 C 
BRANCH  16  17
ATOM     17  O   UNL     1      30.353 -12.246 -21.264  0.00  0.00    -0.453 OA
BRANCH  17  18
ATOM     18  C   UNL     1      30.582 -10.978 -20.755  0.00  0.00    +0.145 C 
ATOM     19  C   UNL     1      31.104  -9.980 -21.577  0.00  0.00    +0.038 C 
ATOM     20  C   UNL     1      30.291 -10.701 -19.419  0.00  0.00    +0.038 C 
ATOM     21  C   UNL     1      31.338  -8.705 -21.063  0.00  0.00    +0.008 C 
ATOM     22  C   UNL     1      30.525  -9.425 -18.905  0.00  0.00    +0.008 C 
ATOM     23  C   UNL     1      31.047  -8.426 -19.727  0.00  0.00    +0.054 C 
BRANCH  23  26
ATOM     24  O   UNL     1      31.972  -6.267 -20.020  0.00  0.00    -0.431 OA
ATOM     25  N   UNL     1      30.946  -6.602 -18.033  0.00  0.00    -0.206 NA
ATOM     26  C   UNL     1      31.289  -7.107 -19.196  0.00  0.00    +0.230 C 
ATOM     27  C   UNL     1      32.066  -5.117 -19.296  0.00  0.00    +0.202 C 
ATOM     28  C   UNL     1      31.441  -5.324 -18.092  0.00  0.00    +0.143 C 
ENDBRANCH  23  26
ENDBRANCH  17  18
ENDBRANCH  16  17
ENDBRANCH  10  11
ENDBRANCH   1  10
BRANCH   2  29
ATOM     29  C   UNL     1      34.637 -21.047 -19.821  0.00  0.00    -0.050 C 
BRANCH  29  30
ATOM     30  C   UNL     1      34.336 -21.609 -18.457  0.00  0.00    -0.043 C 
ATOM     31  C   UNL     1      33.097 -22.199 -18.205  0.00  0.00    -0.006 C 
ATOM     32  C   UNL     1      35.294 -21.539 -17.446  0.00  0.00    -0.006 C 
ATOM     33  C   UNL     1      32.817 -22.718 -16.942  0.00  0.00    +0.006 C 
ATOM     34  C   UNL     1      35.014 -22.058 -16.183  0.00  0.00    +0.006 C 
ATOM     35  C   UNL     1      33.775 -22.650 -15.930  0.00  0.00    +0.075 C 
BRANCH  35  37
ATOM     36  O   UNL     1      33.920 -24.257 -14.165  0.00  0.00    -0.245 OA
ATOM     37  C   UNL     1      33.484 -23.192 -14.614  0.00  0.00    +0.338 C 
BRANCH  37  38
ATOM     38  O   UNL     1      32.655 -22.389 -13.892  0.00  0.00    -0.477 OA
ATOM     39  H   UNL     1      32.780 -21.460 -13.897  0.00  0.00    +0.295 HD
ENDBRANCH  37  38
ENDBRANCH  35  37
ENDBRANCH  29  30
ENDBRANCH   2  29
TORSDOF 9
ENDMDL
