MODEL 1
REMARK VINA RESULT:     -12.4      0.000      0.000
REMARK  Name = 25174099
REMARK  5 active torsions:
REMARK  status: ('A' for Active; 'I' for Inactive)
REMARK    1  A    between atoms: C_5  and  C_33
REMARK    2  A    between atoms: C_14  and  C_18
REMARK    3  A    between atoms: N_17  and  C_20
REMARK    4  A    between atoms: C_20  and  C_24
REMARK    5  A    between atoms: C_33  and  C_36
REMARK                            x       y       z     vdW  Elec       q    Type
REMARK                         _______ _______ _______ _____ _____    ______ ____
ROOT
ATOM      1  S   UNL     1      36.444 -21.658 -15.759  0.00  0.00    -0.064 S 
ATOM      2  O   UNL     1      32.125 -22.320 -18.067  0.00  0.00    -0.274 OA
ATOM      3  N   UNL     1      35.874 -20.579 -18.142  0.00  0.00    -0.379 NA
ATOM      4  N   UNL     1      33.725 -21.010 -19.099  0.00  0.00    -0.255 N 
ATOM      5  C   UNL     1      32.877 -23.451 -15.240  0.00  0.00    +0.028 C 
ATOM      6  C   UNL     1      33.294 -24.462 -14.143  0.00  0.00    +0.005 C 
ATOM      7  C   UNL     1      34.078 -22.685 -15.743  0.00  0.00    -0.027 C 
ATOM      8  C   UNL     1      34.214 -23.833 -13.087  0.00  0.00    +0.006 C 
ATOM      9  C   UNL     1      35.512 -23.300 -13.707  0.00  0.00    +0.032 C 
ATOM     10  C   UNL     1      35.248 -22.606 -15.007  0.00  0.00    +0.002 C 
ATOM     11  C   UNL     1      34.202 -21.965 -16.977  0.00  0.00    +0.154 C 
ATOM     12  C   UNL     1      35.439 -21.347 -17.103  0.00  0.00    +0.152 C 
ATOM     13  C   UNL     1      33.238 -21.805 -18.063  0.00  0.00    +0.239 C 
ATOM     14  C   UNL     1      34.993 -20.449 -19.086  0.00  0.00    +0.240 C 
ATOM     15  H   UNL     1      33.143 -20.839 -19.875  0.00  0.00    +0.157 HD
ENDROOT
BRANCH  14  18
ATOM     16  O   UNL     1      36.466 -19.183 -20.358  0.00  0.00    -0.266 OA
ATOM     17  N   UNL     1      34.287 -19.504 -21.165  0.00  0.00    -0.294 N 
ATOM     18  C   UNL     1      35.332 -19.638 -20.278  0.00  0.00    +0.290 C 
ATOM     19  H   UNL     1      33.431 -19.938 -20.949  0.00  0.00    +0.150 HD
BRANCH  17  20
ATOM     20  C   UNL     1      34.389 -18.757 -22.398  0.00  0.00    +0.117 C 
BRANCH  20  24
ATOM     21  O   UNL     1      33.361 -13.256 -21.574  0.00  0.00    -0.464 OA
ATOM     22  O   UNL     1      32.659 -12.229 -24.966  0.00  0.00    -0.271 OA
ATOM     23  N   UNL     1      33.211 -14.322 -24.189  0.00  0.00    -0.279 N 
ATOM     24  C   UNL     1      34.100 -17.298 -22.195  0.00  0.00    -0.001 C 
ATOM     25  C   UNL     1      33.502 -15.139 -23.092  0.00  0.00    +0.085 C 
ATOM     26  C   UNL     1      33.776 -16.493 -23.288  0.00  0.00    +0.015 C 
ATOM     27  C   UNL     1      33.561 -14.587 -21.814  0.00  0.00    +0.153 C 
ATOM     28  C   UNL     1      34.164 -16.746 -20.915  0.00  0.00    +0.001 C 
ATOM     29  C   UNL     1      33.902 -15.389 -20.724  0.00  0.00    +0.038 C 
ATOM     30  C   UNL     1      32.634 -12.589 -22.587  0.00  0.00    +0.290 C 
ATOM     31  C   UNL     1      32.857 -13.002 -24.032  0.00  0.00    +0.271 C 
ATOM     32  H   UNL     1      33.260 -14.701 -25.096  0.00  0.00    +0.155 HD
ENDBRANCH  20  24
ENDBRANCH  17  20
ENDBRANCH  14  18
BRANCH   5  33
ATOM     33  C   UNL     1      31.793 -22.501 -14.718  0.00  0.00    +0.089 C 
BRANCH  33  36
ATOM     34  O   UNL     1      29.843 -23.904 -14.383  0.00  0.00    -0.275 OA
ATOM     35  N   UNL     1      29.833 -22.354 -16.082  0.00  0.00    -0.329 N 
ATOM     36  C   UNL     1      30.404 -23.012 -15.014  0.00  0.00    +0.220 C 
ATOM     37  H   UNL     1      28.926 -22.592 -16.379  0.00  0.00    +0.145 HD
ATOM     38  H   UNL     1      30.334 -21.646 -16.548  0.00  0.00    +0.145 HD
ENDBRANCH  33  36
ENDBRANCH   5  33
TORSDOF 5
ENDMDL
MODEL 2
REMARK VINA RESULT:     -12.3      3.615     11.531
REMARK  Name = 25174099
REMARK  5 active torsions:
REMARK  status: ('A' for Active; 'I' for Inactive)
REMARK    1  A    between atoms: C_5  and  C_33
REMARK    2  A    between atoms: C_14  and  C_18
REMARK    3  A    between atoms: N_17  and  C_20
REMARK    4  A    between atoms: C_20  and  C_24
REMARK    5  A    between atoms: C_33  and  C_36
REMARK                            x       y       z     vdW  Elec       q    Type
REMARK                         _______ _______ _______ _____ _____    ______ ____
ROOT
ATOM      1  S   UNL     1      31.341 -12.362 -20.208  0.00  0.00    -0.064 S 
ATOM      2  O   UNL     1      32.860 -10.477 -24.516  0.00  0.00    -0.274 OA
ATOM      3  N   UNL     1      32.429 -13.844 -22.155  0.00  0.00    -0.379 NA
ATOM      4  N   UNL     1      33.109 -12.749 -24.170  0.00  0.00    -0.255 N 
ATOM      5  C   UNL     1      31.657  -8.838 -22.128  0.00  0.00    +0.028 C 
ATOM      6  C   UNL     1      30.636  -8.033 -21.286  0.00  0.00    +0.005 C 
ATOM      7  C   UNL     1      31.672 -10.287 -21.705  0.00  0.00    -0.027 C 
ATOM      8  C   UNL     1      30.760  -8.322 -19.783  0.00  0.00    +0.006 C 
ATOM      9  C   UNL     1      30.520  -9.803 -19.465  0.00  0.00    +0.032 C 
ATOM     10  C   UNL     1      31.180 -10.690 -20.475  0.00  0.00    +0.002 C 
ATOM     11  C   UNL     1      32.160 -11.411 -22.451  0.00  0.00    +0.154 C 
ATOM     12  C   UNL     1      32.049 -12.600 -21.742  0.00  0.00    +0.152 C 
ATOM     13  C   UNL     1      32.732 -11.461 -23.794  0.00  0.00    +0.239 C 
ATOM     14  C   UNL     1      32.941 -13.853 -23.347  0.00  0.00    +0.240 C 
ATOM     15  H   UNL     1      33.512 -12.881 -25.058  0.00  0.00    +0.157 HD
ENDROOT
BRANCH  14  18
ATOM     16  O   UNL     1      33.403 -15.251 -25.140  0.00  0.00    -0.266 OA
ATOM     17  N   UNL     1      33.771 -16.063 -22.971  0.00  0.00    -0.294 N 
ATOM     18  C   UNL     1      33.399 -15.138 -23.922  0.00  0.00    +0.290 C 
ATOM     19  H   UNL     1      33.707 -15.810 -22.022  0.00  0.00    +0.150 HD
BRANCH  17  20
ATOM     20  C   UNL     1      34.251 -17.385 -23.301  0.00  0.00    +0.117 C 
BRANCH  20  24
ATOM     21  O   UNL     1      35.188 -20.468 -18.651  0.00  0.00    -0.464 OA
ATOM     22  O   UNL     1      31.888 -21.846 -18.131  0.00  0.00    -0.271 OA
ATOM     23  N   UNL     1      32.600 -20.422 -19.792  0.00  0.00    -0.279 N 
ATOM     24  C   UNL     1      34.485 -18.219 -22.074  0.00  0.00    -0.001 C 
ATOM     25  C   UNL     1      33.659 -19.723 -20.377  0.00  0.00    +0.085 C 
ATOM     26  C   UNL     1      33.434 -18.944 -21.513  0.00  0.00    +0.015 C 
ATOM     27  C   UNL     1      34.926 -19.770 -19.797  0.00  0.00    +0.153 C 
ATOM     28  C   UNL     1      35.753 -18.262 -21.493  0.00  0.00    +0.001 C 
ATOM     29  C   UNL     1      35.973 -19.031 -20.350  0.00  0.00    +0.038 C 
ATOM     30  C   UNL     1      34.257 -21.496 -18.375  0.00  0.00    +0.290 C 
ATOM     31  C   UNL     1      32.796 -21.264 -18.721  0.00  0.00    +0.271 C 
ATOM     32  H   UNL     1      31.692 -20.312 -20.154  0.00  0.00    +0.155 HD
ENDBRANCH  20  24
ENDBRANCH  17  20
ENDBRANCH  14  18
BRANCH   5  33
ATOM     33  C   UNL     1      33.054  -8.216 -22.024  0.00  0.00    +0.089 C 
BRANCH  33  36
ATOM     34  O   UNL     1      34.112  -6.311 -23.089  0.00  0.00    -0.275 OA
ATOM     35  N   UNL     1      32.603  -7.571 -24.283  0.00  0.00    -0.329 N 
ATOM     36  C   UNL     1      33.332  -7.257 -23.156  0.00  0.00    +0.220 C 
ATOM     37  H   UNL     1      32.692  -7.022 -25.095  0.00  0.00    +0.145 HD
ATOM     38  H   UNL     1      31.993  -8.343 -24.275  0.00  0.00    +0.145 HD
ENDBRANCH  33  36
ENDBRANCH   5  33
TORSDOF 5
ENDMDL
MODEL 3
REMARK VINA RESULT:     -11.5      4.004     11.246
REMARK  Name = 25174099
REMARK  5 active torsions:
REMARK  status: ('A' for Active; 'I' for Inactive)
REMARK    1  A    between atoms: C_5  and  C_33
REMARK    2  A    between atoms: C_14  and  C_18
REMARK    3  A    between atoms: N_17  and  C_20
REMARK    4  A    between atoms: C_20  and  C_24
REMARK    5  A    between atoms: C_33  and  C_36
REMARK                            x       y       z     vdW  Elec       q    Type
REMARK                         _______ _______ _______ _____ _____    ______ ____
ROOT
ATOM      1  S   UNL     1      33.391 -10.479 -25.117  0.00  0.00    -0.064 S 
ATOM      2  O   UNL     1      31.843 -12.319 -20.800  0.00  0.00    -0.274 OA
ATOM      3  N   UNL     1      33.134 -13.102 -24.649  0.00  0.00    -0.379 NA
ATOM      4  N   UNL     1      32.364 -13.801 -22.495  0.00  0.00    -0.255 N 
ATOM      5  C   UNL     1      32.098  -9.272 -21.501  0.00  0.00    +0.028 C 
ATOM      6  C   UNL     1      32.663  -7.830 -21.531  0.00  0.00    +0.005 C 
ATOM      7  C   UNL     1      32.540 -10.044 -22.721  0.00  0.00    -0.027 C 
ATOM      8  C   UNL     1      32.467  -7.154 -22.896  0.00  0.00    +0.006 C 
ATOM      9  C   UNL     1      33.170  -7.924 -24.021  0.00  0.00    +0.032 C 
ATOM     10  C   UNL     1      32.988  -9.402 -23.862  0.00  0.00    +0.002 C 
ATOM     11  C   UNL     1      32.570 -11.468 -22.892  0.00  0.00    +0.154 C 
ATOM     12  C   UNL     1      33.002 -11.836 -24.159  0.00  0.00    +0.152 C 
ATOM     13  C   UNL     1      32.218 -12.527 -21.950  0.00  0.00    +0.239 C 
ATOM     14  C   UNL     1      32.805 -14.019 -23.792  0.00  0.00    +0.240 C 
ATOM     15  H   UNL     1      32.143 -14.581 -21.936  0.00  0.00    +0.157 HD
ENDROOT
BRANCH  14  18
ATOM     16  O   UNL     1      32.184 -15.829 -25.105  0.00  0.00    -0.266 OA
ATOM     17  N   UNL     1      33.814 -16.160 -23.451  0.00  0.00    -0.294 N 
ATOM     18  C   UNL     1      32.899 -15.442 -24.191  0.00  0.00    +0.290 C 
ATOM     19  H   UNL     1      34.314 -15.692 -22.744  0.00  0.00    +0.150 HD
BRANCH  17  20
ATOM     20  C   UNL     1      34.074 -17.565 -23.666  0.00  0.00    +0.117 C 
BRANCH  20  24
ATOM     21  O   UNL     1      35.169 -20.222 -18.794  0.00  0.00    -0.464 OA
ATOM     22  O   UNL     1      31.940 -21.710 -18.146  0.00  0.00    -0.271 OA
ATOM     23  N   UNL     1      32.579 -20.390 -19.918  0.00  0.00    -0.279 N 
ATOM     24  C   UNL     1      34.351 -18.286 -22.379  0.00  0.00    -0.001 C 
ATOM     25  C   UNL     1      33.602 -19.689 -20.564  0.00  0.00    +0.085 C 
ATOM     26  C   UNL     1      33.337 -19.014 -21.756  0.00  0.00    +0.015 C 
ATOM     27  C   UNL     1      34.871 -19.630 -19.989  0.00  0.00    +0.153 C 
ATOM     28  C   UNL     1      35.621 -18.223 -21.804  0.00  0.00    +0.001 C 
ATOM     29  C   UNL     1      35.880 -18.888 -20.605  0.00  0.00    +0.038 C 
ATOM     30  C   UNL     1      34.289 -21.268 -18.431  0.00  0.00    +0.290 C 
ATOM     31  C   UNL     1      32.817 -21.133 -18.786  0.00  0.00    +0.271 C 
ATOM     32  H   UNL     1      31.666 -20.351 -20.283  0.00  0.00    +0.155 HD
ENDBRANCH  20  24
ENDBRANCH  17  20
ENDBRANCH  14  18
BRANCH   5  33
ATOM     33  C   UNL     1      30.570  -9.252 -21.381  0.00  0.00    +0.089 C 
BRANCH  33  36
ATOM     34  O   UNL     1      30.326  -9.324 -18.969  0.00  0.00    -0.275 OA
ATOM     35  N   UNL     1      29.376 -10.986 -20.244  0.00  0.00    -0.329 N 
ATOM     36  C   UNL     1      30.098  -9.825 -20.067  0.00  0.00    +0.220 C 
ATOM     37  H   UNL     1      29.010 -11.462 -19.463  0.00  0.00    +0.145 HD
ATOM     38  H   UNL     1      29.227 -11.339 -21.150  0.00  0.00    +0.145 HD
ENDBRANCH  33  36
ENDBRANCH   5  33
TORSDOF 5
ENDMDL
MODEL 4
REMARK VINA RESULT:     -11.5      2.086      3.027
REMARK  Name = 25174099
REMARK  5 active torsions:
REMARK  status: ('A' for Active; 'I' for Inactive)
REMARK    1  A    between atoms: C_5  and  C_33
REMARK    2  A    between atoms: C_14  and  C_18
REMARK    3  A    between atoms: N_17  and  C_20
REMARK    4  A    between atoms: C_20  and  C_24
REMARK    5  A    between atoms: C_33  and  C_36
REMARK                            x       y       z     vdW  Elec       q    Type
REMARK                         _______ _______ _______ _____ _____    ______ ____
ROOT
ATOM      1  S   UNL     1      32.153 -22.417 -17.216  0.00  0.00    -0.064 S 
ATOM      2  O   UNL     1      36.797 -21.370 -15.890  0.00  0.00    -0.274 OA
ATOM      3  N   UNL     1      33.850 -21.051 -18.772  0.00  0.00    -0.379 NA
ATOM      4  N   UNL     1      36.062 -20.646 -17.958  0.00  0.00    -0.255 N 
ATOM      5  C   UNL     1      34.747 -23.037 -14.200  0.00  0.00    +0.028 C 
ATOM      6  C   UNL     1      33.722 -23.389 -13.093  0.00  0.00    +0.005 C 
ATOM      7  C   UNL     1      34.041 -22.624 -15.469  0.00  0.00    -0.027 C 
ATOM      8  C   UNL     1      32.605 -24.311 -13.603  0.00  0.00    +0.006 C 
ATOM      9  C   UNL     1      31.811 -23.666 -14.746  0.00  0.00    +0.032 C 
ATOM     10  C   UNL     1      32.717 -22.956 -15.703  0.00  0.00    +0.002 C 
ATOM     11  C   UNL     1      34.580 -21.873 -16.566  0.00  0.00    +0.154 C 
ATOM     12  C   UNL     1      33.657 -21.702 -17.590  0.00  0.00    +0.152 C 
ATOM     13  C   UNL     1      35.911 -21.297 -16.735  0.00  0.00    +0.239 C 
ATOM     14  C   UNL     1      35.044 -20.558 -18.896  0.00  0.00    +0.240 C 
ATOM     15  H   UNL     1      36.930 -20.230 -18.167  0.00  0.00    +0.157 HD
ENDROOT
BRANCH  14  18
ATOM     16  O   UNL     1      36.547 -19.440 -20.266  0.00  0.00    -0.266 OA
ATOM     17  N   UNL     1      34.331 -19.669 -20.997  0.00  0.00    -0.294 N 
ATOM     18  C   UNL     1      35.393 -19.824 -20.134  0.00  0.00    +0.290 C 
ATOM     19  H   UNL     1      33.458 -20.042 -20.738  0.00  0.00    +0.150 HD
BRANCH  17  20
ATOM     20  C   UNL     1      34.438 -18.986 -22.266  0.00  0.00    +0.117 C 
BRANCH  20  24
ATOM     21  O   UNL     1      33.382 -13.455 -21.737  0.00  0.00    -0.464 OA
ATOM     22  O   UNL     1      32.531 -12.644 -25.154  0.00  0.00    -0.271 OA
ATOM     23  N   UNL     1      33.137 -14.681 -24.274  0.00  0.00    -0.279 N 
ATOM     24  C   UNL     1      34.142 -17.520 -22.141  0.00  0.00    -0.001 C 
ATOM     25  C   UNL     1      33.482 -15.426 -23.143  0.00  0.00    +0.085 C 
ATOM     26  C   UNL     1      33.763 -16.787 -23.267  0.00  0.00    +0.015 C 
ATOM     27  C   UNL     1      33.588 -14.795 -21.904  0.00  0.00    +0.153 C 
ATOM     28  C   UNL     1      34.251 -16.890 -20.901  0.00  0.00    +0.001 C 
ATOM     29  C   UNL     1      33.982 -15.527 -20.783  0.00  0.00    +0.038 C 
ATOM     30  C   UNL     1      32.607 -12.857 -22.758  0.00  0.00    +0.290 C 
ATOM     31  C   UNL     1      32.775 -13.357 -24.183  0.00  0.00    +0.271 C 
ATOM     32  H   UNL     1      33.153 -15.114 -25.158  0.00  0.00    +0.155 HD
ENDBRANCH  20  24
ENDBRANCH  17  20
ENDBRANCH  14  18
BRANCH   5  33
ATOM     33  C   UNL     1      35.697 -24.213 -14.452  0.00  0.00    +0.089 C 
BRANCH  33  36
ATOM     34  O   UNL     1      37.237 -23.662 -12.661  0.00  0.00    -0.275 OA
ATOM     35  N   UNL     1      38.073 -24.191 -14.738  0.00  0.00    -0.329 N 
ATOM     36  C   UNL     1      37.054 -23.987 -13.831  0.00  0.00    +0.220 C 
ATOM     37  H   UNL     1      39.010 -24.076 -14.459  0.00  0.00    +0.145 HD
ATOM     38  H   UNL     1      37.863 -24.451 -15.663  0.00  0.00    +0.145 HD
ENDBRANCH  33  36
ENDBRANCH   5  33
TORSDOF 5
ENDMDL
MODEL 5
REMARK VINA RESULT:     -11.1      3.197     11.222
REMARK  Name = 25174099
REMARK  5 active torsions:
REMARK  status: ('A' for Active; 'I' for Inactive)
REMARK    1  A    between atoms: C_5  and  C_33
REMARK    2  A    between atoms: C_14  and  C_18
REMARK    3  A    between atoms: N_17  and  C_20
REMARK    4  A    between atoms: C_20  and  C_24
REMARK    5  A    between atoms: C_33  and  C_36
REMARK                            x       y       z     vdW  Elec       q    Type
REMARK                         _______ _______ _______ _____ _____    ______ ____
ROOT
ATOM      1  S   UNL     1      31.703 -12.871 -19.666  0.00  0.00    -0.064 S 
ATOM      2  O   UNL     1      33.185 -11.999 -24.299  0.00  0.00    -0.274 OA
ATOM      3  N   UNL     1      32.984 -14.685 -21.162  0.00  0.00    -0.379 NA
ATOM      4  N   UNL     1      33.627 -14.075 -23.383  0.00  0.00    -0.255 N 
ATOM      5  C   UNL     1      31.762  -9.932 -22.418  0.00  0.00    +0.028 C 
ATOM      6  C   UNL     1      30.645  -9.042 -21.817  0.00  0.00    +0.005 C 
ATOM      7  C   UNL     1      31.894 -11.220 -21.640  0.00  0.00    -0.027 C 
ATOM      8  C   UNL     1      30.746  -8.928 -20.289  0.00  0.00    +0.006 C 
ATOM      9  C   UNL     1      30.630 -10.297 -19.606  0.00  0.00    +0.032 C 
ATOM     10  C   UNL     1      31.401 -11.343 -20.352  0.00  0.00    +0.002 C 
ATOM     11  C   UNL     1      32.505 -12.444 -22.070  0.00  0.00    +0.154 C 
ATOM     12  C   UNL     1      32.480 -13.420 -21.083  0.00  0.00    +0.152 C 
ATOM     13  C   UNL     1      33.123 -12.776 -23.351  0.00  0.00    +0.239 C 
ATOM     14  C   UNL     1      33.533 -14.946 -22.308  0.00  0.00    +0.240 C 
ATOM     15  H   UNL     1      34.069 -14.389 -24.205  0.00  0.00    +0.157 HD
ENDROOT
BRANCH  14  18
ATOM     16  O   UNL     1      34.318 -16.639 -23.688  0.00  0.00    -0.266 OA
ATOM     17  N   UNL     1      34.382 -16.973 -21.367  0.00  0.00    -0.294 N 
ATOM     18  C   UNL     1      34.123 -16.285 -22.533  0.00  0.00    +0.290 C 
ATOM     19  H   UNL     1      34.165 -16.540 -20.510  0.00  0.00    +0.150 HD
BRANCH  17  20
ATOM     20  C   UNL     1      34.959 -18.297 -21.344  0.00  0.00    +0.117 C 
BRANCH  20  24
ATOM     21  O   UNL     1      31.860 -21.895 -18.271  0.00  0.00    -0.464 OA
ATOM     22  O   UNL     1      34.397 -23.163 -16.032  0.00  0.00    -0.271 OA
ATOM     23  N   UNL     1      34.619 -21.612 -17.716  0.00  0.00    -0.279 N 
ATOM     24  C   UNL     1      34.149 -19.247 -20.510  0.00  0.00    -0.001 C 
ATOM     25  C   UNL     1      34.002 -20.853 -18.715  0.00  0.00    +0.085 C 
ATOM     26  C   UNL     1      34.762 -19.977 -19.491  0.00  0.00    +0.015 C 
ATOM     27  C   UNL     1      32.638 -21.009 -18.961  0.00  0.00    +0.153 C 
ATOM     28  C   UNL     1      32.785 -19.404 -20.760  0.00  0.00    +0.001 C 
ATOM     29  C   UNL     1      32.030 -20.290 -19.991  0.00  0.00    +0.038 C 
ATOM     30  C   UNL     1      32.388 -22.274 -17.014  0.00  0.00    +0.290 C 
ATOM     31  C   UNL     1      33.894 -22.426 -16.877  0.00  0.00    +0.271 C 
ATOM     32  H   UNL     1      35.596 -21.563 -17.610  0.00  0.00    +0.155 HD
ENDBRANCH  20  24
ENDBRANCH  17  20
ENDBRANCH  14  18
BRANCH   5  33
ATOM     33  C   UNL     1      33.093  -9.174 -22.464  0.00  0.00    +0.089 C 
BRANCH  33  36
ATOM     34  O   UNL     1      32.902  -8.087 -24.624  0.00  0.00    -0.275 OA
ATOM     35  N   UNL     1      34.663  -9.513 -24.236  0.00  0.00    -0.329 N 
ATOM     36  C   UNL     1      33.510  -8.849 -23.877  0.00  0.00    +0.220 C 
ATOM     37  H   UNL     1      35.044  -9.389 -25.136  0.00  0.00    +0.145 HD
ATOM     38  H   UNL     1      35.107 -10.112 -23.593  0.00  0.00    +0.145 HD
ENDBRANCH  33  36
ENDBRANCH   5  33
TORSDOF 5
ENDMDL
MODEL 6
REMARK VINA RESULT:     -10.7      3.006     10.620
REMARK  Name = 25174099
REMARK  5 active torsions:
REMARK  status: ('A' for Active; 'I' for Inactive)
REMARK    1  A    between atoms: C_5  and  C_33
REMARK    2  A    between atoms: C_14  and  C_18
REMARK    3  A    between atoms: N_17  and  C_20
REMARK    4  A    between atoms: C_20  and  C_24
REMARK    5  A    between atoms: C_33  and  C_36
REMARK                            x       y       z     vdW  Elec       q    Type
REMARK                         _______ _______ _______ _____ _____    ______ ____
ROOT
ATOM      1  S   UNL     1      33.422 -14.485 -25.077  0.00  0.00    -0.064 S 
ATOM      2  O   UNL     1      33.511 -13.996 -20.161  0.00  0.00    -0.274 OA
ATOM      3  N   UNL     1      34.039 -16.491 -23.415  0.00  0.00    -0.379 NA
ATOM      4  N   UNL     1      34.023 -16.062 -21.062  0.00  0.00    -0.255 N 
ATOM      5  C   UNL     1      32.717 -11.754 -22.205  0.00  0.00    +0.028 C 
ATOM      6  C   UNL     1      32.825 -10.479 -23.078  0.00  0.00    +0.005 C 
ATOM      7  C   UNL     1      33.064 -12.983 -23.011  0.00  0.00    -0.027 C 
ATOM      8  C   UNL     1      32.132 -10.642 -24.439  0.00  0.00    +0.006 C 
ATOM      9  C   UNL     1      32.743 -11.786 -25.257  0.00  0.00    +0.032 C 
ATOM     10  C   UNL     1      33.032 -12.976 -24.395  0.00  0.00    +0.002 C 
ATOM     11  C   UNL     1      33.458 -14.271 -22.516  0.00  0.00    +0.154 C 
ATOM     12  C   UNL     1      33.670 -15.184 -23.541  0.00  0.00    +0.152 C 
ATOM     13  C   UNL     1      33.652 -14.721 -21.141  0.00  0.00    +0.239 C 
ATOM     14  C   UNL     1      34.194 -16.863 -22.182  0.00  0.00    +0.240 C 
ATOM     15  H   UNL     1      34.171 -16.458 -20.173  0.00  0.00    +0.157 HD
ENDROOT
BRANCH  14  18
ATOM     16  O   UNL     1      34.504 -19.077 -22.804  0.00  0.00    -0.266 OA
ATOM     17  N   UNL     1      35.029 -18.454 -20.605  0.00  0.00    -0.294 N 
ATOM     18  C   UNL     1      34.594 -18.260 -21.898  0.00  0.00    +0.290 C 
ATOM     19  H   UNL     1      35.041 -17.682 -19.994  0.00  0.00    +0.150 HD
BRANCH  17  20
ATOM     20  C   UNL     1      35.471 -19.735 -20.104  0.00  0.00    +0.117 C 
BRANCH  20  24
ATOM     21  O   UNL     1      31.365 -22.391 -17.261  0.00  0.00    -0.464 OA
ATOM     22  O   UNL     1      33.321 -24.002 -14.684  0.00  0.00    -0.271 OA
ATOM     23  N   UNL     1      34.047 -22.650 -16.398  0.00  0.00    -0.279 N 
ATOM     24  C   UNL     1      34.392 -20.436 -19.330  0.00  0.00    -0.001 C 
ATOM     25  C   UNL     1      33.715 -21.850 -17.495  0.00  0.00    +0.085 C 
ATOM     26  C   UNL     1      34.723 -21.206 -18.214  0.00  0.00    +0.015 C 
ATOM     27  C   UNL     1      32.384 -21.735 -17.893  0.00  0.00    +0.153 C 
ATOM     28  C   UNL     1      33.061 -20.323 -19.732  0.00  0.00    +0.001 C 
ATOM     29  C   UNL     1      32.057 -20.978 -19.018  0.00  0.00    +0.038 C 
ATOM     30  C   UNL     1      31.665 -22.784 -15.935  0.00  0.00    +0.290 C 
ATOM     31  C   UNL     1      33.079 -23.236 -15.615  0.00  0.00    +0.271 C 
ATOM     32  H   UNL     1      34.995 -22.798 -16.180  0.00  0.00    +0.155 HD
ENDBRANCH  20  24
ENDBRANCH  17  20
ENDBRANCH  14  18
BRANCH   5  33
ATOM     33  C   UNL     1      31.318 -11.871 -21.589  0.00  0.00    +0.089 C 
BRANCH  33  36
ATOM     34  O   UNL     1      31.442 -11.387 -19.215  0.00  0.00    -0.275 OA
ATOM     35  N   UNL     1      30.693  -9.759 -20.657  0.00  0.00    -0.329 N 
ATOM     36  C   UNL     1      31.171 -11.016 -20.354  0.00  0.00    +0.220 C 
ATOM     37  H   UNL     1      30.550  -9.101 -19.939  0.00  0.00    +0.145 HD
ATOM     38  H   UNL     1      30.493  -9.520 -21.590  0.00  0.00    +0.145 HD
ENDBRANCH  33  36
ENDBRANCH   5  33
TORSDOF 5
ENDMDL
MODEL 7
REMARK VINA RESULT:     -10.7      8.052     15.232
REMARK  Name = 25174099
REMARK  5 active torsions:
REMARK  status: ('A' for Active; 'I' for Inactive)
REMARK    1  A    between atoms: C_5  and  C_33
REMARK    2  A    between atoms: C_14  and  C_18
REMARK    3  A    between atoms: N_17  and  C_20
REMARK    4  A    between atoms: C_20  and  C_24
REMARK    5  A    between atoms: C_33  and  C_36
REMARK                            x       y       z     vdW  Elec       q    Type
REMARK                         _______ _______ _______ _____ _____    ______ ____
ROOT
ATOM      1  S   UNL     1      33.656  -6.421 -23.818  0.00  0.00    -0.064 S 
ATOM      2  O   UNL     1      29.748  -4.560 -21.435  0.00  0.00    -0.274 OA
ATOM      3  N   UNL     1      32.436  -7.681 -21.796  0.00  0.00    -0.379 NA
ATOM      4  N   UNL     1      30.554  -6.622 -20.769  0.00  0.00    -0.255 N 
ATOM      5  C   UNL     1      31.204  -3.228 -23.872  0.00  0.00    +0.028 C 
ATOM      6  C   UNL     1      32.115  -2.262 -24.670  0.00  0.00    +0.005 C 
ATOM      7  C   UNL     1      31.927  -4.521 -23.579  0.00  0.00    -0.027 C 
ATOM      8  C   UNL     1      32.813  -2.955 -25.849  0.00  0.00    +0.006 C 
ATOM      9  C   UNL     1      33.706  -4.112 -25.382  0.00  0.00    +0.032 C 
ATOM     10  C   UNL     1      33.039  -4.912 -24.305  0.00  0.00    +0.002 C 
ATOM     11  C   UNL     1      31.610  -5.492 -22.571  0.00  0.00    +0.154 C 
ATOM     12  C   UNL     1      32.469  -6.583 -22.604  0.00  0.00    +0.152 C 
ATOM     13  C   UNL     1      30.550  -5.479 -21.567  0.00  0.00    +0.239 C 
ATOM     14  C   UNL     1      31.478  -7.644 -20.921  0.00  0.00    +0.240 C 
ATOM     15  H   UNL     1      29.870  -6.707 -20.066  0.00  0.00    +0.157 HD
ENDROOT
BRANCH  14  18
ATOM     16  O   UNL     1      31.481  -8.550 -18.785  0.00  0.00    -0.266 OA
ATOM     17  N   UNL     1      31.014  -9.966 -20.595  0.00  0.00    -0.294 N 
ATOM     18  C   UNL     1      31.325  -8.775 -19.977  0.00  0.00    +0.290 C 
ATOM     19  H   UNL     1      30.922  -9.976 -21.575  0.00  0.00    +0.150 HD
BRANCH  17  20
ATOM     20  C   UNL     1      30.816 -11.202 -19.872  0.00  0.00    +0.117 C 
BRANCH  20  24
ATOM     21  O   UNL     1      33.753 -15.512 -22.061  0.00  0.00    -0.464 OA
ATOM     22  O   UNL     1      32.871 -15.171 -25.549  0.00  0.00    -0.271 OA
ATOM     23  N   UNL     1      32.190 -13.885 -23.768  0.00  0.00    -0.279 N 
ATOM     24  C   UNL     1      31.599 -12.334 -20.471  0.00  0.00    -0.001 C 
ATOM     25  C   UNL     1      32.275 -13.621 -22.397  0.00  0.00    +0.085 C 
ATOM     26  C   UNL     1      31.539 -12.572 -21.845  0.00  0.00    +0.015 C 
ATOM     27  C   UNL     1      33.060 -14.436 -21.582  0.00  0.00    +0.153 C 
ATOM     28  C   UNL     1      32.381 -13.150 -19.653  0.00  0.00    +0.001 C 
ATOM     29  C   UNL     1      33.105 -14.206 -20.207  0.00  0.00    +0.038 C 
ATOM     30  C   UNL     1      34.013 -15.460 -23.451  0.00  0.00    +0.290 C 
ATOM     31  C   UNL     1      32.960 -14.857 -24.364  0.00  0.00    +0.271 C 
ATOM     32  H   UNL     1      31.565 -13.362 -24.320  0.00  0.00    +0.155 HD
ENDBRANCH  20  24
ENDBRANCH  17  20
ENDBRANCH  14  18
BRANCH   5  33
ATOM     33  C   UNL     1      29.895  -3.485 -24.626  0.00  0.00    +0.089 C 
BRANCH  33  36
ATOM     34  O   UNL     1      27.817  -2.255 -24.867  0.00  0.00    -0.275 OA
ATOM     35  N   UNL     1      29.021  -2.056 -22.917  0.00  0.00    -0.329 N 
ATOM     36  C   UNL     1      28.796  -2.548 -24.185  0.00  0.00    +0.220 C 
ATOM     37  H   UNL     1      28.377  -1.432 -22.510  0.00  0.00    +0.145 HD
ATOM     38  H   UNL     1      29.825  -2.328 -22.419  0.00  0.00    +0.145 HD
ENDBRANCH  33  36
ENDBRANCH   5  33
TORSDOF 5
ENDMDL
MODEL 8
REMARK VINA RESULT:     -10.6      6.714     13.829
REMARK  Name = 25174099
REMARK  5 active torsions:
REMARK  status: ('A' for Active; 'I' for Inactive)
REMARK    1  A    between atoms: C_5  and  C_33
REMARK    2  A    between atoms: C_14  and  C_18
REMARK    3  A    between atoms: N_17  and  C_20
REMARK    4  A    between atoms: C_20  and  C_24
REMARK    5  A    between atoms: C_33  and  C_36
REMARK                            x       y       z     vdW  Elec       q    Type
REMARK                         _______ _______ _______ _____ _____    ______ ____
ROOT
ATOM      1  S   UNL     1      30.493  -6.187 -24.972  0.00  0.00    -0.064 S 
ATOM      2  O   UNL     1      33.054  -7.327 -20.902  0.00  0.00    -0.274 OA
ATOM      3  N   UNL     1      31.984  -8.400 -24.749  0.00  0.00    -0.379 NA
ATOM      4  N   UNL     1      33.148  -8.782 -22.695  0.00  0.00    -0.255 N 
ATOM      5  C   UNL     1      31.203  -4.819 -21.253  0.00  0.00    +0.028 C 
ATOM      6  C   UNL     1      30.778  -3.345 -21.472  0.00  0.00    +0.005 C 
ATOM      7  C   UNL     1      31.158  -5.586 -22.552  0.00  0.00    -0.027 C 
ATOM      8  C   UNL     1      29.498  -3.225 -22.311  0.00  0.00    +0.006 C 
ATOM      9  C   UNL     1      29.668  -3.844 -23.704  0.00  0.00    +0.032 C 
ATOM     10  C   UNL     1      30.423  -5.135 -23.636  0.00  0.00    +0.002 C 
ATOM     11  C   UNL     1      31.820  -6.820 -22.864  0.00  0.00    +0.154 C 
ATOM     12  C   UNL     1      31.530  -7.263 -24.148  0.00  0.00    +0.152 C 
ATOM     13  C   UNL     1      32.714  -7.630 -22.041  0.00  0.00    +0.239 C 
ATOM     14  C   UNL     1      32.768  -9.102 -23.990  0.00  0.00    +0.240 C 
ATOM     15  H   UNL     1      33.751  -9.396 -22.217  0.00  0.00    +0.157 HD
ENDROOT
BRANCH  14  18
ATOM     16  O   UNL     1      34.511 -10.369 -24.852  0.00  0.00    -0.266 OA
ATOM     17  N   UNL     1      32.425 -11.399 -24.556  0.00  0.00    -0.294 N 
ATOM     18  C   UNL     1      33.334 -10.365 -24.516  0.00  0.00    +0.290 C 
ATOM     19  H   UNL     1      31.507 -11.227 -24.245  0.00  0.00    +0.150 HD
BRANCH  17  20
ATOM     20  C   UNL     1      32.755 -12.723 -25.031  0.00  0.00    +0.117 C 
BRANCH  20  24
ATOM     21  O   UNL     1      34.094 -16.156 -20.739  0.00  0.00    -0.464 OA
ATOM     22  O   UNL     1      34.208 -19.323 -22.475  0.00  0.00    -0.271 OA
ATOM     23  N   UNL     1      33.737 -17.239 -23.327  0.00  0.00    -0.279 N 
ATOM     24  C   UNL     1      33.123 -13.647 -23.905  0.00  0.00    -0.001 C 
ATOM     25  C   UNL     1      33.621 -15.865 -23.098  0.00  0.00    +0.085 C 
ATOM     26  C   UNL     1      33.272 -15.013 -24.146  0.00  0.00    +0.015 C 
ATOM     27  C   UNL     1      33.810 -15.359 -21.812  0.00  0.00    +0.153 C 
ATOM     28  C   UNL     1      33.308 -13.138 -22.619  0.00  0.00    +0.001 C 
ATOM     29  C   UNL     1      33.644 -13.995 -21.570  0.00  0.00    +0.038 C 
ATOM     30  C   UNL     1      34.648 -17.412 -21.081  0.00  0.00    +0.290 C 
ATOM     31  C   UNL     1      34.156 -18.103 -22.342  0.00  0.00    +0.271 C 
ATOM     32  H   UNL     1      33.514 -17.599 -24.216  0.00  0.00    +0.155 HD
ENDBRANCH  20  24
ENDBRANCH  17  20
ENDBRANCH  14  18
BRANCH   5  33
ATOM     33  C   UNL     1      30.325  -5.483 -20.186  0.00  0.00    +0.089 C 
BRANCH  33  36
ATOM     34  O   UNL     1      31.798  -5.145 -18.289  0.00  0.00    -0.275 OA
ATOM     35  N   UNL     1      31.009  -7.258 -18.737  0.00  0.00    -0.329 N 
ATOM     36  C   UNL     1      31.125  -5.906 -18.979  0.00  0.00    +0.220 C 
ATOM     37  H   UNL     1      31.483  -7.664 -17.975  0.00  0.00    +0.145 HD
ATOM     38  H   UNL     1      30.454  -7.818 -19.325  0.00  0.00    +0.145 HD
ENDBRANCH  33  36
ENDBRANCH   5  33
TORSDOF 5
ENDMDL
MODEL 9
REMARK VINA RESULT:     -10.5      2.538      3.530
REMARK  Name = 25174099
REMARK  5 active torsions:
REMARK  status: ('A' for Active; 'I' for Inactive)
REMARK    1  A    between atoms: C_5  and  C_33
REMARK    2  A    between atoms: C_14  and  C_18
REMARK    3  A    between atoms: N_17  and  C_20
REMARK    4  A    between atoms: C_20  and  C_24
REMARK    5  A    between atoms: C_33  and  C_36
REMARK                            x       y       z     vdW  Elec       q    Type
REMARK                         _______ _______ _______ _____ _____    ______ ____
ROOT
ATOM      1  S   UNL     1      31.629 -22.651 -16.818  0.00  0.00    -0.064 S 
ATOM      2  O   UNL     1      36.134 -22.228 -14.832  0.00  0.00    -0.274 OA
ATOM      3  N   UNL     1      33.736 -21.682 -18.155  0.00  0.00    -0.379 NA
ATOM      4  N   UNL     1      35.840 -21.559 -17.025  0.00  0.00    -0.255 N 
ATOM      5  C   UNL     1      33.614 -23.430 -13.403  0.00  0.00    +0.028 C 
ATOM      6  C   UNL     1      32.394 -23.536 -12.455  0.00  0.00    +0.005 C 
ATOM      7  C   UNL     1      33.179 -23.011 -14.787  0.00  0.00    -0.027 C 
ATOM      8  C   UNL     1      31.229 -24.312 -13.086  0.00  0.00    +0.006 C 
ATOM      9  C   UNL     1      30.727 -23.643 -14.372  0.00  0.00    +0.032 C 
ATOM     10  C   UNL     1      31.869 -23.153 -15.210  0.00  0.00    +0.002 C 
ATOM     11  C   UNL     1      33.989 -22.437 -15.823  0.00  0.00    +0.154 C 
ATOM     12  C   UNL     1      33.267 -22.205 -16.986  0.00  0.00    +0.152 C 
ATOM     13  C   UNL     1      35.406 -22.085 -15.809  0.00  0.00    +0.239 C 
ATOM     14  C   UNL     1      34.999 -21.388 -18.115  0.00  0.00    +0.240 C 
ATOM     15  H   UNL     1      36.785 -21.298 -17.115  0.00  0.00    +0.157 HD
ENDROOT
BRANCH  14  18
ATOM     16  O   UNL     1      36.074 -21.585 -20.162  0.00  0.00    -0.266 OA
ATOM     17  N   UNL     1      35.664 -19.434 -19.321  0.00  0.00    -0.294 N 
ATOM     18  C   UNL     1      35.641 -20.812 -19.318  0.00  0.00    +0.290 C 
ATOM     19  H   UNL     1      35.267 -18.958 -18.556  0.00  0.00    +0.150 HD
BRANCH  17  20
ATOM     20  C   UNL     1      36.239 -18.656 -20.394  0.00  0.00    +0.117 C 
BRANCH  20  24
ATOM     21  O   UNL     1      32.336 -17.306 -24.259  0.00  0.00    -0.464 OA
ATOM     22  O   UNL     1      32.330 -13.708 -23.921  0.00  0.00    -0.271 OA
ATOM     23  N   UNL     1      33.591 -15.252 -22.773  0.00  0.00    -0.279 N 
ATOM     24  C   UNL     1      35.214 -18.279 -21.425  0.00  0.00    -0.001 C 
ATOM     25  C   UNL     1      33.943 -16.592 -22.592  0.00  0.00    +0.085 C 
ATOM     26  C   UNL     1      34.891 -16.937 -21.627  0.00  0.00    +0.015 C 
ATOM     27  C   UNL     1      33.313 -17.583 -23.344  0.00  0.00    +0.153 C 
ATOM     28  C   UNL     1      34.582 -19.272 -22.174  0.00  0.00    +0.001 C 
ATOM     29  C   UNL     1      33.626 -18.925 -23.129  0.00  0.00    +0.038 C 
ATOM     30  C   UNL     1      32.349 -15.973 -24.734  0.00  0.00    +0.290 C 
ATOM     31  C   UNL     1      32.722 -14.862 -23.766  0.00  0.00    +0.271 C 
ATOM     32  H   UNL     1      33.974 -14.569 -22.176  0.00  0.00    +0.155 HD
ENDBRANCH  20  24
ENDBRANCH  17  20
ENDBRANCH  14  18
BRANCH   5  33
ATOM     33  C   UNL     1      34.387 -24.753 -13.442  0.00  0.00    +0.089 C 
BRANCH  33  36
ATOM     34  O   UNL     1      35.290 -25.166 -11.228  0.00  0.00    -0.275 OA
ATOM     35  N   UNL     1      36.688 -24.405 -12.888  0.00  0.00    -0.329 N 
ATOM     36  C   UNL     1      35.468 -24.807 -12.390  0.00  0.00    +0.220 C 
ATOM     37  H   UNL     1      37.480 -24.394 -12.303  0.00  0.00    +0.145 HD
ATOM     38  H   UNL     1      36.768 -24.129 -13.829  0.00  0.00    +0.145 HD
ENDBRANCH  33  36
ENDBRANCH   5  33
TORSDOF 5
ENDMDL
