MODEL 1
REMARK VINA RESULT:     -12.0      0.000      0.000
REMARK  Name = 23650961
REMARK  5 active torsions:
REMARK  status: ('A' for Active; 'I' for Inactive)
REMARK    1  A    between atoms: N_1  and  C_23
REMARK    2  A    between atoms: C_5  and  C_12
REMARK    3  A    between atoms: C_23  and  C_24
REMARK    4  A    between atoms: C_24  and  C_25
REMARK    5  A    between atoms: C_25  and  C_27
REMARK                            x       y       z     vdW  Elec       q    Type
REMARK                         _______ _______ _______ _____ _____    ______ ____
ROOT
ATOM      1  N   UNL     1      33.705 -17.292 -24.143  0.00  0.00    -0.268 N 
ATOM      2  N   UNL     1      32.879 -15.231 -24.902  0.00  0.00    -0.342 NA
ATOM      3  N   UNL     1      34.110 -15.386 -22.837  0.00  0.00    -0.170 NA
ATOM      4  C   UNL     1      33.561 -15.927 -23.955  0.00  0.00    +0.144 C 
ATOM      5  C   UNL     1      33.276 -13.255 -23.586  0.00  0.00    +0.061 C 
ATOM      6  C   UNL     1      32.757 -13.905 -24.687  0.00  0.00    +0.123 C 
ATOM      7  C   UNL     1      33.950 -14.055 -22.684  0.00  0.00    +0.113 C 
ATOM      8  C   UNL     1      32.005 -13.151 -25.736  0.00  0.00    +0.067 C 
ATOM      9  H   UNL     1      33.311 -17.693 -24.951  0.00  0.00    +0.159 HD
ENDROOT
BRANCH   5  12
ATOM     10  N   UNL     1      33.984 -10.929 -23.939  0.00  0.00    -0.314 N 
ATOM     11  N   UNL     1      32.226 -11.255 -22.620  0.00  0.00    -0.315 N 
ATOM     12  C   UNL     1      33.139 -11.841 -23.365  0.00  0.00    +0.171 C 
ATOM     13  C   UNL     1      33.591  -9.679 -23.537  0.00  0.00    +0.059 C 
ATOM     14  C   UNL     1      32.492  -9.908 -22.715  0.00  0.00    +0.055 C 
ATOM     15  C   UNL     1      31.836  -8.814 -22.125  0.00  0.00    -0.008 C 
ATOM     16  C   UNL     1      34.088  -8.404 -23.814  0.00  0.00    +0.011 C 
ATOM     17  C   UNL     1      33.424  -7.326 -23.219  0.00  0.00    -0.021 C 
ATOM     18  C   UNL     1      32.319  -7.525 -22.389  0.00  0.00    -0.007 C 
ATOM     19  C   UNL     1      30.651  -8.975 -21.231  0.00  0.00    +0.032 C 
ATOM     20  C   UNL     1      33.907  -5.937 -23.478  0.00  0.00    +0.031 C 
ATOM     21  H   UNL     1      34.740 -11.135 -24.534  0.00  0.00    +0.149 HD
ATOM     22  H   UNL     1      31.506 -11.688 -22.104  0.00  0.00    +0.149 HD
ENDBRANCH   5  12
BRANCH   1  23
ATOM     23  C   UNL     1      34.402 -18.159 -23.224  0.00  0.00    +0.098 C 
BRANCH  23  24
ATOM     24  C   UNL     1      33.427 -18.808 -22.246  0.00  0.00    +0.022 C 
BRANCH  24  25
ATOM     25  C   UNL     1      33.973 -18.853 -20.819  0.00  0.00    +0.002 C 
BRANCH  25  27
ATOM     26  N   UNL     1      33.091 -21.742 -17.732  0.00  0.00    +0.385 N 
ATOM     27  C   UNL     1      33.667 -20.192 -20.151  0.00  0.00    -0.004 C 
ATOM     28  C   UNL     1      32.298 -20.163 -19.462  0.00  0.00    -0.023 C 
ATOM     29  C   UNL     1      34.751 -20.561 -19.134  0.00  0.00    -0.023 C 
ATOM     30  C   UNL     1      32.028 -21.465 -18.707  0.00  0.00    -0.077 C 
ATOM     31  C   UNL     1      34.399 -21.850 -18.390  0.00  0.00    -0.077 C 
ATOM     32  C   UNL     1      32.793 -22.963 -16.982  0.00  0.00    -0.101 C 
ATOM     33  H   UNL     1      33.131 -20.959 -17.079  0.00  0.00    -0.080 HD
ENDBRANCH  25  27
ENDBRANCH  24  25
ENDBRANCH  23  24
ENDBRANCH   1  23
TORSDOF 5
ENDMDL
MODEL 2
REMARK VINA RESULT:     -11.5      0.909      1.277
REMARK  Name = 23650961
REMARK  5 active torsions:
REMARK  status: ('A' for Active; 'I' for Inactive)
REMARK    1  A    between atoms: N_1  and  C_23
REMARK    2  A    between atoms: C_5  and  C_12
REMARK    3  A    between atoms: C_23  and  C_24
REMARK    4  A    between atoms: C_24  and  C_25
REMARK    5  A    between atoms: C_25  and  C_27
REMARK                            x       y       z     vdW  Elec       q    Type
REMARK                         _______ _______ _______ _____ _____    ______ ____
ROOT
ATOM      1  N   UNL     1      33.701 -16.693 -22.912  0.00  0.00    -0.268 N 
ATOM      2  N   UNL     1      33.112 -14.799 -24.167  0.00  0.00    -0.342 NA
ATOM      3  N   UNL     1      33.861 -14.588 -21.886  0.00  0.00    -0.170 NA
ATOM      4  C   UNL     1      33.553 -15.316 -22.990  0.00  0.00    +0.144 C 
ATOM      5  C   UNL     1      33.263 -12.625 -23.144  0.00  0.00    +0.061 C 
ATOM      6  C   UNL     1      32.979 -13.457 -24.208  0.00  0.00    +0.123 C 
ATOM      7  C   UNL     1      33.705 -13.252 -21.997  0.00  0.00    +0.113 C 
ATOM      8  C   UNL     1      32.493 -12.900 -25.507  0.00  0.00    +0.067 C 
ATOM      9  H   UNL     1      33.481 -17.229 -23.707  0.00  0.00    +0.159 HD
ENDROOT
BRANCH   5  12
ATOM     10  N   UNL     1      34.033 -10.393 -23.826  0.00  0.00    -0.314 N 
ATOM     11  N   UNL     1      32.131 -10.494 -22.681  0.00  0.00    -0.315 N 
ATOM     12  C   UNL     1      33.117 -11.195 -23.199  0.00  0.00    +0.171 C 
ATOM     13  C   UNL     1      33.610  -9.095 -23.703  0.00  0.00    +0.059 C 
ATOM     14  C   UNL     1      32.421  -9.184 -22.986  0.00  0.00    +0.055 C 
ATOM     15  C   UNL     1      31.714  -8.008 -22.681  0.00  0.00    -0.008 C 
ATOM     16  C   UNL     1      34.149  -7.885 -24.146  0.00  0.00    +0.011 C 
ATOM     17  C   UNL     1      33.434  -6.725 -23.834  0.00  0.00    -0.021 C 
ATOM     18  C   UNL     1      32.238  -6.782 -23.116  0.00  0.00    -0.007 C 
ATOM     19  C   UNL     1      30.432  -8.017 -21.915  0.00  0.00    +0.032 C 
ATOM     20  C   UNL     1      33.959  -5.400 -24.281  0.00  0.00    +0.031 C 
ATOM     21  H   UNL     1      34.850 -10.695 -24.284  0.00  0.00    +0.149 HD
ATOM     22  H   UNL     1      31.352 -10.834 -22.183  0.00  0.00    +0.149 HD
ENDBRANCH   5  12
BRANCH   1  23
ATOM     23  C   UNL     1      34.159 -17.383 -21.730  0.00  0.00    +0.098 C 
BRANCH  23  24
ATOM     24  C   UNL     1      33.862 -18.877 -21.826  0.00  0.00    +0.022 C 
BRANCH  24  25
ATOM     25  C   UNL     1      34.802 -19.716 -20.961  0.00  0.00    +0.002 C 
BRANCH  25  27
ATOM     26  N   UNL     1      32.632 -22.126 -18.108  0.00  0.00    +0.385 N 
ATOM     27  C   UNL     1      34.126 -20.137 -19.658  0.00  0.00    -0.004 C 
ATOM     28  C   UNL     1      34.786 -21.392 -19.076  0.00  0.00    -0.023 C 
ATOM     29  C   UNL     1      32.630 -20.391 -19.871  0.00  0.00    -0.023 C 
ATOM     30  C   UNL     1      34.052 -21.878 -17.826  0.00  0.00    -0.077 C 
ATOM     31  C   UNL     1      31.967 -20.910 -18.594  0.00  0.00    -0.077 C 
ATOM     32  C   UNL     1      31.954 -22.640 -16.918  0.00  0.00    -0.101 C 
ATOM     33  H   UNL     1      32.576 -22.831 -18.845  0.00  0.00    -0.080 HD
ENDBRANCH  25  27
ENDBRANCH  24  25
ENDBRANCH  23  24
ENDBRANCH   1  23
TORSDOF 5
ENDMDL
MODEL 3
REMARK VINA RESULT:     -11.2      2.197     12.043
REMARK  Name = 23650961
REMARK  5 active torsions:
REMARK  status: ('A' for Active; 'I' for Inactive)
REMARK    1  A    between atoms: N_1  and  C_23
REMARK    2  A    between atoms: C_5  and  C_12
REMARK    3  A    between atoms: C_23  and  C_24
REMARK    4  A    between atoms: C_24  and  C_25
REMARK    5  A    between atoms: C_25  and  C_27
REMARK                            x       y       z     vdW  Elec       q    Type
REMARK                         _______ _______ _______ _____ _____    ______ ____
ROOT
ATOM      1  N   UNL     1      34.408 -18.871 -21.841  0.00  0.00    -0.268 N 
ATOM      2  N   UNL     1      34.924 -20.094 -19.905  0.00  0.00    -0.342 NA
ATOM      3  N   UNL     1      32.638 -19.780 -20.597  0.00  0.00    -0.170 NA
ATOM      4  C   UNL     1      33.976 -19.605 -20.747  0.00  0.00    +0.144 C 
ATOM      5  C   UNL     1      33.131 -21.039 -18.606  0.00  0.00    +0.061 C 
ATOM      6  C   UNL     1      34.469 -20.802 -18.851  0.00  0.00    +0.123 C 
ATOM      7  C   UNL     1      32.252 -20.498 -19.522  0.00  0.00    +0.113 C 
ATOM      8  C   UNL     1      35.521 -21.335 -17.933  0.00  0.00    +0.067 C 
ATOM      9  H   UNL     1      35.376 -18.740 -21.958  0.00  0.00    +0.159 HD
ENDROOT
BRANCH   5  12
ATOM     10  N   UNL     1      31.321 -21.966 -17.226  0.00  0.00    -0.314 N 
ATOM     11  N   UNL     1      33.403 -22.400 -16.578  0.00  0.00    -0.315 N 
ATOM     12  C   UNL     1      32.656 -21.795 -17.478  0.00  0.00    +0.171 C 
ATOM     13  C   UNL     1      31.201 -22.727 -16.092  0.00  0.00    +0.059 C 
ATOM     14  C   UNL     1      32.513 -22.985 -15.707  0.00  0.00    +0.055 C 
ATOM     15  C   UNL     1      32.750 -23.757 -14.557  0.00  0.00    -0.008 C 
ATOM     16  C   UNL     1      30.089 -23.198 -15.391  0.00  0.00    +0.011 C 
ATOM     17  C   UNL     1      30.343 -23.964 -14.249  0.00  0.00    -0.021 C 
ATOM     18  C   UNL     1      31.648 -24.240 -13.837  0.00  0.00    -0.007 C 
ATOM     19  C   UNL     1      34.127 -24.079 -14.076  0.00  0.00    +0.032 C 
ATOM     20  C   UNL     1      29.195 -24.497 -13.457  0.00  0.00    +0.031 C 
ATOM     21  H   UNL     1      30.580 -21.605 -17.763  0.00  0.00    +0.149 HD
ATOM     22  H   UNL     1      34.386 -22.427 -16.537  0.00  0.00    +0.149 HD
ENDBRANCH   5  12
BRANCH   1  23
ATOM     23  C   UNL     1      33.519 -18.291 -22.818  0.00  0.00    +0.098 C 
BRANCH  23  24
ATOM     24  C   UNL     1      33.985 -16.892 -23.210  0.00  0.00    +0.022 C 
BRANCH  24  25
ATOM     25  C   UNL     1      33.102 -16.264 -24.290  0.00  0.00    +0.002 C 
BRANCH  25  27
ATOM     26  N   UNL     1      33.521 -11.994 -23.784  0.00  0.00    +0.385 N 
ATOM     27  C   UNL     1      32.751 -14.818 -23.945  0.00  0.00    -0.004 C 
ATOM     28  C   UNL     1      32.844 -13.919 -25.182  0.00  0.00    -0.023 C 
ATOM     29  C   UNL     1      33.666 -14.277 -22.842  0.00  0.00    -0.023 C 
ATOM     30  C   UNL     1      32.593 -12.454 -24.826  0.00  0.00    -0.077 C 
ATOM     31  C   UNL     1      33.386 -12.799 -22.563  0.00  0.00    -0.077 C 
ATOM     32  C   UNL     1      33.302 -10.578 -23.490  0.00  0.00    -0.101 C 
ATOM     33  H   UNL     1      34.471 -12.112 -24.135  0.00  0.00    -0.080 HD
ENDBRANCH  25  27
ENDBRANCH  24  25
ENDBRANCH  23  24
ENDBRANCH   1  23
TORSDOF 5
ENDMDL
MODEL 4
REMARK VINA RESULT:     -11.1      3.763     13.190
REMARK  Name = 23650961
REMARK  5 active torsions:
REMARK  status: ('A' for Active; 'I' for Inactive)
REMARK    1  A    between atoms: N_1  and  C_23
REMARK    2  A    between atoms: C_5  and  C_12
REMARK    3  A    between atoms: C_23  and  C_24
REMARK    4  A    between atoms: C_24  and  C_25
REMARK    5  A    between atoms: C_25  and  C_27
REMARK                            x       y       z     vdW  Elec       q    Type
REMARK                         _______ _______ _______ _____ _____    ______ ____
ROOT
ATOM      1  N   UNL     1      34.277 -20.280 -19.991  0.00  0.00    -0.268 N 
ATOM      2  N   UNL     1      33.524 -21.674 -18.260  0.00  0.00    -0.342 NA
ATOM      3  N   UNL     1      35.694 -20.633 -18.155  0.00  0.00    -0.170 NA
ATOM      4  C   UNL     1      34.506 -20.881 -18.763  0.00  0.00    +0.144 C 
ATOM      5  C   UNL     1      34.954 -22.059 -16.362  0.00  0.00    +0.061 C 
ATOM      6  C   UNL     1      33.780 -22.244 -17.064  0.00  0.00    +0.123 C 
ATOM      7  C   UNL     1      35.885 -21.235 -16.962  0.00  0.00    +0.113 C 
ATOM      8  C   UNL     1      32.692 -23.113 -16.521  0.00  0.00    +0.067 C 
ATOM      9  H   UNL     1      33.418 -20.454 -20.439  0.00  0.00    +0.159 HD
ENDROOT
BRANCH   5  12
ATOM     10  N   UNL     1      34.434 -22.434 -13.990  0.00  0.00    -0.314 N 
ATOM     11  N   UNL     1      36.198 -23.506 -14.814  0.00  0.00    -0.315 N 
ATOM     12  C   UNL     1      35.217 -22.671 -15.087  0.00  0.00    +0.171 C 
ATOM     13  C   UNL     1      34.943 -23.160 -12.944  0.00  0.00    +0.059 C 
ATOM     14  C   UNL     1      36.043 -23.821 -13.483  0.00  0.00    +0.055 C 
ATOM     15  C   UNL     1      36.806 -24.667 -12.661  0.00  0.00    -0.008 C 
ATOM     16  C   UNL     1      34.547 -23.292 -11.612  0.00  0.00    +0.011 C 
ATOM     17  C   UNL     1      35.317 -24.138 -10.807  0.00  0.00    -0.021 C 
ATOM     18  C   UNL     1      36.426 -24.814 -11.320  0.00  0.00    -0.007 C 
ATOM     19  C   UNL     1      38.000 -25.411 -13.162  0.00  0.00    +0.032 C 
ATOM     20  C   UNL     1      34.944 -24.322  -9.373  0.00  0.00    +0.031 C 
ATOM     21  H   UNL     1      33.646 -21.846 -13.957  0.00  0.00    +0.149 HD
ATOM     22  H   UNL     1      36.894 -23.834 -15.430  0.00  0.00    +0.149 HD
ENDBRANCH   5  12
BRANCH   1  23
ATOM     23  C   UNL     1      35.226 -19.414 -20.649  0.00  0.00    +0.098 C 
BRANCH  23  24
ATOM     24  C   UNL     1      34.582 -18.077 -21.004  0.00  0.00    +0.022 C 
BRANCH  24  25
ATOM     25  C   UNL     1      34.088 -18.033 -22.451  0.00  0.00    +0.002 C 
BRANCH  25  27
ATOM     26  N   UNL     1      32.781 -14.054 -23.508  0.00  0.00    +0.385 N 
ATOM     27  C   UNL     1      34.124 -16.610 -23.004  0.00  0.00    -0.004 C 
ATOM     28  C   UNL     1      33.868 -15.583 -21.896  0.00  0.00    -0.023 C 
ATOM     29  C   UNL     1      33.096 -16.429 -24.125  0.00  0.00    -0.023 C 
ATOM     30  C   UNL     1      33.803 -14.162 -22.458  0.00  0.00    -0.077 C 
ATOM     31  C   UNL     1      33.057 -14.980 -24.614  0.00  0.00    -0.077 C 
ATOM     32  C   UNL     1      32.694 -12.680 -24.000  0.00  0.00    -0.101 C 
ATOM     33  H   UNL     1      31.882 -14.312 -23.099  0.00  0.00    -0.080 HD
ENDBRANCH  25  27
ENDBRANCH  24  25
ENDBRANCH  23  24
ENDBRANCH   1  23
TORSDOF 5
ENDMDL
MODEL 5
REMARK VINA RESULT:     -11.0      0.855      1.992
REMARK  Name = 23650961
REMARK  5 active torsions:
REMARK  status: ('A' for Active; 'I' for Inactive)
REMARK    1  A    between atoms: N_1  and  C_23
REMARK    2  A    between atoms: C_5  and  C_12
REMARK    3  A    between atoms: C_23  and  C_24
REMARK    4  A    between atoms: C_24  and  C_25
REMARK    5  A    between atoms: C_25  and  C_27
REMARK                            x       y       z     vdW  Elec       q    Type
REMARK                         _______ _______ _______ _____ _____    ______ ____
ROOT
ATOM      1  N   UNL     1      33.730 -17.911 -24.164  0.00  0.00    -0.268 N 
ATOM      2  N   UNL     1      32.811 -15.854 -24.820  0.00  0.00    -0.342 NA
ATOM      3  N   UNL     1      34.090 -16.045 -22.787  0.00  0.00    -0.170 NA
ATOM      4  C   UNL     1      33.538 -16.561 -23.916  0.00  0.00    +0.144 C 
ATOM      5  C   UNL     1      33.161 -13.920 -23.431  0.00  0.00    +0.061 C 
ATOM      6  C   UNL     1      32.643 -14.544 -24.548  0.00  0.00    +0.123 C 
ATOM      7  C   UNL     1      33.883 -14.729 -22.576  0.00  0.00    +0.113 C 
ATOM      8  C   UNL     1      31.842 -13.777 -25.550  0.00  0.00    +0.067 C 
ATOM      9  H   UNL     1      33.335 -18.294 -24.979  0.00  0.00    +0.159 HD
ENDROOT
BRANCH   5  12
ATOM     10  N   UNL     1      32.048 -12.079 -22.243  0.00  0.00    -0.314 N 
ATOM     11  N   UNL     1      33.638 -11.524 -23.694  0.00  0.00    -0.315 N 
ATOM     12  C   UNL     1      32.975 -12.522 -23.149  0.00  0.00    +0.171 C 
ATOM     13  C   UNL     1      32.119 -10.710 -22.204  0.00  0.00    +0.059 C 
ATOM     14  C   UNL     1      33.119 -10.388 -23.117  0.00  0.00    +0.055 C 
ATOM     15  C   UNL     1      33.450  -9.038 -23.323  0.00  0.00    -0.008 C 
ATOM     16  C   UNL     1      31.415  -9.754 -21.469  0.00  0.00    +0.011 C 
ATOM     17  C   UNL     1      31.757  -8.415 -21.687  0.00  0.00    -0.021 C 
ATOM     18  C   UNL     1      32.756  -8.061 -22.597  0.00  0.00    -0.007 C 
ATOM     19  C   UNL     1      34.509  -8.608 -24.285  0.00  0.00    +0.032 C 
ATOM     20  C   UNL     1      31.041  -7.346 -20.930  0.00  0.00    +0.031 C 
ATOM     21  H   UNL     1      31.439 -12.642 -21.715  0.00  0.00    +0.149 HD
ATOM     22  H   UNL     1      34.353 -11.579 -24.369  0.00  0.00    +0.149 HD
ENDBRANCH   5  12
BRANCH   1  23
ATOM     23  C   UNL     1      34.478 -18.787 -23.294  0.00  0.00    +0.098 C 
BRANCH  23  24
ATOM     24  C   UNL     1      33.797 -18.912 -21.935  0.00  0.00    +0.022 C 
BRANCH  24  25
ATOM     25  C   UNL     1      34.800 -19.007 -20.785  0.00  0.00    +0.002 C 
BRANCH  25  27
ATOM     26  N   UNL     1      33.051 -22.122 -18.356  0.00  0.00    +0.385 N 
ATOM     27  C   UNL     1      34.189 -19.711 -19.575  0.00  0.00    -0.004 C 
ATOM     28  C   UNL     1      35.054 -20.896 -19.135  0.00  0.00    -0.023 C 
ATOM     29  C   UNL     1      32.767 -20.193 -19.878  0.00  0.00    -0.023 C 
ATOM     30  C   UNL     1      34.399 -21.668 -17.988  0.00  0.00    -0.077 C 
ATOM     31  C   UNL     1      32.187 -20.987 -18.706  0.00  0.00    -0.077 C 
ATOM     32  C   UNL     1      32.458 -22.901 -17.270  0.00  0.00    -0.101 C 
ATOM     33  H   UNL     1      33.135 -22.719 -19.179  0.00  0.00    -0.080 HD
ENDBRANCH  25  27
ENDBRANCH  24  25
ENDBRANCH  23  24
ENDBRANCH   1  23
TORSDOF 5
ENDMDL
MODEL 6
REMARK VINA RESULT:     -10.6      1.761      3.226
REMARK  Name = 23650961
REMARK  5 active torsions:
REMARK  status: ('A' for Active; 'I' for Inactive)
REMARK    1  A    between atoms: N_1  and  C_23
REMARK    2  A    between atoms: C_5  and  C_12
REMARK    3  A    between atoms: C_23  and  C_24
REMARK    4  A    between atoms: C_24  and  C_25
REMARK    5  A    between atoms: C_25  and  C_27
REMARK                            x       y       z     vdW  Elec       q    Type
REMARK                         _______ _______ _______ _____ _____    ______ ____
ROOT
ATOM      1  N   UNL     1      34.639 -18.829 -21.423  0.00  0.00    -0.268 N 
ATOM      2  N   UNL     1      33.967 -17.100 -22.861  0.00  0.00    -0.342 NA
ATOM      3  N   UNL     1      34.254 -16.706 -20.502  0.00  0.00    -0.170 NA
ATOM      4  C   UNL     1      34.275 -17.503 -21.601  0.00  0.00    +0.144 C 
ATOM      5  C   UNL     1      33.563 -14.910 -21.948  0.00  0.00    +0.061 C 
ATOM      6  C   UNL     1      33.617 -15.805 -22.998  0.00  0.00    +0.123 C 
ATOM      7  C   UNL     1      33.895 -15.422 -20.710  0.00  0.00    +0.113 C 
ATOM      8  C   UNL     1      33.280 -15.374 -24.389  0.00  0.00    +0.067 C 
ATOM      9  H   UNL     1      34.658 -19.415 -22.214  0.00  0.00    +0.159 HD
ENDROOT
BRANCH   5  12
ATOM     10  N   UNL     1      32.219 -12.948 -21.332  0.00  0.00    -0.314 N 
ATOM     11  N   UNL     1      33.700 -12.679 -22.968  0.00  0.00    -0.315 N 
ATOM     12  C   UNL     1      33.187 -13.530 -22.104  0.00  0.00    +0.171 C 
ATOM     13  C   UNL     1      32.099 -11.639 -21.723  0.00  0.00    +0.059 C 
ATOM     14  C   UNL     1      33.033 -11.495 -22.745  0.00  0.00    +0.055 C 
ATOM     15  C   UNL     1      33.171 -10.248 -23.377  0.00  0.00    -0.008 C 
ATOM     16  C   UNL     1      31.278 -10.599 -21.284  0.00  0.00    +0.011 C 
ATOM     17  C   UNL     1      31.428  -9.365 -21.925  0.00  0.00    -0.021 C 
ATOM     18  C   UNL     1      32.356  -9.190 -22.952  0.00  0.00    -0.007 C 
ATOM     19  C   UNL     1      34.149 -10.011 -24.481  0.00  0.00    +0.032 C 
ATOM     20  C   UNL     1      30.578  -8.212 -21.498  0.00  0.00    +0.031 C 
ATOM     21  H   UNL     1      31.701 -13.390 -20.622  0.00  0.00    +0.149 HD
ATOM     22  H   UNL     1      34.407 -12.851 -23.631  0.00  0.00    +0.149 HD
ENDBRANCH   5  12
BRANCH   1  23
ATOM     23  C   UNL     1      34.992 -19.399 -20.146  0.00  0.00    +0.098 C 
BRANCH  23  24
ATOM     24  C   UNL     1      33.854 -20.259 -19.603  0.00  0.00    +0.022 C 
BRANCH  24  25
ATOM     25  C   UNL     1      34.353 -21.570 -18.993  0.00  0.00    +0.002 C 
BRANCH  25  27
ATOM     26  N   UNL     1      33.628 -23.348 -15.124  0.00  0.00    +0.385 N 
ATOM     27  C   UNL     1      33.889 -21.718 -17.546  0.00  0.00    -0.004 C 
ATOM     28  C   UNL     1      35.073 -22.004 -16.616  0.00  0.00    -0.023 C 
ATOM     29  C   UNL     1      32.845 -22.831 -17.413  0.00  0.00    -0.023 C 
ATOM     30  C   UNL     1      34.606 -22.253 -15.181  0.00  0.00    -0.077 C 
ATOM     31  C   UNL     1      32.451 -23.052 -15.951  0.00  0.00    -0.077 C 
ATOM     32  C   UNL     1      33.229 -23.608 -13.741  0.00  0.00    -0.101 C 
ATOM     33  H   UNL     1      34.073 -24.186 -15.499  0.00  0.00    -0.080 HD
ENDBRANCH  25  27
ENDBRANCH  24  25
ENDBRANCH  23  24
ENDBRANCH   1  23
TORSDOF 5
ENDMDL
MODEL 7
REMARK VINA RESULT:     -10.6      2.333     11.911
REMARK  Name = 23650961
REMARK  5 active torsions:
REMARK  status: ('A' for Active; 'I' for Inactive)
REMARK    1  A    between atoms: N_1  and  C_23
REMARK    2  A    between atoms: C_5  and  C_12
REMARK    3  A    between atoms: C_23  and  C_24
REMARK    4  A    between atoms: C_24  and  C_25
REMARK    5  A    between atoms: C_25  and  C_27
REMARK                            x       y       z     vdW  Elec       q    Type
REMARK                         _______ _______ _______ _____ _____    ______ ____
ROOT
ATOM      1  N   UNL     1      34.477 -19.114 -21.791  0.00  0.00    -0.268 N 
ATOM      2  N   UNL     1      34.766 -20.334 -19.807  0.00  0.00    -0.342 NA
ATOM      3  N   UNL     1      32.562 -19.819 -20.633  0.00  0.00    -0.170 NA
ATOM      4  C   UNL     1      33.917 -19.777 -20.710  0.00  0.00    +0.144 C 
ATOM      5  C   UNL     1      32.822 -21.071 -18.593  0.00  0.00    +0.061 C 
ATOM      6  C   UNL     1      34.188 -20.970 -18.767  0.00  0.00    +0.123 C 
ATOM      7  C   UNL     1      32.051 -20.470 -19.567  0.00  0.00    +0.113 C 
ATOM      8  C   UNL     1      35.132 -21.579 -17.782  0.00  0.00    +0.067 C 
ATOM      9  H   UNL     1      35.458 -19.079 -21.856  0.00  0.00    +0.159 HD
ENDROOT
BRANCH   5  12
ATOM     10  N   UNL     1      32.958 -22.423 -16.546  0.00  0.00    -0.314 N 
ATOM     11  N   UNL     1      30.928 -21.815 -17.217  0.00  0.00    -0.315 N 
ATOM     12  C   UNL     1      32.216 -21.751 -17.480  0.00  0.00    +0.171 C 
ATOM     13  C   UNL     1      32.092 -22.955 -15.625  0.00  0.00    +0.059 C 
ATOM     14  C   UNL     1      30.832 -22.562 -16.065  0.00  0.00    +0.055 C 
ATOM     15  C   UNL     1      29.698 -22.948 -15.331  0.00  0.00    -0.008 C 
ATOM     16  C   UNL     1      32.298 -23.724 -14.477  0.00  0.00    +0.011 C 
ATOM     17  C   UNL     1      31.159 -24.100 -13.759  0.00  0.00    -0.021 C 
ATOM     18  C   UNL     1      29.881 -23.721 -14.175  0.00  0.00    -0.007 C 
ATOM     19  C   UNL     1      28.311 -22.568 -15.735  0.00  0.00    +0.032 C 
ATOM     20  C   UNL     1      31.314 -24.922 -12.522  0.00  0.00    +0.031 C 
ATOM     21  H   UNL     1      33.937 -22.510 -16.538  0.00  0.00    +0.149 HD
ATOM     22  H   UNL     1      30.190 -21.416 -17.734  0.00  0.00    +0.149 HD
ENDBRANCH   5  12
BRANCH   1  23
ATOM     23  C   UNL     1      33.703 -18.475 -22.827  0.00  0.00    +0.098 C 
BRANCH  23  24
ATOM     24  C   UNL     1      34.173 -17.040 -23.048  0.00  0.00    +0.022 C 
BRANCH  24  25
ATOM     25  C   UNL     1      33.474 -16.372 -24.232  0.00  0.00    +0.002 C 
BRANCH  25  27
ATOM     26  N   UNL     1      33.471 -12.089 -23.671  0.00  0.00    +0.385 N 
ATOM     27  C   UNL     1      32.984 -14.972 -23.867  0.00  0.00    -0.004 C 
ATOM     28  C   UNL     1      32.981 -14.053 -25.093  0.00  0.00    -0.023 C 
ATOM     29  C   UNL     1      33.847 -14.358 -22.761  0.00  0.00    -0.023 C 
ATOM     30  C   UNL     1      32.587 -12.624 -24.716  0.00  0.00    -0.077 C 
ATOM     31  C   UNL     1      33.424 -12.918 -22.460  0.00  0.00    -0.077 C 
ATOM     32  C   UNL     1      33.115 -10.705 -23.358  0.00  0.00    -0.101 C 
ATOM     33  H   UNL     1      34.427 -12.107 -24.029  0.00  0.00    -0.080 HD
ENDBRANCH  25  27
ENDBRANCH  24  25
ENDBRANCH  23  24
ENDBRANCH   1  23
TORSDOF 5
ENDMDL
MODEL 8
REMARK VINA RESULT:     -10.5      3.011     12.421
REMARK  Name = 23650961
REMARK  5 active torsions:
REMARK  status: ('A' for Active; 'I' for Inactive)
REMARK    1  A    between atoms: N_1  and  C_23
REMARK    2  A    between atoms: C_5  and  C_12
REMARK    3  A    between atoms: C_23  and  C_24
REMARK    4  A    between atoms: C_24  and  C_25
REMARK    5  A    between atoms: C_25  and  C_27
REMARK                            x       y       z     vdW  Elec       q    Type
REMARK                         _______ _______ _______ _____ _____    ______ ____
ROOT
ATOM      1  N   UNL     1      34.130 -19.222 -21.187  0.00  0.00    -0.268 N 
ATOM      2  N   UNL     1      33.258 -20.642 -19.535  0.00  0.00    -0.342 NA
ATOM      3  N   UNL     1      35.544 -19.887 -19.437  0.00  0.00    -0.170 NA
ATOM      4  C   UNL     1      34.317 -19.940 -20.016  0.00  0.00    +0.144 C 
ATOM      5  C   UNL     1      34.682 -21.345 -17.725  0.00  0.00    +0.061 C 
ATOM      6  C   UNL     1      33.474 -21.330 -18.395  0.00  0.00    +0.123 C 
ATOM      7  C   UNL     1      35.691 -20.598 -18.299  0.00  0.00    +0.113 C 
ATOM      8  C   UNL     1      32.302 -22.098 -17.876  0.00  0.00    +0.067 C 
ATOM      9  H   UNL     1      33.244 -19.253 -21.614  0.00  0.00    +0.159 HD
ENDROOT
BRANCH   5  12
ATOM     10  N   UNL     1      36.160 -22.357 -16.044  0.00  0.00    -0.314 N 
ATOM     11  N   UNL     1      33.972 -22.568 -15.717  0.00  0.00    -0.315 N 
ATOM     12  C   UNL     1      34.902 -22.082 -16.510  0.00  0.00    +0.171 C 
ATOM     13  C   UNL     1      36.031 -23.066 -14.877  0.00  0.00    +0.059 C 
ATOM     14  C   UNL     1      34.656 -23.185 -14.694  0.00  0.00    +0.055 C 
ATOM     15  C   UNL     1      34.171 -23.871 -13.568  0.00  0.00    -0.008 C 
ATOM     16  C   UNL     1      36.971 -23.597 -13.992  0.00  0.00    +0.011 C 
ATOM     17  C   UNL     1      36.471 -24.278 -12.877  0.00  0.00    -0.021 C 
ATOM     18  C   UNL     1      35.097 -24.413 -12.666  0.00  0.00    -0.007 C 
ATOM     19  C   UNL     1      32.712 -24.043 -13.298  0.00  0.00    +0.032 C 
ATOM     20  C   UNL     1      37.427 -24.868 -11.892  0.00  0.00    +0.031 C 
ATOM     21  H   UNL     1      37.006 -22.093 -16.470  0.00  0.00    +0.149 HD
ATOM     22  H   UNL     1      32.995 -22.505 -15.830  0.00  0.00    +0.149 HD
ENDBRANCH   5  12
BRANCH   1  23
ATOM     23  C   UNL     1      35.161 -18.431 -21.815  0.00  0.00    +0.098 C 
BRANCH  23  24
ATOM     24  C   UNL     1      34.550 -17.362 -22.717  0.00  0.00    +0.022 C 
BRANCH  24  25
ATOM     25  C   UNL     1      34.170 -16.097 -21.948  0.00  0.00    +0.002 C 
BRANCH  25  27
ATOM     26  N   UNL     1      32.927 -13.274 -24.972  0.00  0.00    +0.385 N 
ATOM     27  C   UNL     1      33.265 -15.194 -22.783  0.00  0.00    -0.004 C 
ATOM     28  C   UNL     1      33.274 -15.616 -24.256  0.00  0.00    -0.023 C 
ATOM     29  C   UNL     1      33.689 -13.726 -22.663  0.00  0.00    -0.023 C 
ATOM     30  C   UNL     1      32.451 -14.657 -25.115  0.00  0.00    -0.077 C 
ATOM     31  C   UNL     1      32.851 -12.829 -23.575  0.00  0.00    -0.077 C 
ATOM     32  C   UNL     1      32.164 -12.376 -25.839  0.00  0.00    -0.101 C 
ATOM     33  H   UNL     1      33.907 -13.248 -25.257  0.00  0.00    -0.080 HD
ENDBRANCH  25  27
ENDBRANCH  24  25
ENDBRANCH  23  24
ENDBRANCH   1  23
TORSDOF 5
ENDMDL
MODEL 9
REMARK VINA RESULT:     -10.4      2.102      4.641
REMARK  Name = 23650961
REMARK  5 active torsions:
REMARK  status: ('A' for Active; 'I' for Inactive)
REMARK    1  A    between atoms: N_1  and  C_23
REMARK    2  A    between atoms: C_5  and  C_12
REMARK    3  A    between atoms: C_23  and  C_24
REMARK    4  A    between atoms: C_24  and  C_25
REMARK    5  A    between atoms: C_25  and  C_27
REMARK                            x       y       z     vdW  Elec       q    Type
REMARK                         _______ _______ _______ _____ _____    ______ ____
ROOT
ATOM      1  N   UNL     1      34.899 -20.513 -20.012  0.00  0.00    -0.268 N 
ATOM      2  N   UNL     1      33.960 -19.433 -21.872  0.00  0.00    -0.342 NA
ATOM      3  N   UNL     1      34.933 -18.167 -20.067  0.00  0.00    -0.170 NA
ATOM      4  C   UNL     1      34.588 -19.334 -20.671  0.00  0.00    +0.144 C 
ATOM      5  C   UNL     1      33.976 -17.028 -21.960  0.00  0.00    +0.061 C 
ATOM      6  C   UNL     1      33.671 -18.267 -22.485  0.00  0.00    +0.123 C 
ATOM      7  C   UNL     1      34.613 -17.039 -20.736  0.00  0.00    +0.113 C 
ATOM      8  C   UNL     1      32.981 -18.390 -23.805  0.00  0.00    +0.067 C 
ATOM      9  H   UNL     1      34.654 -21.363 -20.442  0.00  0.00    +0.159 HD
ENDROOT
BRANCH   5  12
ATOM     10  N   UNL     1      33.977 -14.573 -22.078  0.00  0.00    -0.314 N 
ATOM     11  N   UNL     1      33.063 -15.662 -23.787  0.00  0.00    -0.315 N 
ATOM     12  C   UNL     1      33.663 -15.790 -22.622  0.00  0.00    +0.171 C 
ATOM     13  C   UNL     1      33.550 -13.601 -22.945  0.00  0.00    +0.059 C 
ATOM     14  C   UNL     1      32.984 -14.305 -24.004  0.00  0.00    +0.055 C 
ATOM     15  C   UNL     1      32.440 -13.594 -25.087  0.00  0.00    -0.008 C 
ATOM     16  C   UNL     1      33.611 -12.207 -22.897  0.00  0.00    +0.011 C 
ATOM     17  C   UNL     1      33.064 -11.515 -23.983  0.00  0.00    -0.021 C 
ATOM     18  C   UNL     1      32.489 -12.193 -25.059  0.00  0.00    -0.007 C 
ATOM     19  C   UNL     1      31.814 -14.273 -26.261  0.00  0.00    +0.032 C 
ATOM     20  C   UNL     1      33.099 -10.022 -23.990  0.00  0.00    +0.031 C 
ATOM     21  H   UNL     1      34.427 -14.423 -21.216  0.00  0.00    +0.149 HD
ATOM     22  H   UNL     1      32.739 -16.382 -24.376  0.00  0.00    +0.149 HD
ENDBRANCH   5  12
BRANCH   1  23
ATOM     23  C   UNL     1      35.564 -20.563 -18.732  0.00  0.00    +0.098 C 
BRANCH  23  24
ATOM     24  C   UNL     1      34.946 -21.639 -17.843  0.00  0.00    +0.022 C 
BRANCH  24  25
ATOM     25  C   UNL     1      33.485 -21.920 -18.196  0.00  0.00    +0.002 C 
BRANCH  25  27
ATOM     26  N   UNL     1      31.582 -22.758 -14.410  0.00  0.00    +0.385 N 
ATOM     27  C   UNL     1      32.787 -22.696 -17.082  0.00  0.00    -0.004 C 
ATOM     28  C   UNL     1      31.400 -22.112 -16.791  0.00  0.00    -0.023 C 
ATOM     29  C   UNL     1      33.627 -22.696 -15.801  0.00  0.00    -0.023 C 
ATOM     30  C   UNL     1      30.735 -22.819 -15.609  0.00  0.00    -0.077 C 
ATOM     31  C   UNL     1      32.888 -23.385 -14.652  0.00  0.00    -0.077 C 
ATOM     32  C   UNL     1      30.911 -23.393 -13.276  0.00  0.00    -0.101 C 
ATOM     33  H   UNL     1      31.741 -21.775 -14.187  0.00  0.00    -0.080 HD
ENDBRANCH  25  27
ENDBRANCH  24  25
ENDBRANCH  23  24
ENDBRANCH   1  23
TORSDOF 5
ENDMDL
