MODEL 1
REMARK VINA RESULT:     -13.0      0.000      0.000
REMARK  Name = 24780387
REMARK  3 active torsions:
REMARK  status: ('A' for Active; 'I' for Inactive)
REMARK    1  A    between atoms: N_3  and  C_25
REMARK    2  A    between atoms: C_18  and  O_23
REMARK    3  A    between atoms: C_25  and  N_26
REMARK                            x       y       z     vdW  Elec       q    Type
REMARK                         _______ _______ _______ _____ _____    ______ ____
ROOT
ATOM      1  O   UNL     1      31.620 -24.599 -12.018  0.00  0.00    -0.270 OA
ATOM      2  O   UNL     1      35.128 -23.122 -14.637  0.00  0.00    -0.270 OA
ATOM      3  N   UNL     1      33.643 -23.992 -13.050  0.00  0.00    -0.244 N 
ATOM      4  N   UNL     1      31.169 -21.678 -17.770  0.00  0.00    -0.353 N 
ATOM      5  C   UNL     1      30.412 -23.403 -14.533  0.00  0.00    -0.020 A 
ATOM      6  C   UNL     1      30.136 -22.778 -15.758  0.00  0.00    -0.010 A 
ATOM      7  C   UNL     1      31.716 -23.537 -14.137  0.00  0.00    +0.054 A 
ATOM      8  C   UNL     1      29.150 -23.786 -13.832  0.00  0.00    +0.027 C 
ATOM      9  C   UNL     1      28.652 -22.684 -15.978  0.00  0.00    +0.028 C 
ATOM     10  C   UNL     1      31.192 -22.316 -16.556  0.00  0.00    +0.052 A 
ATOM     11  C   UNL     1      32.764 -23.083 -14.937  0.00  0.00    +0.059 A 
ATOM     12  C   UNL     1      28.138 -23.737 -14.986  0.00  0.00    +0.009 C 
ATOM     13  C   UNL     1      32.540 -22.455 -16.177  0.00  0.00    +0.024 A 
ATOM     14  C   UNL     1      32.280 -24.120 -12.921  0.00  0.00    +0.253 C 
ATOM     15  C   UNL     1      34.011 -23.380 -14.231  0.00  0.00    +0.253 C 
ATOM     16  C   UNL     1      33.329 -21.878 -17.230  0.00  0.00    +0.051 A 
ATOM     17  C   UNL     1      32.443 -21.405 -18.203  0.00  0.00    +0.060 A 
ATOM     18  C   UNL     1      34.710 -21.703 -17.465  0.00  0.00    +0.140 C 
ATOM     19  C   UNL     1      32.864 -20.775 -19.381  0.00  0.00    +0.017 C 
ATOM     20  C   UNL     1      35.148 -21.076 -18.638  0.00  0.00    +0.037 C 
ATOM     21  C   UNL     1      34.235 -20.619 -19.583  0.00  0.00    +0.005 C 
ATOM     22  H   UNL     1      30.349 -21.447 -18.265  0.00  0.00    +0.166 HD
ENDROOT
BRANCH  18  23
ATOM     23  O   UNL     1      35.709 -22.112 -16.626  0.00  0.00    -0.471 OA
ATOM     24  C   UNL     1      36.602 -21.110 -16.151  0.00  0.00    +0.252 C 
ENDBRANCH  18  23
BRANCH   3  25
ATOM     25  C   UNL     1      34.602 -24.444 -12.060  0.00  0.00    +0.028 C 
BRANCH  25  26
ATOM     26  N   UNL     1      35.897 -24.645 -12.706  0.00  0.00    +0.396 N 
ATOM     27  N   UNL     1      38.506 -25.873 -12.922  0.00  0.00    +0.383 N 
ATOM     28  C   UNL     1      36.994 -24.270 -11.804  0.00  0.00    -0.098 C 
ATOM     29  C   UNL     1      36.050 -26.037 -13.147  0.00  0.00    -0.098 C 
ATOM     30  C   UNL     1      38.353 -24.482 -12.480  0.00  0.00    -0.101 C 
ATOM     31  C   UNL     1      37.409 -26.248 -13.824  0.00  0.00    -0.101 C 
ATOM     32  C   UNL     1      39.801 -26.072 -13.569  0.00  0.00    -0.101 C 
ATOM     33  H   UNL     1      35.937 -24.041 -13.527  0.00  0.00    -0.077 HD
ATOM     34  H   UNL     1      38.468 -26.477 -12.101  0.00  0.00    -0.080 HD
ENDBRANCH  25  26
ENDBRANCH   3  25
TORSDOF 3
ENDMDL
MODEL 2
REMARK VINA RESULT:     -11.5      2.219      6.616
REMARK  Name = 24780387
REMARK  3 active torsions:
REMARK  status: ('A' for Active; 'I' for Inactive)
REMARK    1  A    between atoms: N_3  and  C_25
REMARK    2  A    between atoms: C_18  and  O_23
REMARK    3  A    between atoms: C_25  and  N_26
REMARK                            x       y       z     vdW  Elec       q    Type
REMARK                         _______ _______ _______ _____ _____    ______ ____
ROOT
ATOM      1  O   UNL     1      31.743 -21.949 -18.434  0.00  0.00    -0.270 OA
ATOM      2  O   UNL     1      35.812 -22.446 -16.303  0.00  0.00    -0.270 OA
ATOM      3  N   UNL     1      33.975 -22.106 -17.714  0.00  0.00    -0.244 N 
ATOM      4  N   UNL     1      32.674 -23.538 -12.236  0.00  0.00    -0.353 N 
ATOM      5  C   UNL     1      31.153 -22.666 -15.544  0.00  0.00    -0.020 A 
ATOM      6  C   UNL     1      31.176 -23.025 -14.189  0.00  0.00    -0.010 A 
ATOM      7  C   UNL     1      32.340 -22.495 -16.205  0.00  0.00    +0.054 A 
ATOM      8  C   UNL     1      29.750 -22.577 -16.050  0.00  0.00    +0.027 C 
ATOM      9  C   UNL     1      29.777 -23.214 -13.671  0.00  0.00    +0.028 C 
ATOM     10  C   UNL     1      32.405 -23.189 -13.534  0.00  0.00    +0.052 A 
ATOM     11  C   UNL     1      33.560 -22.652 -15.548  0.00  0.00    +0.059 A 
ATOM     12  C   UNL     1      28.963 -22.467 -14.736  0.00  0.00    +0.009 C 
ATOM     13  C   UNL     1      33.637 -23.005 -14.188  0.00  0.00    +0.024 A 
ATOM     14  C   UNL     1      32.606 -22.146 -17.599  0.00  0.00    +0.253 C 
ATOM     15  C   UNL     1      34.618 -22.398 -16.528  0.00  0.00    +0.253 C 
ATOM     16  C   UNL     1      34.664 -23.250 -13.214  0.00  0.00    +0.051 A 
ATOM     17  C   UNL     1      34.029 -23.579 -12.012  0.00  0.00    +0.060 A 
ATOM     18  C   UNL     1      36.076 -23.230 -13.220  0.00  0.00    +0.140 C 
ATOM     19  C   UNL     1      34.725 -23.884 -10.835  0.00  0.00    +0.017 C 
ATOM     20  C   UNL     1      36.788 -23.532 -12.052  0.00  0.00    +0.037 C 
ATOM     21  C   UNL     1      36.119 -23.854 -10.876  0.00  0.00    +0.005 C 
ATOM     22  H   UNL     1      31.990 -23.732 -11.554  0.00  0.00    +0.166 HD
ENDROOT
BRANCH  18  23
ATOM     23  O   UNL     1      36.853 -22.922 -14.302  0.00  0.00    -0.471 OA
ATOM     24  C   UNL     1      37.968 -23.771 -14.557  0.00  0.00    +0.252 C 
ENDBRANCH  18  23
BRANCH   3  25
ATOM     25  C   UNL     1      34.682 -21.794 -18.941  0.00  0.00    +0.028 C 
BRANCH  25  26
ATOM     26  N   UNL     1      34.519 -20.373 -19.240  0.00  0.00    +0.396 N 
ATOM     27  N   UNL     1      34.639 -18.079 -20.995  0.00  0.00    +0.383 N 
ATOM     28  C   UNL     1      35.803 -19.769 -19.618  0.00  0.00    -0.098 C 
ATOM     29  C   UNL     1      33.526 -20.174 -20.303  0.00  0.00    -0.098 C 
ATOM     30  C   UNL     1      35.632 -18.278 -19.933  0.00  0.00    -0.101 C 
ATOM     31  C   UNL     1      33.355 -18.684 -20.618  0.00  0.00    -0.101 C 
ATOM     32  C   UNL     1      34.476 -16.657 -21.292  0.00  0.00    -0.101 C 
ATOM     33  H   UNL     1      34.183 -19.911 -18.396  0.00  0.00    -0.077 HD
ATOM     34  H   UNL     1      34.975 -18.540 -21.840  0.00  0.00    -0.080 HD
ENDBRANCH  25  26
ENDBRANCH   3  25
TORSDOF 3
ENDMDL
MODEL 3
REMARK VINA RESULT:     -10.9      2.420      6.579
REMARK  Name = 24780387
REMARK  3 active torsions:
REMARK  status: ('A' for Active; 'I' for Inactive)
REMARK    1  A    between atoms: N_3  and  C_25
REMARK    2  A    between atoms: C_18  and  O_23
REMARK    3  A    between atoms: C_25  and  N_26
REMARK                            x       y       z     vdW  Elec       q    Type
REMARK                         _______ _______ _______ _____ _____    ______ ____
ROOT
ATOM      1  O   UNL     1      31.454 -24.853 -12.048  0.00  0.00    -0.270 OA
ATOM      2  O   UNL     1      31.218 -23.254 -16.376  0.00  0.00    -0.270 OA
ATOM      3  N   UNL     1      30.949 -24.180 -14.243  0.00  0.00    -0.244 N 
ATOM      4  N   UNL     1      36.176 -21.883 -15.319  0.00  0.00    -0.353 N 
ATOM      5  C   UNL     1      34.144 -23.599 -12.683  0.00  0.00    -0.020 A 
ATOM      6  C   UNL     1      35.272 -22.984 -13.247  0.00  0.00    -0.010 A 
ATOM      7  C   UNL     1      33.011 -23.728 -13.439  0.00  0.00    +0.054 A 
ATOM      8  C   UNL     1      34.429 -24.063 -11.291  0.00  0.00    +0.027 C 
ATOM      9  C   UNL     1      36.418 -22.991 -12.274  0.00  0.00    +0.028 C 
ATOM     10  C   UNL     1      35.215 -22.504 -14.563  0.00  0.00    +0.052 A 
ATOM     11  C   UNL     1      32.956 -23.243 -14.746  0.00  0.00    +0.059 A 
ATOM     12  C   UNL     1      35.681 -23.241 -10.951  0.00  0.00    +0.009 C 
ATOM     13  C   UNL     1      34.057 -22.613 -15.356  0.00  0.00    +0.024 A 
ATOM     14  C   UNL     1      31.721 -24.334 -13.116  0.00  0.00    +0.253 C 
ATOM     15  C   UNL     1      31.619 -23.536 -15.264  0.00  0.00    +0.253 C 
ATOM     16  C   UNL     1      34.366 -22.015 -16.626  0.00  0.00    +0.051 A 
ATOM     17  C   UNL     1      35.691 -21.573 -16.566  0.00  0.00    +0.060 A 
ATOM     18  C   UNL     1      33.660 -21.801 -17.829  0.00  0.00    +0.140 C 
ATOM     19  C   UNL     1      36.335 -20.937 -17.636  0.00  0.00    +0.017 C 
ATOM     20  C   UNL     1      34.289 -21.165 -18.908  0.00  0.00    +0.037 C 
ATOM     21  C   UNL     1      35.609 -20.740 -18.810  0.00  0.00    +0.005 C 
ATOM     22  H   UNL     1      37.090 -21.685 -15.010  0.00  0.00    +0.166 HD
ENDROOT
BRANCH  18  23
ATOM     23  O   UNL     1      32.360 -22.160 -18.054  0.00  0.00    -0.471 OA
ATOM     24  C   UNL     1      31.527 -21.197 -18.691  0.00  0.00    +0.252 C 
ENDBRANCH  18  23
BRANCH   3  25
ATOM     25  C   UNL     1      29.579 -24.642 -14.364  0.00  0.00    +0.028 C 
BRANCH  25  26
ATOM     26  N   UNL     1      28.799 -23.641 -15.087  0.00  0.00    +0.396 N 
ATOM     27  N   UNL     1      26.348 -22.235 -15.701  0.00  0.00    +0.383 N 
ATOM     28  C   UNL     1      27.730 -24.276 -15.868  0.00  0.00    -0.098 C 
ATOM     29  C   UNL     1      28.237 -22.649 -14.162  0.00  0.00    -0.098 C 
ATOM     30  C   UNL     1      26.909 -23.227 -16.626  0.00  0.00    -0.101 C 
ATOM     31  C   UNL     1      27.417 -21.599 -14.920  0.00  0.00    -0.101 C 
ATOM     32  C   UNL     1      25.569 -21.233 -16.427  0.00  0.00    -0.101 C 
ATOM     33  H   UNL     1      29.425 -23.159 -15.733  0.00  0.00    -0.077 HD
ATOM     34  H   UNL     1      25.721 -22.715 -15.057  0.00  0.00    -0.080 HD
ENDBRANCH  25  26
ENDBRANCH   3  25
TORSDOF 3
ENDMDL
