MODEL 1
REMARK VINA RESULT:     -10.5      0.000      0.000
REMARK  Name = 46207733
REMARK  4 active torsions:
REMARK  status: ('A' for Active; 'I' for Inactive)
REMARK    1  A    between atoms: N_2  and  C_16
REMARK    2  A    between atoms: C_10  and  C_24
REMARK    3  A    between atoms: C_17  and  O_22
REMARK    4  A    between atoms: C_24  and  C_26
REMARK                            x       y       z     vdW  Elec       q    Type
REMARK                         _______ _______ _______ _____ _____    ______ ____
ROOT
ATOM      1  O   UNL     1      34.401 -10.405 -24.875  0.00  0.00    -0.274 OA
ATOM      2  N   UNL     1      33.061 -11.381 -23.241  0.00  0.00    -0.257 N 
ATOM      3  N   UNL     1      31.785 -10.036 -21.759  0.00  0.00    -0.252 NA
ATOM      4  C   UNL     1      33.615 -10.306 -23.937  0.00  0.00    +0.236 C 
ATOM      5  C   UNL     1      32.181 -11.184 -22.196  0.00  0.00    +0.222 C 
ATOM      6  C   UNL     1      33.185  -8.969 -23.464  0.00  0.00    +0.138 C 
ATOM      7  C   UNL     1      32.284  -8.878 -22.390  0.00  0.00    +0.068 C 
ATOM      8  C   UNL     1      31.870  -7.598 -21.934  0.00  0.00    +0.014 C 
ATOM      9  C   UNL     1      33.677  -7.822 -24.087  0.00  0.00    -0.015 C 
ATOM     10  C   UNL     1      33.274  -6.568 -23.642  0.00  0.00    -0.021 C 
ATOM     11  C   UNL     1      32.376  -6.438 -22.573  0.00  0.00    -0.003 C 
ATOM     12  C   UNL     1      30.968  -7.423 -20.861  0.00  0.00    +0.001 C 
ATOM     13  C   UNL     1      31.975  -5.165 -22.132  0.00  0.00    -0.000 C 
ATOM     14  C   UNL     1      30.581  -6.151 -20.436  0.00  0.00    +0.000 C 
ATOM     15  C   UNL     1      31.084  -5.023 -21.071  0.00  0.00    -0.000 C 
ENDROOT
BRANCH   2  16
ATOM     16  C   UNL     1      33.416 -12.730 -23.623  0.00  0.00    +0.104 C 
ATOM     17  C   UNL     1      32.397 -13.294 -24.622  0.00  0.00    +0.129 C 
ATOM     18  C   UNL     1      33.534 -13.614 -22.377  0.00  0.00    +0.022 C 
ATOM     19  C   UNL     1      32.683 -14.760 -24.956  0.00  0.00    +0.031 C 
ATOM     20  C   UNL     1      33.827 -15.068 -22.734  0.00  0.00    +0.002 C 
ATOM     21  C   UNL     1      32.789 -15.622 -23.705  0.00  0.00    +0.003 C 
BRANCH  17  22
ATOM     22  O   UNL     1      32.460 -12.532 -25.826  0.00  0.00    -0.383 OA
ATOM     23  H   UNL     1      31.917 -12.958 -26.508  0.00  0.00    +0.210 HD
ENDBRANCH  17  22
ENDBRANCH   2  16
BRANCH  10  24
ATOM     24  C   UNL     1      33.841  -5.379 -24.355  0.00  0.00    +0.054 C 
BRANCH  24  26
ATOM     25  N   UNL     1      32.069  -5.351 -27.708  0.00  0.00    -0.248 NA
ATOM     26  C   UNL     1      33.616  -5.402 -25.851  0.00  0.00    +0.001 C 
ATOM     27  C   UNL     1      34.687  -5.494 -26.734  0.00  0.00    -0.001 C 
ATOM     28  C   UNL     1      32.339  -5.334 -26.383  0.00  0.00    +0.094 C 
ATOM     29  C   UNL     1      34.449  -5.514 -28.104  0.00  0.00    +0.014 C 
ATOM     30  C   UNL     1      33.135  -5.440 -28.537  0.00  0.00    +0.059 C 
ATOM     31  C   UNL     1      32.842  -5.460 -30.000  0.00  0.00    +0.052 C 
ENDBRANCH  24  26
ENDBRANCH  10  24
TORSDOF 4
ENDMDL
MODEL 2
REMARK VINA RESULT:     -10.4     11.493     17.157
REMARK  Name = 46207733
REMARK  4 active torsions:
REMARK  status: ('A' for Active; 'I' for Inactive)
REMARK    1  A    between atoms: N_2  and  C_16
REMARK    2  A    between atoms: C_10  and  C_24
REMARK    3  A    between atoms: C_17  and  O_22
REMARK    4  A    between atoms: C_24  and  C_26
REMARK                            x       y       z     vdW  Elec       q    Type
REMARK                         _______ _______ _______ _____ _____    ______ ____
ROOT
ATOM      1  O   UNL     1      35.567 -21.855 -17.508  0.00  0.00    -0.274 OA
ATOM      2  N   UNL     1      33.737 -21.093 -18.729  0.00  0.00    -0.257 N 
ATOM      3  N   UNL     1      31.525 -21.466 -17.954  0.00  0.00    -0.252 NA
ATOM      4  C   UNL     1      34.354 -21.733 -17.653  0.00  0.00    +0.236 C 
ATOM      5  C   UNL     1      32.364 -20.997 -18.817  0.00  0.00    +0.222 C 
ATOM      6  C   UNL     1      33.424 -22.286 -16.640  0.00  0.00    +0.138 C 
ATOM      7  C   UNL     1      32.040 -22.134 -16.825  0.00  0.00    +0.068 C 
ATOM      8  C   UNL     1      31.146 -22.663 -15.856  0.00  0.00    +0.014 C 
ATOM      9  C   UNL     1      33.931 -22.948 -15.522  0.00  0.00    -0.015 C 
ATOM     10  C   UNL     1      33.058 -23.467 -14.572  0.00  0.00    -0.021 C 
ATOM     11  C   UNL     1      31.670 -23.335 -14.722  0.00  0.00    -0.003 C 
ATOM     12  C   UNL     1      29.742 -22.552 -15.968  0.00  0.00    +0.001 C 
ATOM     13  C   UNL     1      30.798 -23.863 -13.756  0.00  0.00    -0.000 C 
ATOM     14  C   UNL     1      28.890 -23.084 -14.999  0.00  0.00    +0.000 C 
ATOM     15  C   UNL     1      29.417 -23.739 -13.894  0.00  0.00    -0.000 C 
ENDROOT
BRANCH   2  16
ATOM     16  C   UNL     1      34.555 -20.519 -19.774  0.00  0.00    +0.104 C 
ATOM     17  C   UNL     1      35.402 -19.364 -19.224  0.00  0.00    +0.129 C 
ATOM     18  C   UNL     1      33.673 -20.065 -20.941  0.00  0.00    +0.022 C 
ATOM     19  C   UNL     1      36.192 -18.663 -20.330  0.00  0.00    +0.031 C 
ATOM     20  C   UNL     1      34.483 -19.376 -22.035  0.00  0.00    +0.002 C 
ATOM     21  C   UNL     1      35.296 -18.213 -21.476  0.00  0.00    +0.003 C 
BRANCH  17  22
ATOM     22  O   UNL     1      36.323 -19.882 -18.265  0.00  0.00    -0.383 OA
ATOM     23  H   UNL     1      37.166 -20.083 -18.701  0.00  0.00    +0.210 HD
ENDBRANCH  17  22
ENDBRANCH   2  16
BRANCH  10  24
ATOM     24  C   UNL     1      33.669 -24.166 -13.396  0.00  0.00    +0.054 C 
BRANCH  24  26
ATOM     25  N   UNL     1      37.449 -23.860 -13.340  0.00  0.00    -0.248 NA
ATOM     26  C   UNL     1      35.132 -24.505 -13.583  0.00  0.00    +0.001 C 
ATOM     27  C   UNL     1      35.519 -25.716 -14.146  0.00  0.00    -0.001 C 
ATOM     28  C   UNL     1      36.126 -23.619 -13.200  0.00  0.00    +0.094 C 
ATOM     29  C   UNL     1      36.871 -26.000 -14.306  0.00  0.00    +0.014 C 
ATOM     30  C   UNL     1      37.788 -25.048 -13.890  0.00  0.00    +0.059 C 
ATOM     31  C   UNL     1      39.248 -25.319 -14.047  0.00  0.00    +0.052 C 
ENDBRANCH  24  26
ENDBRANCH  10  24
TORSDOF 4
ENDMDL
MODEL 3
REMARK VINA RESULT:     -10.4     11.786     17.136
REMARK  Name = 46207733
REMARK  4 active torsions:
REMARK  status: ('A' for Active; 'I' for Inactive)
REMARK    1  A    between atoms: N_2  and  C_16
REMARK    2  A    between atoms: C_10  and  C_24
REMARK    3  A    between atoms: C_17  and  O_22
REMARK    4  A    between atoms: C_24  and  C_26
REMARK                            x       y       z     vdW  Elec       q    Type
REMARK                         _______ _______ _______ _____ _____    ______ ____
ROOT
ATOM      1  O   UNL     1      31.809 -22.089 -18.025  0.00  0.00    -0.274 OA
ATOM      2  N   UNL     1      34.073 -21.551 -17.969  0.00  0.00    -0.257 N 
ATOM      3  N   UNL     1      35.387 -22.043 -16.055  0.00  0.00    -0.252 NA
ATOM      4  C   UNL     1      32.889 -22.069 -17.442  0.00  0.00    +0.236 C 
ATOM      5  C   UNL     1      35.249 -21.568 -17.247  0.00  0.00    +0.222 C 
ATOM      6  C   UNL     1      33.007 -22.623 -16.073  0.00  0.00    +0.138 C 
ATOM      7  C   UNL     1      34.252 -22.592 -15.424  0.00  0.00    +0.068 C 
ATOM      8  C   UNL     1      34.367 -23.122 -14.112  0.00  0.00    +0.014 C 
ATOM      9  C   UNL     1      31.884 -23.167 -15.447  0.00  0.00    -0.015 C 
ATOM     10  C   UNL     1      31.995 -23.687 -14.162  0.00  0.00    -0.021 C 
ATOM     11  C   UNL     1      33.221 -23.672 -13.483  0.00  0.00    -0.003 C 
ATOM     12  C   UNL     1      35.583 -23.128 -13.392  0.00  0.00    +0.001 C 
ATOM     13  C   UNL     1      33.321 -24.201 -12.185  0.00  0.00    -0.000 C 
ATOM     14  C   UNL     1      35.664 -23.656 -12.103  0.00  0.00    +0.000 C 
ATOM     15  C   UNL     1      34.534 -24.192 -11.499  0.00  0.00    -0.000 C 
ENDROOT
BRANCH   2  16
ATOM     16  C   UNL     1      34.067 -20.984 -19.300  0.00  0.00    +0.104 C 
ATOM     17  C   UNL     1      35.284 -20.072 -19.503  0.00  0.00    +0.129 C 
ATOM     18  C   UNL     1      32.754 -20.236 -19.545  0.00  0.00    +0.022 C 
ATOM     19  C   UNL     1      35.244 -19.369 -20.860  0.00  0.00    +0.031 C 
ATOM     20  C   UNL     1      32.734 -19.549 -20.907  0.00  0.00    +0.002 C 
ATOM     21  C   UNL     1      33.935 -18.624 -21.081  0.00  0.00    +0.003 C 
BRANCH  17  22
ATOM     22  O   UNL     1      36.471 -20.862 -19.434  0.00  0.00    -0.383 OA
ATOM     23  H   UNL     1      36.778 -21.063 -20.331  0.00  0.00    +0.210 HD
ENDBRANCH  17  22
ENDBRANCH   2  16
BRANCH  10  24
ATOM     24  C   UNL     1      30.751 -24.255 -13.549  0.00  0.00    +0.054 C 
BRANCH  24  26
ATOM     25  N   UNL     1      27.989 -21.803 -14.410  0.00  0.00    -0.248 NA
ATOM     26  C   UNL     1      29.474 -23.690 -14.131  0.00  0.00    +0.001 C 
ATOM     27  C   UNL     1      28.622 -24.483 -14.893  0.00  0.00    -0.001 C 
ATOM     28  C   UNL     1      29.115 -22.369 -13.920  0.00  0.00    +0.094 C 
ATOM     29  C   UNL     1      27.454 -23.937 -15.414  0.00  0.00    +0.014 C 
ATOM     30  C   UNL     1      27.186 -22.604 -15.147  0.00  0.00    +0.059 C 
ATOM     31  C   UNL     1      25.941 -21.984 -15.689  0.00  0.00    +0.052 C 
ENDBRANCH  24  26
ENDBRANCH  10  24
TORSDOF 4
ENDMDL
MODEL 4
REMARK VINA RESULT:     -10.2     12.867     17.388
REMARK  Name = 46207733
REMARK  4 active torsions:
REMARK  status: ('A' for Active; 'I' for Inactive)
REMARK    1  A    between atoms: N_2  and  C_16
REMARK    2  A    between atoms: C_10  and  C_24
REMARK    3  A    between atoms: C_17  and  O_22
REMARK    4  A    between atoms: C_24  and  C_26
REMARK                            x       y       z     vdW  Elec       q    Type
REMARK                         _______ _______ _______ _____ _____    ______ ____
ROOT
ATOM      1  O   UNL     1      30.984 -22.531 -15.885  0.00  0.00    -0.274 OA
ATOM      2  N   UNL     1      30.342 -23.561 -13.898  0.00  0.00    -0.257 N 
ATOM      3  N   UNL     1      31.966 -24.227 -12.301  0.00  0.00    -0.252 NA
ATOM      4  C   UNL     1      31.267 -23.044 -14.806  0.00  0.00    +0.236 C 
ATOM      5  C   UNL     1      30.744 -24.121 -12.703  0.00  0.00    +0.222 C 
ATOM      6  C   UNL     1      32.683 -23.148 -14.380  0.00  0.00    +0.138 C 
ATOM      7  C   UNL     1      32.986 -23.737 -13.142  0.00  0.00    +0.068 C 
ATOM      8  C   UNL     1      34.342 -23.838 -12.731  0.00  0.00    +0.014 C 
ATOM      9  C   UNL     1      33.694 -22.663 -15.211  0.00  0.00    -0.015 C 
ATOM     10  C   UNL     1      35.022 -22.762 -14.812  0.00  0.00    -0.021 C 
ATOM     11  C   UNL     1      35.363 -23.344 -13.582  0.00  0.00    -0.003 C 
ATOM     12  C   UNL     1      34.728 -24.416 -11.502  0.00  0.00    +0.001 C 
ATOM     13  C   UNL     1      36.708 -23.438 -13.189  0.00  0.00    -0.000 C 
ATOM     14  C   UNL     1      36.070 -24.502 -11.127  0.00  0.00    +0.000 C 
ATOM     15  C   UNL     1      37.059 -24.014 -11.970  0.00  0.00    -0.000 C 
ENDROOT
BRANCH   2  16
ATOM     16  C   UNL     1      28.933 -23.509 -14.217  0.00  0.00    +0.104 C 
ATOM     17  C   UNL     1      28.630 -24.357 -15.460  0.00  0.00    +0.129 C 
ATOM     18  C   UNL     1      28.490 -22.055 -14.405  0.00  0.00    +0.022 C 
ATOM     19  C   UNL     1      27.167 -24.230 -15.889  0.00  0.00    +0.031 C 
ATOM     20  C   UNL     1      27.027 -21.953 -14.826  0.00  0.00    +0.002 C 
ATOM     21  C   UNL     1      26.750 -22.778 -16.078  0.00  0.00    +0.003 C 
BRANCH  17  22
ATOM     22  O   UNL     1      28.900 -25.726 -15.162  0.00  0.00    -0.383 OA
ATOM     23  H   UNL     1      28.143 -26.271 -15.427  0.00  0.00    +0.210 HD
ENDBRANCH  17  22
ENDBRANCH   2  16
BRANCH  10  24
ATOM     24  C   UNL     1      36.057 -22.222 -15.751  0.00  0.00    +0.054 C 
BRANCH  24  26
ATOM     25  N   UNL     1      35.704 -20.065 -18.851  0.00  0.00    -0.248 NA
ATOM     26  C   UNL     1      35.477 -21.618 -17.012  0.00  0.00    +0.001 C 
ATOM     27  C   UNL     1      34.237 -22.022 -17.495  0.00  0.00    -0.001 C 
ATOM     28  C   UNL     1      36.165 -20.646 -17.720  0.00  0.00    +0.094 C 
ATOM     29  C   UNL     1      33.730 -21.448 -18.656  0.00  0.00    +0.014 C 
ATOM     30  C   UNL     1      34.495 -20.484 -19.291  0.00  0.00    +0.059 C 
ATOM     31  C   UNL     1      33.982 -19.846 -20.539  0.00  0.00    +0.052 C 
ENDBRANCH  24  26
ENDBRANCH  10  24
TORSDOF 4
ENDMDL
MODEL 5
REMARK VINA RESULT:      -9.4      2.138      2.493
REMARK  Name = 46207733
REMARK  4 active torsions:
REMARK  status: ('A' for Active; 'I' for Inactive)
REMARK    1  A    between atoms: N_2  and  C_16
REMARK    2  A    between atoms: C_10  and  C_24
REMARK    3  A    between atoms: C_17  and  O_22
REMARK    4  A    between atoms: C_24  and  C_26
REMARK                            x       y       z     vdW  Elec       q    Type
REMARK                         _______ _______ _______ _____ _____    ______ ____
ROOT
ATOM      1  O   UNL     1      33.826 -10.519 -24.747  0.00  0.00    -0.274 OA
ATOM      2  N   UNL     1      32.911 -11.811 -23.040  0.00  0.00    -0.257 N 
ATOM      3  N   UNL     1      31.811 -10.786 -21.204  0.00  0.00    -0.252 NA
ATOM      4  C   UNL     1      33.222 -10.612 -23.682  0.00  0.00    +0.236 C 
ATOM      5  C   UNL     1      32.226 -11.828 -21.842  0.00  0.00    +0.222 C 
ATOM      6  C   UNL     1      32.761  -9.391 -22.979  0.00  0.00    +0.138 C 
ATOM      7  C   UNL     1      32.071  -9.518 -21.763  0.00  0.00    +0.068 C 
ATOM      8  C   UNL     1      31.629  -8.350 -21.087  0.00  0.00    +0.014 C 
ATOM      9  C   UNL     1      33.018  -8.136 -23.531  0.00  0.00    -0.015 C 
ATOM     10  C   UNL     1      32.587  -6.990 -22.871  0.00  0.00    -0.021 C 
ATOM     11  C   UNL     1      31.895  -7.078 -21.655  0.00  0.00    -0.003 C 
ATOM     12  C   UNL     1      30.929  -8.393 -19.861  0.00  0.00    +0.001 C 
ATOM     13  C   UNL     1      31.463  -5.914 -20.997  0.00  0.00    -0.000 C 
ATOM     14  C   UNL     1      30.508  -7.227 -19.221  0.00  0.00    +0.000 C 
ATOM     15  C   UNL     1      30.776  -5.988 -19.788  0.00  0.00    -0.000 C 
ENDROOT
BRANCH   2  16
ATOM     16  C   UNL     1      33.316 -13.062 -23.642  0.00  0.00    +0.104 C 
ATOM     17  C   UNL     1      32.197 -13.621 -24.530  0.00  0.00    +0.129 C 
ATOM     18  C   UNL     1      33.724 -14.060 -22.554  0.00  0.00    +0.022 C 
ATOM     19  C   UNL     1      32.553 -14.999 -25.089  0.00  0.00    +0.031 C 
ATOM     20  C   UNL     1      34.081 -15.424 -23.135  0.00  0.00    +0.002 C 
ATOM     21  C   UNL     1      32.947 -15.978 -23.991  0.00  0.00    +0.003 C 
BRANCH  17  22
ATOM     22  O   UNL     1      31.985 -12.727 -25.622  0.00  0.00    -0.383 OA
ATOM     23  H   UNL     1      31.770 -13.236 -26.420  0.00  0.00    +0.210 HD
ENDBRANCH  17  22
ENDBRANCH   2  16
BRANCH  10  24
ATOM     24  C   UNL     1      32.896  -5.675 -23.519  0.00  0.00    +0.054 C 
BRANCH  24  26
ATOM     25  N   UNL     1      30.491  -2.893 -24.446  0.00  0.00    -0.248 NA
ATOM     26  C   UNL     1      31.677  -4.965 -24.066  0.00  0.00    +0.001 C 
ATOM     27  C   UNL     1      30.646  -5.676 -24.670  0.00  0.00    -0.001 C 
ATOM     28  C   UNL     1      31.553  -3.588 -23.979  0.00  0.00    +0.094 C 
ATOM     29  C   UNL     1      29.537  -4.996 -25.163  0.00  0.00    +0.014 C 
ATOM     30  C   UNL     1      29.508  -3.617 -25.028  0.00  0.00    +0.059 C 
ATOM     31  C   UNL     1      28.333  -2.854 -25.545  0.00  0.00    +0.052 C 
ENDBRANCH  24  26
ENDBRANCH  10  24
TORSDOF 4
ENDMDL
MODEL 6
REMARK VINA RESULT:      -8.5      9.793     16.158
REMARK  Name = 46207733
REMARK  4 active torsions:
REMARK  status: ('A' for Active; 'I' for Inactive)
REMARK    1  A    between atoms: N_2  and  C_16
REMARK    2  A    between atoms: C_10  and  C_24
REMARK    3  A    between atoms: C_17  and  O_22
REMARK    4  A    between atoms: C_24  and  C_26
REMARK                            x       y       z     vdW  Elec       q    Type
REMARK                         _______ _______ _______ _____ _____    ______ ____
ROOT
ATOM      1  O   UNL     1      36.396 -19.646 -19.747  0.00  0.00    -0.274 OA
ATOM      2  N   UNL     1      34.156 -19.646 -20.382  0.00  0.00    -0.257 N 
ATOM      3  N   UNL     1      32.537 -20.821 -19.106  0.00  0.00    -0.252 NA
ATOM      4  C   UNL     1      35.233 -19.994 -19.565  0.00  0.00    +0.236 C 
ATOM      5  C   UNL     1      32.876 -20.079 -20.106  0.00  0.00    +0.222 C 
ATOM      6  C   UNL     1      34.885 -20.847 -18.405  0.00  0.00    +0.138 C 
ATOM      7  C   UNL     1      33.548 -21.234 -18.214  0.00  0.00    +0.068 C 
ATOM      8  C   UNL     1      33.211 -22.052 -17.103  0.00  0.00    +0.014 C 
ATOM      9  C   UNL     1      35.884 -21.256 -17.521  0.00  0.00    -0.015 C 
ATOM     10  C   UNL     1      35.557 -22.059 -16.433  0.00  0.00    -0.021 C 
ATOM     11  C   UNL     1      34.233 -22.464 -16.210  0.00  0.00    -0.003 C 
ATOM     12  C   UNL     1      31.892 -22.483 -16.842  0.00  0.00    +0.001 C 
ATOM     13  C   UNL     1      33.914 -23.274 -15.107  0.00  0.00    -0.000 C 
ATOM     14  C   UNL     1      31.593 -23.288 -15.741  0.00  0.00    +0.000 C 
ATOM     15  C   UNL     1      32.603 -23.683 -14.875  0.00  0.00    -0.000 C 
ENDROOT
BRANCH   2  16
ATOM     16  C   UNL     1      34.388 -18.815 -21.543  0.00  0.00    +0.104 C 
ATOM     17  C   UNL     1      34.010 -17.358 -21.247  0.00  0.00    +0.129 C 
ATOM     18  C   UNL     1      33.616 -19.366 -22.745  0.00  0.00    +0.022 C 
ATOM     19  C   UNL     1      34.136 -16.477 -22.492  0.00  0.00    +0.031 C 
ATOM     20  C   UNL     1      33.762 -18.476 -23.975  0.00  0.00    +0.002 C 
ATOM     21  C   UNL     1      33.355 -17.038 -23.672  0.00  0.00    +0.003 C 
BRANCH  17  22
ATOM     22  O   UNL     1      34.881 -16.849 -20.239  0.00  0.00    -0.383 OA
ATOM     23  H   UNL     1      35.475 -16.188 -20.627  0.00  0.00    +0.210 HD
ENDBRANCH  17  22
ENDBRANCH   2  16
BRANCH  10  24
ATOM     24  C   UNL     1      36.677 -22.461 -15.524  0.00  0.00    +0.054 C 
BRANCH  24  26
ATOM     25  N   UNL     1      35.395 -22.817 -11.972  0.00  0.00    -0.248 NA
ATOM     26  C   UNL     1      36.214 -23.094 -14.230  0.00  0.00    +0.001 C 
ATOM     27  C   UNL     1      36.173 -24.477 -14.084  0.00  0.00    -0.001 C 
ATOM     28  C   UNL     1      35.818 -22.316 -13.155  0.00  0.00    +0.094 C 
ATOM     29  C   UNL     1      35.743 -25.030 -12.883  0.00  0.00    +0.014 C 
ATOM     30  C   UNL     1      35.367 -24.165 -11.867  0.00  0.00    +0.059 C 
ATOM     31  C   UNL     1      34.901 -24.724 -10.564  0.00  0.00    +0.052 C 
ENDBRANCH  24  26
ENDBRANCH  10  24
TORSDOF 4
ENDMDL
MODEL 7
REMARK VINA RESULT:      -8.4      3.155      5.287
REMARK  Name = 46207733
REMARK  4 active torsions:
REMARK  status: ('A' for Active; 'I' for Inactive)
REMARK    1  A    between atoms: N_2  and  C_16
REMARK    2  A    between atoms: C_10  and  C_24
REMARK    3  A    between atoms: C_17  and  O_22
REMARK    4  A    between atoms: C_24  and  C_26
REMARK                            x       y       z     vdW  Elec       q    Type
REMARK                         _______ _______ _______ _____ _____    ______ ____
ROOT
ATOM      1  O   UNL     1      34.198  -6.674 -22.342  0.00  0.00    -0.274 OA
ATOM      2  N   UNL     1      31.983  -7.323 -22.648  0.00  0.00    -0.257 N 
ATOM      3  N   UNL     1      30.752  -6.575 -24.535  0.00  0.00    -0.252 NA
ATOM      4  C   UNL     1      33.157  -6.650 -22.992  0.00  0.00    +0.236 C 
ATOM      5  C   UNL     1      30.853  -7.245 -23.437  0.00  0.00    +0.222 C 
ATOM      6  C   UNL     1      33.081  -5.868 -24.248  0.00  0.00    +0.138 C 
ATOM      7  C   UNL     1      31.881  -5.855 -24.978  0.00  0.00    +0.068 C 
ATOM      8  C   UNL     1      31.806  -5.105 -26.182  0.00  0.00    +0.014 C 
ATOM      9  C   UNL     1      34.196  -5.155 -24.688  0.00  0.00    -0.015 C 
ATOM     10  C   UNL     1      34.125  -4.419 -25.867  0.00  0.00    -0.021 C 
ATOM     11  C   UNL     1      32.944  -4.383 -26.622  0.00  0.00    -0.003 C 
ATOM     12  C   UNL     1      30.637  -5.042 -26.973  0.00  0.00    +0.001 C 
ATOM     13  C   UNL     1      32.884  -3.637 -27.811  0.00  0.00    -0.000 C 
ATOM     14  C   UNL     1      30.594  -4.295 -28.151  0.00  0.00    +0.000 C 
ATOM     15  C   UNL     1      31.716  -3.593 -28.570  0.00  0.00    -0.000 C 
ENDROOT
BRANCH   2  16
ATOM     16  C   UNL     1      31.950  -8.115 -21.440  0.00  0.00    +0.104 C 
ATOM     17  C   UNL     1      31.361  -9.504 -21.721  0.00  0.00    +0.129 C 
ATOM     18  C   UNL     1      31.163  -7.379 -20.351  0.00  0.00    +0.022 C 
ATOM     19  C   UNL     1      31.207 -10.325 -20.439  0.00  0.00    +0.031 C 
ATOM     20  C   UNL     1      31.029  -8.213 -19.081  0.00  0.00    +0.002 C 
ATOM     21  C   UNL     1      30.416  -9.579 -19.374  0.00  0.00    +0.003 C 
BRANCH  17  22
ATOM     22  O   UNL     1      32.232 -10.204 -22.608  0.00  0.00    -0.383 OA
ATOM     23  H   UNL     1      32.195  -9.795 -23.487  0.00  0.00    +0.210 HD
ENDBRANCH  17  22
ENDBRANCH   2  16
BRANCH  10  24
ATOM     24  C   UNL     1      35.359  -3.678 -26.281  0.00  0.00    +0.054 C 
BRANCH  24  26
ATOM     25  N   UNL     1      38.612  -4.948 -27.761  0.00  0.00    -0.248 NA
ATOM     26  C   UNL     1      36.332  -4.515 -27.081  0.00  0.00    +0.001 C 
ATOM     27  C   UNL     1      35.890  -5.585 -27.853  0.00  0.00    -0.001 C 
ATOM     28  C   UNL     1      37.690  -4.241 -27.069  0.00  0.00    +0.094 C 
ATOM     29  C   UNL     1      36.808  -6.337 -28.579  0.00  0.00    +0.014 C 
ATOM     30  C   UNL     1      38.145  -5.981 -28.499  0.00  0.00    +0.059 C 
ATOM     31  C   UNL     1      39.158  -6.766 -29.265  0.00  0.00    +0.052 C 
ENDBRANCH  24  26
ENDBRANCH  10  24
TORSDOF 4
ENDMDL
MODEL 8
REMARK VINA RESULT:      -8.3      2.144      7.289
REMARK  Name = 46207733
REMARK  4 active torsions:
REMARK  status: ('A' for Active; 'I' for Inactive)
REMARK    1  A    between atoms: N_2  and  C_16
REMARK    2  A    between atoms: C_10  and  C_24
REMARK    3  A    between atoms: C_17  and  O_22
REMARK    4  A    between atoms: C_24  and  C_26
REMARK                            x       y       z     vdW  Elec       q    Type
REMARK                         _______ _______ _______ _____ _____    ______ ____
ROOT
ATOM      1  O   UNL     1      31.537  -8.615 -25.032  0.00  0.00    -0.274 OA
ATOM      2  N   UNL     1      32.119  -6.364 -24.904  0.00  0.00    -0.257 N 
ATOM      3  N   UNL     1      32.057  -5.214 -22.829  0.00  0.00    -0.252 NA
ATOM      4  C   UNL     1      31.696  -7.587 -24.380  0.00  0.00    +0.236 C 
ATOM      5  C   UNL     1      32.274  -5.253 -24.101  0.00  0.00    +0.222 C 
ATOM      6  C   UNL     1      31.435  -7.582 -22.921  0.00  0.00    +0.138 C 
ATOM      7  C   UNL     1      31.623  -6.396 -22.194  0.00  0.00    +0.068 C 
ATOM      8  C   UNL     1      31.374  -6.389 -20.796  0.00  0.00    +0.014 C 
ATOM      9  C   UNL     1      31.006  -8.751 -22.291  0.00  0.00    -0.015 C 
ATOM     10  C   UNL     1      30.760  -8.746 -20.922  0.00  0.00    -0.021 C 
ATOM     11  C   UNL     1      30.938  -7.581 -20.163  0.00  0.00    -0.003 C 
ATOM     12  C   UNL     1      31.540  -5.238 -19.994  0.00  0.00    +0.001 C 
ATOM     13  C   UNL     1      30.687  -7.588 -18.781  0.00  0.00    -0.000 C 
ATOM     14  C   UNL     1      31.285  -5.262 -18.622  0.00  0.00    +0.000 C 
ATOM     15  C   UNL     1      30.859  -6.437 -18.016  0.00  0.00    -0.000 C 
ENDROOT
BRANCH   2  16
ATOM     16  C   UNL     1      32.400  -6.260 -26.319  0.00  0.00    +0.104 C 
ATOM     17  C   UNL     1      33.439  -5.162 -26.583  0.00  0.00    +0.129 C 
ATOM     18  C   UNL     1      31.104  -6.009 -27.094  0.00  0.00    +0.022 C 
ATOM     19  C   UNL     1      33.671  -4.950 -28.080  0.00  0.00    +0.031 C 
ATOM     20  C   UNL     1      31.359  -5.809 -28.585  0.00  0.00    +0.002 C 
ATOM     21  C   UNL     1      32.371  -4.694 -28.831  0.00  0.00    +0.003 C 
BRANCH  17  22
ATOM     22  O   UNL     1      34.675  -5.539 -25.979  0.00  0.00    -0.383 OA
ATOM     23  H   UNL     1      35.370  -5.569 -26.655  0.00  0.00    +0.210 HD
ENDBRANCH  17  22
ENDBRANCH   2  16
BRANCH  10  24
ATOM     24  C   UNL     1      30.303 -10.034 -20.309  0.00  0.00    +0.054 C 
BRANCH  24  26
ATOM     25  N   UNL     1      32.596 -12.286 -22.323  0.00  0.00    -0.248 NA
ATOM     26  C   UNL     1      31.142 -11.229 -20.707  0.00  0.00    +0.001 C 
ATOM     27  C   UNL     1      31.243 -12.340 -19.876  0.00  0.00    -0.001 C 
ATOM     28  C   UNL     1      31.831 -11.251 -21.908  0.00  0.00    +0.094 C 
ATOM     29  C   UNL     1      32.022 -13.424 -20.268  0.00  0.00    +0.014 C 
ATOM     30  C   UNL     1      32.672 -13.348 -21.489  0.00  0.00    +0.059 C 
ATOM     31  C   UNL     1      33.516 -14.494 -21.942  0.00  0.00    +0.052 C 
ENDBRANCH  24  26
ENDBRANCH  10  24
TORSDOF 4
ENDMDL
MODEL 9
REMARK VINA RESULT:      -7.8      2.534      7.941
REMARK  Name = 46207733
REMARK  4 active torsions:
REMARK  status: ('A' for Active; 'I' for Inactive)
REMARK    1  A    between atoms: N_2  and  C_16
REMARK    2  A    between atoms: C_10  and  C_24
REMARK    3  A    between atoms: C_17  and  O_22
REMARK    4  A    between atoms: C_24  and  C_26
REMARK                            x       y       z     vdW  Elec       q    Type
REMARK                         _______ _______ _______ _____ _____    ______ ____
ROOT
ATOM      1  O   UNL     1      33.278  -8.737 -25.084  0.00  0.00    -0.274 OA
ATOM      2  N   UNL     1      31.798  -7.735 -23.592  0.00  0.00    -0.257 N 
ATOM      3  N   UNL     1      30.970  -8.936 -21.719  0.00  0.00    -0.252 NA
ATOM      4  C   UNL     1      32.580  -8.786 -24.075  0.00  0.00    +0.236 C 
ATOM      5  C   UNL     1      31.040  -7.871 -22.446  0.00  0.00    +0.222 C 
ATOM      6  C   UNL     1      32.525 -10.026 -23.267  0.00  0.00    +0.138 C 
ATOM      7  C   UNL     1      31.721 -10.061 -22.116  0.00  0.00    +0.068 C 
ATOM      8  C   UNL     1      31.666 -11.249 -21.340  0.00  0.00    +0.014 C 
ATOM      9  C   UNL     1      33.267 -11.141 -23.658  0.00  0.00    -0.015 C 
ATOM     10  C   UNL     1      33.215 -12.306 -22.899  0.00  0.00    -0.021 C 
ATOM     11  C   UNL     1      32.424 -12.377 -21.744  0.00  0.00    -0.003 C 
ATOM     12  C   UNL     1      30.883 -11.364 -20.170  0.00  0.00    +0.001 C 
ATOM     13  C   UNL     1      32.379 -13.559 -20.986  0.00  0.00    -0.000 C 
ATOM     14  C   UNL     1      30.849 -12.546 -19.428  0.00  0.00    +0.000 C 
ATOM     15  C   UNL     1      31.596 -13.643 -19.837  0.00  0.00    -0.000 C 
ENDROOT
BRANCH   2  16
ATOM     16  C   UNL     1      31.779  -6.479 -24.308  0.00  0.00    +0.104 C 
ATOM     17  C   UNL     1      32.692  -5.454 -23.622  0.00  0.00    +0.129 C 
ATOM     18  C   UNL     1      30.342  -5.964 -24.427  0.00  0.00    +0.022 C 
ATOM     19  C   UNL     1      32.605  -4.081 -24.290  0.00  0.00    +0.031 C 
ATOM     20  C   UNL     1      30.279  -4.598 -25.102  0.00  0.00    +0.002 C 
ATOM     21  C   UNL     1      31.169  -3.584 -24.391  0.00  0.00    +0.003 C 
BRANCH  17  22
ATOM     22  O   UNL     1      34.041  -5.913 -23.698  0.00  0.00    -0.383 OA
ATOM     23  H   UNL     1      34.471  -5.797 -22.836  0.00  0.00    +0.210 HD
ENDBRANCH  17  22
ENDBRANCH   2  16
BRANCH  10  24
ATOM     24  C   UNL     1      34.037 -13.465 -23.375  0.00  0.00    +0.054 C 
BRANCH  24  26
ATOM     25  N   UNL     1      31.510 -15.387 -25.451  0.00  0.00    -0.248 NA
ATOM     26  C   UNL     1      33.213 -14.611 -23.920  0.00  0.00    +0.001 C 
ATOM     27  C   UNL     1      33.373 -15.903 -23.429  0.00  0.00    -0.001 C 
ATOM     28  C   UNL     1      32.278 -14.408 -24.921  0.00  0.00    +0.094 C 
ATOM     29  C   UNL     1      32.601 -16.937 -23.949  0.00  0.00    +0.014 C 
ATOM     30  C   UNL     1      31.693 -16.630 -24.950  0.00  0.00    +0.059 C 
ATOM     31  C   UNL     1      30.848 -17.715 -25.531  0.00  0.00    +0.052 C 
ENDBRANCH  24  26
ENDBRANCH  10  24
TORSDOF 4
ENDMDL
