MODEL 1
REMARK VINA RESULT:     -11.7      0.000      0.000
REMARK  Name = 24883488
REMARK  8 active torsions:
REMARK  status: ('A' for Active; 'I' for Inactive)
REMARK    1  A    between atoms: N_2  and  C_11
REMARK    2  A    between atoms: C_3  and  C_19
REMARK    3  A    between atoms: C_19  and  C_20
REMARK    4  A    between atoms: C_20  and  C_23
REMARK    5  A    between atoms: N_22  and  C_25
REMARK    6  A    between atoms: C_27  and  O_31
REMARK    7  A    between atoms: O_31  and  C_32
REMARK    8  A    between atoms: C_32  and  C_34
REMARK                            x       y       z     vdW  Elec       q    Type
REMARK                         _______ _______ _______ _____ _____    ______ ____
ROOT
ATOM      1  O   UNL     1      34.881 -24.543 -15.014  0.00  0.00    -0.275 OA
ATOM      2  N   UNL     1      33.709 -22.934 -13.757  0.00  0.00    -0.284 N 
ATOM      3  C   UNL     1      34.840 -23.520 -14.337  0.00  0.00    +0.227 C 
ATOM      4  H   UNL     1      33.872 -22.123 -13.223  0.00  0.00    +0.155 HD
ENDROOT
BRANCH   2  11
ATOM      5  O   UNL     1      29.630 -21.649 -16.552  0.00  0.00    -0.282 OA
ATOM      6  O   UNL     1      27.910 -25.551 -13.344  0.00  0.00    -0.270 OA
ATOM      7  O   UNL     1      27.109 -22.463 -16.689  0.00  0.00    -0.266 OA
ATOM      8  N   UNL     1      27.504 -24.015 -15.008  0.00  0.00    -0.246 N 
ATOM      9  C   UNL     1      30.185 -23.176 -14.834  0.00  0.00    +0.049 C 
ATOM     10  C   UNL     1      29.719 -24.195 -14.004  0.00  0.00    +0.057 C 
ATOM     11  C   UNL     1      32.380 -23.352 -13.839  0.00  0.00    +0.050 C 
ATOM     12  C   UNL     1      31.516 -22.751 -14.754  0.00  0.00    +0.018 C 
ATOM     13  C   UNL     1      30.591 -24.793 -13.087  0.00  0.00    +0.006 C 
ATOM     14  C   UNL     1      31.919 -24.371 -13.007  0.00  0.00    +0.015 C 
ATOM     15  C   UNL     1      29.277 -22.543 -15.800  0.00  0.00    +0.249 C 
ATOM     16  C   UNL     1      28.316 -24.653 -14.076  0.00  0.00    +0.252 C 
ATOM     17  C   UNL     1      27.852 -23.000 -15.880  0.00  0.00    +0.291 C 
ATOM     18  H   UNL     1      26.570 -24.324 -15.053  0.00  0.00    +0.158 HD
ENDBRANCH   2  11
BRANCH   3  19
ATOM     19  C   UNL     1      36.116 -22.761 -14.011  0.00  0.00    +0.095 C 
BRANCH  19  20
ATOM     20  C   UNL     1      36.940 -22.498 -15.269  0.00  0.00    +0.095 C 
BRANCH  20  23
ATOM     21  O   UNL     1      36.564 -20.284 -16.088  0.00  0.00    -0.275 OA
ATOM     22  N   UNL     1      35.366 -22.067 -17.041  0.00  0.00    -0.284 N 
ATOM     23  C   UNL     1      36.268 -21.472 -16.167  0.00  0.00    +0.227 C 
ATOM     24  H   UNL     1      35.277 -23.045 -16.973  0.00  0.00    +0.155 HD
BRANCH  22  25
ATOM     25  C   UNL     1      34.561 -21.434 -18.016  0.00  0.00    +0.053 C 
ATOM     26  C   UNL     1      35.151 -20.637 -18.997  0.00  0.00    +0.052 C 
ATOM     27  C   UNL     1      34.357 -20.013 -19.959  0.00  0.00    +0.140 C 
ATOM     28  C   UNL     1      33.178 -21.607 -17.996  0.00  0.00    +0.015 C 
ATOM     29  C   UNL     1      32.972 -20.186 -19.939  0.00  0.00    +0.037 C 
ATOM     30  C   UNL     1      32.383 -20.983 -18.958  0.00  0.00    +0.004 C 
BRANCH  27  31
ATOM     31  O   UNL     1      34.931 -19.235 -20.917  0.00  0.00    -0.472 OA
BRANCH  31  32
ATOM     32  C   UNL     1      34.241 -18.041 -21.283  0.00  0.00    +0.243 C 
BRANCH  32  34
ATOM     33  F   UNL     1      34.173 -19.353 -23.215  0.00  0.00    -0.230 F 
ATOM     34  C   UNL     1      33.932 -18.091 -22.762  0.00  0.00    +0.240 C 
ENDBRANCH  32  34
ENDBRANCH  31  32
ENDBRANCH  27  31
ENDBRANCH  22  25
ENDBRANCH  20  23
ENDBRANCH  19  20
ENDBRANCH   3  19
TORSDOF 8
ENDMDL
MODEL 2
REMARK VINA RESULT:     -11.5      3.513      6.085
REMARK  Name = 24883488
REMARK  8 active torsions:
REMARK  status: ('A' for Active; 'I' for Inactive)
REMARK    1  A    between atoms: N_2  and  C_11
REMARK    2  A    between atoms: C_3  and  C_19
REMARK    3  A    between atoms: C_19  and  C_20
REMARK    4  A    between atoms: C_20  and  C_23
REMARK    5  A    between atoms: N_22  and  C_25
REMARK    6  A    between atoms: C_27  and  O_31
REMARK    7  A    between atoms: O_31  and  C_32
REMARK    8  A    between atoms: C_32  and  C_34
REMARK                            x       y       z     vdW  Elec       q    Type
REMARK                         _______ _______ _______ _____ _____    ______ ____
ROOT
ATOM      1  O   UNL     1      32.655 -23.769 -17.003  0.00  0.00    -0.275 OA
ATOM      2  N   UNL     1      34.067 -21.992 -16.377  0.00  0.00    -0.284 N 
ATOM      3  C   UNL     1      33.066 -22.620 -17.128  0.00  0.00    +0.227 C 
ATOM      4  H   UNL     1      34.284 -21.068 -16.638  0.00  0.00    +0.155 HD
ENDROOT
BRANCH   2  11
ATOM      5  O   UNL     1      32.956 -23.898 -11.769  0.00  0.00    -0.282 OA
ATOM      6  O   UNL     1      38.275 -24.163 -12.107  0.00  0.00    -0.270 OA
ATOM      7  O   UNL     1      34.366 -24.879  -9.747  0.00  0.00    -0.266 OA
ATOM      8  N   UNL     1      36.333 -24.521 -10.927  0.00  0.00    -0.246 N 
ATOM      9  C   UNL     1      34.870 -23.473 -13.090  0.00  0.00    +0.049 C 
ATOM     10  C   UNL     1      36.261 -23.550 -13.162  0.00  0.00    +0.057 C 
ATOM     11  C   UNL     1      34.796 -22.509 -15.306  0.00  0.00    +0.050 C 
ATOM     12  C   UNL     1      34.134 -22.952 -14.161  0.00  0.00    +0.018 C 
ATOM     13  C   UNL     1      36.920 -23.104 -14.314  0.00  0.00    +0.006 C 
ATOM     14  C   UNL     1      36.186 -22.585 -15.383  0.00  0.00    +0.015 C 
ATOM     15  C   UNL     1      34.170 -23.939 -11.886  0.00  0.00    +0.249 C 
ATOM     16  C   UNL     1      37.051 -24.097 -12.039  0.00  0.00    +0.252 C 
ATOM     17  C   UNL     1      34.963 -24.495 -10.742  0.00  0.00    +0.291 C 
ATOM     18  H   UNL     1      36.864 -24.884 -10.181  0.00  0.00    +0.158 HD
ENDBRANCH   2  11
BRANCH   3  19
ATOM     19  C   UNL     1      32.510 -21.717 -18.218  0.00  0.00    +0.095 C 
BRANCH  19  20
ATOM     20  C   UNL     1      33.623 -20.936 -18.912  0.00  0.00    +0.095 C 
BRANCH  20  23
ATOM     21  O   UNL     1      31.860 -19.964 -20.200  0.00  0.00    -0.275 OA
ATOM     22  N   UNL     1      34.081 -19.358 -20.673  0.00  0.00    -0.284 N 
ATOM     23  C   UNL     1      33.070 -20.041 -20.008  0.00  0.00    +0.227 C 
ATOM     24  H   UNL     1      34.999 -19.532 -20.363  0.00  0.00    +0.155 HD
BRANCH  22  25
ATOM     25  C   UNL     1      33.949 -18.443 -21.742  0.00  0.00    +0.053 C 
ATOM     26  C   UNL     1      34.301 -17.105 -21.564  0.00  0.00    +0.052 C 
ATOM     27  C   UNL     1      34.170 -16.202 -22.619  0.00  0.00    +0.140 C 
ATOM     28  C   UNL     1      33.464 -18.877 -22.976  0.00  0.00    +0.015 C 
ATOM     29  C   UNL     1      33.686 -16.638 -23.853  0.00  0.00    +0.037 C 
ATOM     30  C   UNL     1      33.333 -17.975 -24.032  0.00  0.00    +0.004 C 
BRANCH  27  31
ATOM     31  O   UNL     1      34.514 -14.897 -22.445  0.00  0.00    -0.472 OA
BRANCH  31  32
ATOM     32  C   UNL     1      33.534 -14.039 -21.863  0.00  0.00    +0.243 C 
BRANCH  32  34
ATOM     33  F   UNL     1      32.297 -13.589 -23.793  0.00  0.00    -0.230 F 
ATOM     34  C   UNL     1      33.125 -13.002 -22.884  0.00  0.00    +0.240 C 
ENDBRANCH  32  34
ENDBRANCH  31  32
ENDBRANCH  27  31
ENDBRANCH  22  25
ENDBRANCH  20  23
ENDBRANCH  19  20
ENDBRANCH   3  19
TORSDOF 8
ENDMDL
MODEL 3
REMARK VINA RESULT:     -11.3      4.229      9.913
REMARK  Name = 24883488
REMARK  8 active torsions:
REMARK  status: ('A' for Active; 'I' for Inactive)
REMARK    1  A    between atoms: N_2  and  C_11
REMARK    2  A    between atoms: C_3  and  C_19
REMARK    3  A    between atoms: C_19  and  C_20
REMARK    4  A    between atoms: C_20  and  C_23
REMARK    5  A    between atoms: N_22  and  C_25
REMARK    6  A    between atoms: C_27  and  O_31
REMARK    7  A    between atoms: O_31  and  C_32
REMARK    8  A    between atoms: C_32  and  C_34
REMARK                            x       y       z     vdW  Elec       q    Type
REMARK                         _______ _______ _______ _____ _____    ______ ____
ROOT
ATOM      1  O   UNL     1      32.738 -19.790 -20.205  0.00  0.00    -0.275 OA
ATOM      2  N   UNL     1      34.712 -18.715 -20.906  0.00  0.00    -0.284 N 
ATOM      3  C   UNL     1      33.958 -19.656 -20.195  0.00  0.00    +0.227 C 
ATOM      4  H   UNL     1      35.684 -18.740 -20.754  0.00  0.00    +0.155 HD
ENDROOT
BRANCH   2  11
ATOM      5  O   UNL     1      33.718 -13.708 -20.687  0.00  0.00    -0.282 OA
ATOM      6  O   UNL     1      32.636 -15.094 -25.726  0.00  0.00    -0.270 OA
ATOM      7  O   UNL     1      32.862 -11.882 -22.410  0.00  0.00    -0.266 OA
ATOM      8  N   UNL     1      32.744 -13.491 -24.080  0.00  0.00    -0.246 N 
ATOM      9  C   UNL     1      33.650 -15.455 -22.279  0.00  0.00    +0.049 C 
ATOM     10  C   UNL     1      33.363 -15.800 -23.600  0.00  0.00    +0.057 C 
ATOM     11  C   UNL     1      34.262 -17.744 -21.801  0.00  0.00    +0.050 C 
ATOM     12  C   UNL     1      34.099 -16.426 -21.377  0.00  0.00    +0.018 C 
ATOM     13  C   UNL     1      33.527 -17.125 -24.020  0.00  0.00    +0.006 C 
ATOM     14  C   UNL     1      33.977 -18.094 -23.120  0.00  0.00    +0.015 C 
ATOM     15  C   UNL     1      33.480 -14.067 -21.829  0.00  0.00    +0.249 C 
ATOM     16  C   UNL     1      32.887 -14.786 -24.564  0.00  0.00    +0.252 C 
ATOM     17  C   UNL     1      32.997 -13.032 -22.800  0.00  0.00    +0.291 C 
ATOM     18  H   UNL     1      32.427 -12.819 -24.726  0.00  0.00    +0.158 HD
ENDBRANCH   2  11
BRANCH   3  19
ATOM     19  C   UNL     1      34.823 -20.544 -19.315  0.00  0.00    +0.095 C 
BRANCH  19  20
ATOM     20  C   UNL     1      34.144 -21.884 -19.043  0.00  0.00    +0.095 C 
BRANCH  20  23
ATOM     21  O   UNL     1      34.903 -21.941 -16.777  0.00  0.00    -0.275 OA
ATOM     22  N   UNL     1      32.672 -22.515 -17.244  0.00  0.00    -0.284 N 
ATOM     23  C   UNL     1      33.969 -22.123 -17.553  0.00  0.00    +0.227 C 
ATOM     24  H   UNL     1      32.049 -22.588 -18.002  0.00  0.00    +0.155 HD
BRANCH  22  25
ATOM     25  C   UNL     1      32.142 -22.823 -15.970  0.00  0.00    +0.053 C 
ATOM     26  C   UNL     1      30.781 -22.648 -15.720  0.00  0.00    +0.052 C 
ATOM     27  C   UNL     1      30.258 -22.952 -14.463  0.00  0.00    +0.140 C 
ATOM     28  C   UNL     1      32.980 -23.301 -14.963  0.00  0.00    +0.015 C 
ATOM     29  C   UNL     1      31.097 -23.430 -13.456  0.00  0.00    +0.037 C 
ATOM     30  C   UNL     1      32.458 -23.605 -13.706  0.00  0.00    +0.004 C 
BRANCH  27  31
ATOM     31  O   UNL     1      28.930 -22.781 -14.218  0.00  0.00    -0.472 OA
BRANCH  31  32
ATOM     32  C   UNL     1      28.019 -23.354 -15.155  0.00  0.00    +0.243 C 
BRANCH  32  34
ATOM     33  F   UNL     1      26.261 -21.925 -14.585  0.00  0.00    -0.230 F 
ATOM     34  C   UNL     1      27.064 -22.281 -15.626  0.00  0.00    +0.240 C 
ENDBRANCH  32  34
ENDBRANCH  31  32
ENDBRANCH  27  31
ENDBRANCH  22  25
ENDBRANCH  20  23
ENDBRANCH  19  20
ENDBRANCH   3  19
TORSDOF 8
ENDMDL
MODEL 4
REMARK VINA RESULT:     -11.3      2.662      4.181
REMARK  Name = 24883488
REMARK  8 active torsions:
REMARK  status: ('A' for Active; 'I' for Inactive)
REMARK    1  A    between atoms: N_2  and  C_11
REMARK    2  A    between atoms: C_3  and  C_19
REMARK    3  A    between atoms: C_19  and  C_20
REMARK    4  A    between atoms: C_20  and  C_23
REMARK    5  A    between atoms: N_22  and  C_25
REMARK    6  A    between atoms: C_27  and  O_31
REMARK    7  A    between atoms: O_31  and  C_32
REMARK    8  A    between atoms: C_32  and  C_34
REMARK                            x       y       z     vdW  Elec       q    Type
REMARK                         _______ _______ _______ _____ _____    ______ ____
ROOT
ATOM      1  O   UNL     1      35.842 -21.597 -16.179  0.00  0.00    -0.275 OA
ATOM      2  N   UNL     1      33.821 -22.049 -17.298  0.00  0.00    -0.284 N 
ATOM      3  C   UNL     1      35.148 -21.617 -17.191  0.00  0.00    +0.227 C 
ATOM      4  H   UNL     1      33.413 -21.968 -18.190  0.00  0.00    +0.155 HD
ENDROOT
BRANCH   2  11
ATOM      5  O   UNL     1      28.791 -22.305 -16.442  0.00  0.00    -0.282 OA
ATOM      6  O   UNL     1      31.010 -24.796 -12.277  0.00  0.00    -0.270 OA
ATOM      7  O   UNL     1      27.255 -23.325 -14.535  0.00  0.00    -0.266 OA
ATOM      8  N   UNL     1      29.137 -24.065 -13.395  0.00  0.00    -0.246 N 
ATOM      9  C   UNL     1      30.798 -22.995 -15.399  0.00  0.00    +0.049 C 
ATOM     10  C   UNL     1      31.361 -23.649 -14.304  0.00  0.00    +0.057 C 
ATOM     11  C   UNL     1      33.001 -22.580 -16.301  0.00  0.00    +0.050 C 
ATOM     12  C   UNL     1      31.615 -22.458 -16.400  0.00  0.00    +0.018 C 
ATOM     13  C   UNL     1      32.753 -23.768 -14.210  0.00  0.00    +0.006 C 
ATOM     14  C   UNL     1      33.569 -23.234 -15.209  0.00  0.00    +0.015 C 
ATOM     15  C   UNL     1      29.339 -22.865 -15.506  0.00  0.00    +0.249 C 
ATOM     16  C   UNL     1      30.510 -24.220 -13.239  0.00  0.00    +0.252 C 
ATOM     17  C   UNL     1      28.467 -23.440 -14.430  0.00  0.00    +0.291 C 
ATOM     18  H   UNL     1      28.575 -24.447 -12.683  0.00  0.00    +0.158 HD
ENDBRANCH   2  11
BRANCH   3  19
ATOM     19  C   UNL     1      35.695 -21.100 -18.511  0.00  0.00    +0.095 C 
BRANCH  19  20
ATOM     20  C   UNL     1      34.570 -20.640 -19.435  0.00  0.00    +0.095 C 
BRANCH  20  23
ATOM     21  O   UNL     1      35.963 -18.744 -19.857  0.00  0.00    -0.275 OA
ATOM     22  N   UNL     1      33.964 -18.978 -21.070  0.00  0.00    -0.284 N 
ATOM     23  C   UNL     1      34.923 -19.335 -20.130  0.00  0.00    +0.227 C 
ATOM     24  H   UNL     1      33.201 -19.593 -21.167  0.00  0.00    +0.155 HD
BRANCH  22  25
ATOM     25  C   UNL     1      33.954 -17.837 -21.904  0.00  0.00    +0.053 C 
ATOM     26  C   UNL     1      34.028 -16.562 -21.343  0.00  0.00    +0.052 C 
ATOM     27  C   UNL     1      34.017 -15.435 -22.166  0.00  0.00    +0.140 C 
ATOM     28  C   UNL     1      33.868 -17.985 -23.288  0.00  0.00    +0.015 C 
ATOM     29  C   UNL     1      33.932 -15.585 -23.551  0.00  0.00    +0.037 C 
ATOM     30  C   UNL     1      33.858 -16.860 -24.112  0.00  0.00    +0.004 C 
BRANCH  27  31
ATOM     31  O   UNL     1      34.090 -14.191 -21.619  0.00  0.00    -0.472 OA
BRANCH  31  32
ATOM     32  C   UNL     1      33.456 -14.000 -20.355  0.00  0.00    +0.243 C 
BRANCH  32  34
ATOM     33  F   UNL     1      31.245 -13.762 -19.641  0.00  0.00    -0.230 F 
ATOM     34  C   UNL     1      32.127 -13.312 -20.576  0.00  0.00    +0.240 C 
ENDBRANCH  32  34
ENDBRANCH  31  32
ENDBRANCH  27  31
ENDBRANCH  22  25
ENDBRANCH  20  23
ENDBRANCH  19  20
ENDBRANCH   3  19
TORSDOF 8
ENDMDL
MODEL 5
REMARK VINA RESULT:     -11.2      6.460     10.287
REMARK  Name = 24883488
REMARK  8 active torsions:
REMARK  status: ('A' for Active; 'I' for Inactive)
REMARK    1  A    between atoms: N_2  and  C_11
REMARK    2  A    between atoms: C_3  and  C_19
REMARK    3  A    between atoms: C_19  and  C_20
REMARK    4  A    between atoms: C_20  and  C_23
REMARK    5  A    between atoms: N_22  and  C_25
REMARK    6  A    between atoms: C_27  and  O_31
REMARK    7  A    between atoms: O_31  and  C_32
REMARK    8  A    between atoms: C_32  and  C_34
REMARK                            x       y       z     vdW  Elec       q    Type
REMARK                         _______ _______ _______ _____ _____    ______ ____
ROOT
ATOM      1  O   UNL     1      33.269 -17.953 -23.934  0.00  0.00    -0.275 OA
ATOM      2  N   UNL     1      34.592 -17.013 -22.228  0.00  0.00    -0.284 N 
ATOM      3  C   UNL     1      33.896 -17.019 -23.443  0.00  0.00    +0.227 C 
ATOM      4  H   UNL     1      35.060 -16.176 -22.005  0.00  0.00    +0.155 HD
ENDROOT
BRANCH   2  11
ATOM      5  O   UNL     1      31.371 -20.226 -19.903  0.00  0.00    -0.282 OA
ATOM      6  O   UNL     1      36.186 -21.495 -17.983  0.00  0.00    -0.270 OA
ATOM      7  O   UNL     1      31.617 -22.179 -18.125  0.00  0.00    -0.266 OA
ATOM      8  N   UNL     1      33.912 -21.840 -18.047  0.00  0.00    -0.246 N 
ATOM      9  C   UNL     1      33.689 -19.762 -19.932  0.00  0.00    +0.049 C 
ATOM     10  C   UNL     1      34.940 -20.107 -19.420  0.00  0.00    +0.057 C 
ATOM     11  C   UNL     1      34.707 -18.042 -21.292  0.00  0.00    +0.050 C 
ATOM     12  C   UNL     1      33.569 -18.729 -20.868  0.00  0.00    +0.018 C 
ATOM     13  C   UNL     1      36.078 -19.413 -19.849  0.00  0.00    +0.006 C 
ATOM     14  C   UNL     1      35.959 -18.383 -20.784  0.00  0.00    +0.015 C 
ATOM     15  C   UNL     1      32.490 -20.484 -19.488  0.00  0.00    +0.249 C 
ATOM     16  C   UNL     1      35.083 -21.194 -18.430  0.00  0.00    +0.252 C 
ATOM     17  C   UNL     1      32.625 -21.588 -18.484  0.00  0.00    +0.291 C 
ATOM     18  H   UNL     1      34.013 -22.564 -17.388  0.00  0.00    +0.158 HD
ENDBRANCH   2  11
BRANCH   3  19
ATOM     19  C   UNL     1      34.013 -15.696 -24.182  0.00  0.00    +0.095 C 
BRANCH  19  20
ATOM     20  C   UNL     1      32.813 -14.795 -23.899  0.00  0.00    +0.095 C 
BRANCH  20  23
ATOM     21  O   UNL     1      33.814 -13.466 -22.183  0.00  0.00    -0.275 OA
ATOM     22  N   UNL     1      32.942 -12.397 -24.085  0.00  0.00    -0.284 N 
ATOM     23  C   UNL     1      33.245 -13.481 -23.270  0.00  0.00    +0.227 C 
ATOM     24  H   UNL     1      32.500 -12.607 -24.940  0.00  0.00    +0.155 HD
BRANCH  22  25
ATOM     25  C   UNL     1      33.192 -11.029 -23.833  0.00  0.00    +0.053 C 
ATOM     26  C   UNL     1      32.377 -10.322 -22.949  0.00  0.00    +0.052 C 
ATOM     27  C   UNL     1      32.623  -8.971 -22.700  0.00  0.00    +0.140 C 
ATOM     28  C   UNL     1      34.253 -10.385 -24.468  0.00  0.00    +0.015 C 
ATOM     29  C   UNL     1      33.686  -8.328 -23.336  0.00  0.00    +0.037 C 
ATOM     30  C   UNL     1      34.501  -9.035 -24.220  0.00  0.00    +0.004 C 
BRANCH  27  31
ATOM     31  O   UNL     1      31.828  -8.281 -21.838  0.00  0.00    -0.472 OA
BRANCH  31  32
ATOM     32  C   UNL     1      32.391  -7.124 -21.222  0.00  0.00    +0.243 C 
BRANCH  32  34
ATOM     33  F   UNL     1      31.702  -8.465 -19.437  0.00  0.00    -0.230 F 
ATOM     34  C   UNL     1      32.223  -7.239 -19.724  0.00  0.00    +0.240 C 
ENDBRANCH  32  34
ENDBRANCH  31  32
ENDBRANCH  27  31
ENDBRANCH  22  25
ENDBRANCH  20  23
ENDBRANCH  19  20
ENDBRANCH   3  19
TORSDOF 8
ENDMDL
MODEL 6
REMARK VINA RESULT:     -11.0      6.025      9.634
REMARK  Name = 24883488
REMARK  8 active torsions:
REMARK  status: ('A' for Active; 'I' for Inactive)
REMARK    1  A    between atoms: N_2  and  C_11
REMARK    2  A    between atoms: C_3  and  C_19
REMARK    3  A    between atoms: C_19  and  C_20
REMARK    4  A    between atoms: C_20  and  C_23
REMARK    5  A    between atoms: N_22  and  C_25
REMARK    6  A    between atoms: C_27  and  O_31
REMARK    7  A    between atoms: O_31  and  C_32
REMARK    8  A    between atoms: C_32  and  C_34
REMARK                            x       y       z     vdW  Elec       q    Type
REMARK                         _______ _______ _______ _____ _____    ______ ____
ROOT
ATOM      1  O   UNL     1      32.991 -17.998 -23.709  0.00  0.00    -0.275 OA
ATOM      2  N   UNL     1      34.782 -17.288 -22.356  0.00  0.00    -0.284 N 
ATOM      3  C   UNL     1      33.885 -17.207 -23.429  0.00  0.00    +0.227 C 
ATOM      4  H   UNL     1      35.454 -16.570 -22.302  0.00  0.00    +0.155 HD
ENDROOT
BRANCH   2  11
ATOM      5  O   UNL     1      31.420 -20.272 -19.928  0.00  0.00    -0.282 OA
ATOM      6  O   UNL     1      36.147 -21.524 -17.790  0.00  0.00    -0.270 OA
ATOM      7  O   UNL     1      31.569 -22.112 -18.023  0.00  0.00    -0.266 OA
ATOM      8  N   UNL     1      33.869 -21.820 -17.900  0.00  0.00    -0.246 N 
ATOM      9  C   UNL     1      33.749 -19.863 -19.918  0.00  0.00    +0.049 C 
ATOM     10  C   UNL     1      34.977 -20.202 -19.349  0.00  0.00    +0.057 C 
ATOM     11  C   UNL     1      34.846 -18.257 -21.354  0.00  0.00    +0.050 C 
ATOM     12  C   UNL     1      33.680 -18.889 -20.921  0.00  0.00    +0.018 C 
ATOM     13  C   UNL     1      36.143 -19.564 -19.787  0.00  0.00    +0.006 C 
ATOM     14  C   UNL     1      36.075 -18.593 -20.789  0.00  0.00    +0.015 C 
ATOM     15  C   UNL     1      32.521 -20.527 -19.465  0.00  0.00    +0.249 C 
ATOM     16  C   UNL     1      35.065 -21.227 -18.288  0.00  0.00    +0.252 C 
ATOM     17  C   UNL     1      32.600 -21.568 -18.389  0.00  0.00    +0.291 C 
ATOM     18  H   UNL     1      33.933 -22.502 -17.193  0.00  0.00    +0.158 HD
ENDBRANCH   2  11
BRANCH   3  19
ATOM     19  C   UNL     1      34.145 -15.994 -24.307  0.00  0.00    +0.095 C 
BRANCH  19  20
ATOM     20  C   UNL     1      33.007 -14.981 -24.204  0.00  0.00    +0.095 C 
BRANCH  20  23
ATOM     21  O   UNL     1      34.097 -14.217 -22.219  0.00  0.00    -0.275 OA
ATOM     22  N   UNL     1      31.905 -13.496 -22.660  0.00  0.00    -0.284 N 
ATOM     23  C   UNL     1      33.078 -14.200 -22.903  0.00  0.00    +0.227 C 
ATOM     24  H   UNL     1      31.196 -13.587 -23.339  0.00  0.00    +0.155 HD
BRANCH  22  25
ATOM     25  C   UNL     1      31.607 -12.664 -21.557  0.00  0.00    +0.053 C 
ATOM     26  C   UNL     1      31.489 -11.286 -21.734  0.00  0.00    +0.052 C 
ATOM     27  C   UNL     1      31.196 -10.465 -20.644  0.00  0.00    +0.140 C 
ATOM     28  C   UNL     1      31.431 -13.222 -20.291  0.00  0.00    +0.015 C 
ATOM     29  C   UNL     1      31.020 -11.024 -19.378  0.00  0.00    +0.037 C 
ATOM     30  C   UNL     1      31.138 -12.403 -19.201  0.00  0.00    +0.004 C 
BRANCH  27  31
ATOM     31  O   UNL     1      31.081  -9.120 -20.816  0.00  0.00    -0.472 OA
BRANCH  31  32
ATOM     32  C   UNL     1      31.282  -8.300 -19.666  0.00  0.00    +0.243 C 
BRANCH  32  34
ATOM     33  F   UNL     1      32.028  -6.156 -19.113  0.00  0.00    -0.230 F 
ATOM     34  C   UNL     1      32.173  -7.139 -20.046  0.00  0.00    +0.240 C 
ENDBRANCH  32  34
ENDBRANCH  31  32
ENDBRANCH  27  31
ENDBRANCH  22  25
ENDBRANCH  20  23
ENDBRANCH  19  20
ENDBRANCH   3  19
TORSDOF 8
ENDMDL
MODEL 7
REMARK VINA RESULT:     -10.9      4.287      9.927
REMARK  Name = 24883488
REMARK  8 active torsions:
REMARK  status: ('A' for Active; 'I' for Inactive)
REMARK    1  A    between atoms: N_2  and  C_11
REMARK    2  A    between atoms: C_3  and  C_19
REMARK    3  A    between atoms: C_19  and  C_20
REMARK    4  A    between atoms: C_20  and  C_23
REMARK    5  A    between atoms: N_22  and  C_25
REMARK    6  A    between atoms: C_27  and  O_31
REMARK    7  A    between atoms: O_31  and  C_32
REMARK    8  A    between atoms: C_32  and  C_34
REMARK                            x       y       z     vdW  Elec       q    Type
REMARK                         _______ _______ _______ _____ _____    ______ ____
ROOT
ATOM      1  O   UNL     1      36.469 -18.611 -19.926  0.00  0.00    -0.275 OA
ATOM      2  N   UNL     1      34.330 -19.147 -20.751  0.00  0.00    -0.284 N 
ATOM      3  C   UNL     1      35.473 -19.326 -19.961  0.00  0.00    +0.227 C 
ATOM      4  H   UNL     1      33.636 -19.840 -20.665  0.00  0.00    +0.155 HD
ENDROOT
BRANCH   2  11
ATOM      5  O   UNL     1      33.819 -14.073 -20.439  0.00  0.00    -0.282 OA
ATOM      6  O   UNL     1      33.014 -15.211 -25.591  0.00  0.00    -0.270 OA
ATOM      7  O   UNL     1      33.288 -12.126 -22.160  0.00  0.00    -0.266 OA
ATOM      8  N   UNL     1      33.147 -13.670 -23.888  0.00  0.00    -0.246 N 
ATOM      9  C   UNL     1      33.707 -15.762 -22.091  0.00  0.00    +0.049 C 
ATOM     10  C   UNL     1      33.495 -16.042 -23.441  0.00  0.00    +0.057 C 
ATOM     11  C   UNL     1      34.051 -18.113 -21.645  0.00  0.00    +0.050 C 
ATOM     12  C   UNL     1      33.985 -16.796 -21.190  0.00  0.00    +0.018 C 
ATOM     13  C   UNL     1      33.562 -17.365 -23.892  0.00  0.00    +0.006 C 
ATOM     14  C   UNL     1      33.840 -18.397 -22.994  0.00  0.00    +0.015 C 
ATOM     15  C   UNL     1      33.640 -14.377 -21.608  0.00  0.00    +0.249 C 
ATOM     16  C   UNL     1      33.200 -14.960 -24.403  0.00  0.00    +0.252 C 
ATOM     17  C   UNL     1      33.340 -13.273 -22.578  0.00  0.00    +0.291 C 
ATOM     18  H   UNL     1      32.950 -12.953 -24.533  0.00  0.00    +0.158 HD
ENDBRANCH   2  11
BRANCH   3  19
ATOM     19  C   UNL     1      35.397 -20.585 -19.114  0.00  0.00    +0.095 C 
BRANCH  19  20
ATOM     20  C   UNL     1      33.980 -21.152 -19.088  0.00  0.00    +0.095 C 
BRANCH  20  23
ATOM     21  O   UNL     1      33.017 -23.065 -18.027  0.00  0.00    -0.275 OA
ATOM     22  N   UNL     1      34.604 -21.793 -16.851  0.00  0.00    -0.284 N 
ATOM     23  C   UNL     1      33.792 -22.118 -17.930  0.00  0.00    +0.227 C 
ATOM     24  H   UNL     1      35.182 -21.003 -16.966  0.00  0.00    +0.155 HD
BRANCH  22  25
ATOM     25  C   UNL     1      34.700 -22.459 -15.609  0.00  0.00    +0.053 C 
ATOM     26  C   UNL     1      35.950 -22.687 -15.033  0.00  0.00    +0.052 C 
ATOM     27  C   UNL     1      36.045 -23.345 -13.807  0.00  0.00    +0.140 C 
ATOM     28  C   UNL     1      33.545 -22.891 -14.958  0.00  0.00    +0.015 C 
ATOM     29  C   UNL     1      34.889 -23.776 -13.156  0.00  0.00    +0.037 C 
ATOM     30  C   UNL     1      33.638 -23.549 -13.732  0.00  0.00    +0.004 C 
BRANCH  27  31
ATOM     31  O   UNL     1      37.265 -23.567 -13.245  0.00  0.00    -0.472 OA
BRANCH  31  32
ATOM     32  C   UNL     1      37.566 -24.906 -12.856  0.00  0.00    +0.243 C 
BRANCH  32  34
ATOM     33  F   UNL     1      39.760 -25.612 -13.234  0.00  0.00    -0.230 F 
ATOM     34  C   UNL     1      38.549 -25.492 -13.845  0.00  0.00    +0.240 C 
ENDBRANCH  32  34
ENDBRANCH  31  32
ENDBRANCH  27  31
ENDBRANCH  22  25
ENDBRANCH  20  23
ENDBRANCH  19  20
ENDBRANCH   3  19
TORSDOF 8
ENDMDL
MODEL 8
REMARK VINA RESULT:     -10.9      4.251      9.970
REMARK  Name = 24883488
REMARK  8 active torsions:
REMARK  status: ('A' for Active; 'I' for Inactive)
REMARK    1  A    between atoms: N_2  and  C_11
REMARK    2  A    between atoms: C_3  and  C_19
REMARK    3  A    between atoms: C_19  and  C_20
REMARK    4  A    between atoms: C_20  and  C_23
REMARK    5  A    between atoms: N_22  and  C_25
REMARK    6  A    between atoms: C_27  and  O_31
REMARK    7  A    between atoms: O_31  and  C_32
REMARK    8  A    between atoms: C_32  and  C_34
REMARK                            x       y       z     vdW  Elec       q    Type
REMARK                         _______ _______ _______ _____ _____    ______ ____
ROOT
ATOM      1  O   UNL     1      32.989 -19.677 -20.326  0.00  0.00    -0.275 OA
ATOM      2  N   UNL     1      34.883 -18.481 -21.051  0.00  0.00    -0.284 N 
ATOM      3  C   UNL     1      34.198 -19.469 -20.332  0.00  0.00    +0.227 C 
ATOM      4  H   UNL     1      35.857 -18.446 -20.912  0.00  0.00    +0.155 HD
ENDROOT
BRANCH   2  11
ATOM      5  O   UNL     1      33.747 -13.504 -20.860  0.00  0.00    -0.282 OA
ATOM      6  O   UNL     1      32.471 -15.005 -25.820  0.00  0.00    -0.270 OA
ATOM      7  O   UNL     1      32.755 -11.733 -22.568  0.00  0.00    -0.266 OA
ATOM      8  N   UNL     1      32.608 -13.372 -24.206  0.00  0.00    -0.246 N 
ATOM      9  C   UNL     1      33.658 -15.278 -22.421  0.00  0.00    +0.049 C 
ATOM     10  C   UNL     1      33.319 -15.653 -23.721  0.00  0.00    +0.057 C 
ATOM     11  C   UNL     1      34.361 -17.540 -21.938  0.00  0.00    +0.050 C 
ATOM     12  C   UNL     1      34.178 -16.220 -21.526  0.00  0.00    +0.018 C 
ATOM     13  C   UNL     1      33.504 -16.980 -24.129  0.00  0.00    +0.006 C 
ATOM     14  C   UNL     1      34.025 -17.919 -23.237  0.00  0.00    +0.015 C 
ATOM     15  C   UNL     1      33.467 -13.889 -21.985  0.00  0.00    +0.249 C 
ATOM     16  C   UNL     1      32.767 -14.670 -24.676  0.00  0.00    +0.252 C 
ATOM     17  C   UNL     1      32.907 -12.885 -22.947  0.00  0.00    +0.291 C 
ATOM     18  H   UNL     1      32.240 -12.721 -24.846  0.00  0.00    +0.158 HD
ENDBRANCH   2  11
BRANCH   3  19
ATOM     19  C   UNL     1      35.128 -20.302 -19.465  0.00  0.00    +0.095 C 
BRANCH  19  20
ATOM     20  C   UNL     1      34.539 -21.683 -19.189  0.00  0.00    +0.095 C 
BRANCH  20  23
ATOM     21  O   UNL     1      35.149 -21.576 -16.880  0.00  0.00    -0.275 OA
ATOM     22  N   UNL     1      33.036 -22.426 -17.459  0.00  0.00    -0.284 N 
ATOM     23  C   UNL     1      34.296 -21.893 -17.703  0.00  0.00    +0.227 C 
ATOM     24  H   UNL     1      32.476 -22.596 -18.251  0.00  0.00    +0.155 HD
BRANCH  22  25
ATOM     25  C   UNL     1      32.463 -22.754 -16.209  0.00  0.00    +0.053 C 
ATOM     26  C   UNL     1      33.266 -23.249 -15.182  0.00  0.00    +0.052 C 
ATOM     27  C   UNL     1      32.700 -23.573 -13.948  0.00  0.00    +0.140 C 
ATOM     28  C   UNL     1      31.094 -22.582 -16.003  0.00  0.00    +0.015 C 
ATOM     29  C   UNL     1      31.330 -23.401 -13.743  0.00  0.00    +0.037 C 
ATOM     30  C   UNL     1      30.528 -22.905 -14.770  0.00  0.00    +0.004 C 
BRANCH  27  31
ATOM     31  O   UNL     1      33.483 -24.056 -12.946  0.00  0.00    -0.472 OA
BRANCH  31  32
ATOM     32  C   UNL     1      34.886 -23.820 -13.046  0.00  0.00    +0.243 C 
BRANCH  32  34
ATOM     33  F   UNL     1      35.315 -25.828 -14.160  0.00  0.00    -0.230 F 
ATOM     34  C   UNL     1      35.607 -25.149 -13.016  0.00  0.00    +0.240 C 
ENDBRANCH  32  34
ENDBRANCH  31  32
ENDBRANCH  27  31
ENDBRANCH  22  25
ENDBRANCH  20  23
ENDBRANCH  19  20
ENDBRANCH   3  19
TORSDOF 8
ENDMDL
MODEL 9
REMARK VINA RESULT:     -10.8      4.246     10.048
REMARK  Name = 24883488
REMARK  8 active torsions:
REMARK  status: ('A' for Active; 'I' for Inactive)
REMARK    1  A    between atoms: N_2  and  C_11
REMARK    2  A    between atoms: C_3  and  C_19
REMARK    3  A    between atoms: C_19  and  C_20
REMARK    4  A    between atoms: C_20  and  C_23
REMARK    5  A    between atoms: N_22  and  C_25
REMARK    6  A    between atoms: C_27  and  O_31
REMARK    7  A    between atoms: O_31  and  C_32
REMARK    8  A    between atoms: C_32  and  C_34
REMARK                            x       y       z     vdW  Elec       q    Type
REMARK                         _______ _______ _______ _____ _____    ______ ____
ROOT
ATOM      1  O   UNL     1      36.830 -18.324 -21.039  0.00  0.00    -0.275 OA
ATOM      2  N   UNL     1      34.477 -18.387 -20.975  0.00  0.00    -0.284 N 
ATOM      3  C   UNL     1      35.773 -18.761 -20.596  0.00  0.00    +0.227 C 
ATOM      4  H   UNL     1      33.743 -18.866 -20.526  0.00  0.00    +0.155 HD
ENDROOT
BRANCH   2  11
ATOM      5  O   UNL     1      33.764 -13.328 -20.930  0.00  0.00    -0.282 OA
ATOM      6  O   UNL     1      32.672 -14.815 -25.938  0.00  0.00    -0.270 OA
ATOM      7  O   UNL     1      33.036 -11.514 -22.723  0.00  0.00    -0.266 OA
ATOM      8  N   UNL     1      32.849 -13.167 -24.342  0.00  0.00    -0.246 N 
ATOM      9  C   UNL     1      33.619 -15.120 -22.467  0.00  0.00    +0.049 C 
ATOM     10  C   UNL     1      33.330 -15.491 -23.780  0.00  0.00    +0.057 C 
ATOM     11  C   UNL     1      34.094 -17.423 -21.907  0.00  0.00    +0.050 C 
ATOM     12  C   UNL     1      34.001 -16.084 -21.527  0.00  0.00    +0.018 C 
ATOM     13  C   UNL     1      33.425 -16.836 -24.155  0.00  0.00    +0.006 C 
ATOM     14  C   UNL     1      33.808 -17.798 -23.219  0.00  0.00    +0.015 C 
ATOM     15  C   UNL     1      33.522 -13.711 -22.064  0.00  0.00    +0.249 C 
ATOM     16  C   UNL     1      32.925 -14.484 -24.783  0.00  0.00    +0.252 C 
ATOM     17  C   UNL     1      33.111 -12.682 -23.074  0.00  0.00    +0.291 C 
ATOM     18  H   UNL     1      32.579 -12.501 -25.014  0.00  0.00    +0.158 HD
ENDBRANCH   2  11
BRANCH   3  19
ATOM     19  C   UNL     1      35.772 -19.857 -19.542  0.00  0.00    +0.095 C 
BRANCH  19  20
ATOM     20  C   UNL     1      34.408 -20.536 -19.450  0.00  0.00    +0.095 C 
BRANCH  20  23
ATOM     21  O   UNL     1      33.833 -22.692 -18.594  0.00  0.00    -0.275 OA
ATOM     22  N   UNL     1      35.121 -21.247 -17.261  0.00  0.00    -0.284 N 
ATOM     23  C   UNL     1      34.403 -21.624 -18.389  0.00  0.00    +0.227 C 
ATOM     24  H   UNL     1      35.531 -20.352 -17.287  0.00  0.00    +0.155 HD
BRANCH  22  25
ATOM     25  C   UNL     1      35.334 -21.995 -16.081  0.00  0.00    +0.053 C 
ATOM     26  C   UNL     1      34.246 -22.510 -15.375  0.00  0.00    +0.052 C 
ATOM     27  C   UNL     1      34.456 -23.247 -14.210  0.00  0.00    +0.140 C 
ATOM     28  C   UNL     1      36.632 -22.219 -15.622  0.00  0.00    +0.015 C 
ATOM     29  C   UNL     1      35.755 -23.471 -13.751  0.00  0.00    +0.037 C 
ATOM     30  C   UNL     1      36.843 -22.957 -14.457  0.00  0.00    +0.004 C 
BRANCH  27  31
ATOM     31  O   UNL     1      33.395 -23.749 -13.521  0.00  0.00    -0.472 OA
BRANCH  31  32
ATOM     32  C   UNL     1      32.121 -23.694 -14.161  0.00  0.00    +0.243 C 
BRANCH  32  34
ATOM     33  F   UNL     1      30.329 -22.201 -14.275  0.00  0.00    -0.230 F 
ATOM     34  C   UNL     1      31.239 -22.726 -13.407  0.00  0.00    +0.240 C 
ENDBRANCH  32  34
ENDBRANCH  31  32
ENDBRANCH  27  31
ENDBRANCH  22  25
ENDBRANCH  20  23
ENDBRANCH  19  20
ENDBRANCH   3  19
TORSDOF 8
ENDMDL
