MODEL 1
REMARK VINA RESULT:     -11.9      0.000      0.000
REMARK  Name = 6420159
REMARK  9 active torsions:
REMARK  status: ('A' for Active; 'I' for Inactive)
REMARK    1  A    between atoms: C_1  and  N_3
REMARK    2  A    between atoms: C_1  and  C_15
REMARK    3  A    between atoms: C_1  and  C_29
REMARK    4  A    between atoms: N_14  and  C_17
REMARK    5  A    between atoms: C_17  and  C_18
REMARK    6  A    between atoms: C_18  and  N_19
REMARK    7  A    between atoms: N_19  and  C_21
REMARK    8  A    between atoms: C_26  and  O_27
REMARK    9  A    between atoms: C_29  and  C_30
REMARK                            x       y       z     vdW  Elec       q    Type
REMARK                         _______ _______ _______ _____ _____    ______ ____
ROOT
ATOM      1  C   UNL     1      32.366 -23.013 -16.421  0.00  0.00    +0.151 C 
ENDROOT
BRANCH   1   3
ATOM      2  O   UNL     1      34.829 -22.619 -13.734  0.00  0.00    -0.414 OA
ATOM      3  N   UNL     1      33.216 -22.505 -15.364  0.00  0.00    -0.271 N 
ATOM      4  N   UNL     1      34.392 -24.541 -14.853  0.00  0.00    -0.356 NA
ATOM      5  C   UNL     1      34.135 -23.282 -14.682  0.00  0.00    +0.345 C 
ATOM      6  C   UNL     1      35.643 -23.593 -13.229  0.00  0.00    +0.175 C 
ATOM      7  C   UNL     1      35.372 -24.768 -13.917  0.00  0.00    +0.152 C 
ATOM      8  C   UNL     1      36.582 -23.469 -12.214  0.00  0.00    +0.040 C 
ATOM      9  C   UNL     1      36.084 -25.928 -13.582  0.00  0.00    +0.088 C 
ATOM     10  C   UNL     1      37.284 -24.635 -11.892  0.00  0.00    -0.001 C 
ATOM     11  C   UNL     1      37.042 -25.842 -12.561  0.00  0.00    -0.018 C 
ATOM     12  H   UNL     1      33.135 -21.556 -15.119  0.00  0.00    +0.153 HD
ENDBRANCH   1   3
BRANCH   1  15
ATOM     13  O   UNL     1      32.971 -23.552 -18.704  0.00  0.00    -0.273 OA
ATOM     14  N   UNL     1      33.784 -21.592 -17.769  0.00  0.00    -0.301 N 
ATOM     15  C   UNL     1      33.055 -22.771 -17.757  0.00  0.00    +0.240 C 
ATOM     16  H   UNL     1      33.792 -21.028 -16.962  0.00  0.00    +0.150 HD
BRANCH  14  17
ATOM     17  C   UNL     1      34.530 -21.163 -18.927  0.00  0.00    +0.111 C 
BRANCH  17  18
ATOM     18  C   UNL     1      33.722 -20.234 -19.821  0.00  0.00    +0.109 C 
BRANCH  18  19
ATOM     19  N   UNL     1      34.514 -19.090 -20.205  0.00  0.00    -0.331 N 
ATOM     20  H   UNL     1      35.263 -18.827 -19.623  0.00  0.00    +0.147 HD
BRANCH  19  21
ATOM     21  C   UNL     1      34.278 -18.340 -21.346  0.00  0.00    +0.045 C 
ATOM     22  C   UNL     1      33.801 -18.946 -22.523  0.00  0.00    +0.017 C 
ATOM     23  C   UNL     1      34.512 -16.953 -21.360  0.00  0.00    +0.017 C 
ATOM     24  C   UNL     1      33.566 -18.191 -23.673  0.00  0.00    +0.038 C 
ATOM     25  C   UNL     1      34.277 -16.198 -22.509  0.00  0.00    +0.038 C 
ATOM     26  C   UNL     1      33.804 -16.817 -23.665  0.00  0.00    +0.139 C 
BRANCH  26  27
ATOM     27  O   UNL     1      33.573 -16.080 -24.786  0.00  0.00    -0.471 OA
ATOM     28  C   UNL     1      32.705 -14.955 -24.657  0.00  0.00    +0.252 C 
ENDBRANCH  26  27
ENDBRANCH  19  21
ENDBRANCH  18  19
ENDBRANCH  17  18
ENDBRANCH  14  17
ENDBRANCH   1  15
BRANCH   1  29
ATOM     29  C   UNL     1      31.008 -22.311 -16.395  0.00  0.00    +0.029 C 
BRANCH  29  30
ATOM     30  C   UNL     1      30.111 -22.811 -15.265  0.00  0.00    +0.002 C 
ATOM     31  C   UNL     1      30.505 -24.236 -14.851  0.00  0.00    +0.000 C 
ATOM     32  C   UNL     1      28.634 -22.751 -15.676  0.00  0.00    +0.000 C 
ATOM     33  C   UNL     1      29.589 -24.779 -13.757  0.00  0.00    +0.000 C 
ATOM     34  C   UNL     1      27.721 -23.297 -14.582  0.00  0.00    +0.000 C 
ATOM     35  C   UNL     1      28.121 -24.710 -14.167  0.00  0.00    +0.000 C 
ENDBRANCH  29  30
ENDBRANCH   1  29
TORSDOF 9
ENDMDL
MODEL 2
REMARK VINA RESULT:     -11.0      1.364      4.901
REMARK  Name = 6420159
REMARK  9 active torsions:
REMARK  status: ('A' for Active; 'I' for Inactive)
REMARK    1  A    between atoms: C_1  and  N_3
REMARK    2  A    between atoms: C_1  and  C_15
REMARK    3  A    between atoms: C_1  and  C_29
REMARK    4  A    between atoms: N_14  and  C_17
REMARK    5  A    between atoms: C_17  and  C_18
REMARK    6  A    between atoms: C_18  and  N_19
REMARK    7  A    between atoms: N_19  and  C_21
REMARK    8  A    between atoms: C_26  and  O_27
REMARK    9  A    between atoms: C_29  and  C_30
REMARK                            x       y       z     vdW  Elec       q    Type
REMARK                         _______ _______ _______ _____ _____    ______ ____
ROOT
ATOM      1  C   UNL     1      34.658 -22.390 -15.296  0.00  0.00    +0.151 C 
ENDROOT
BRANCH   1   3
ATOM      2  O   UNL     1      31.106 -23.132 -15.815  0.00  0.00    -0.414 OA
ATOM      3  N   UNL     1      33.321 -22.527 -15.833  0.00  0.00    -0.271 N 
ATOM      4  N   UNL     1      32.291 -23.596 -13.939  0.00  0.00    -0.356 NA
ATOM      5  C   UNL     1      32.272 -23.100 -15.137  0.00  0.00    +0.345 C 
ATOM      6  C   UNL     1      30.263 -23.732 -14.923  0.00  0.00    +0.175 C 
ATOM      7  C   UNL     1      30.992 -24.014 -13.776  0.00  0.00    +0.152 C 
ATOM      8  C   UNL     1      28.916 -24.023 -15.095  0.00  0.00    +0.040 C 
ATOM      9  C   UNL     1      30.347 -24.637 -12.699  0.00  0.00    +0.088 C 
ATOM     10  C   UNL     1      28.287 -24.645 -14.012  0.00  0.00    -0.001 C 
ATOM     11  C   UNL     1      28.986 -24.947 -12.836  0.00  0.00    -0.018 C 
ATOM     12  H   UNL     1      33.149 -22.193 -16.743  0.00  0.00    +0.153 HD
ENDBRANCH   1   3
BRANCH   1  15
ATOM     13  O   UNL     1      36.599 -21.141 -16.031  0.00  0.00    -0.273 OA
ATOM     14  N   UNL     1      34.937 -21.626 -17.573  0.00  0.00    -0.301 N 
ATOM     15  C   UNL     1      35.519 -21.655 -16.314  0.00  0.00    +0.240 C 
ATOM     16  H   UNL     1      34.067 -22.066 -17.707  0.00  0.00    +0.150 HD
BRANCH  14  17
ATOM     17  C   UNL     1      35.568 -20.972 -18.694  0.00  0.00    +0.111 C 
BRANCH  17  18
ATOM     18  C   UNL     1      34.555 -20.474 -19.714  0.00  0.00    +0.109 C 
BRANCH  18  19
ATOM     19  N   UNL     1      34.693 -19.050 -19.907  0.00  0.00    -0.331 N 
ATOM     20  H   UNL     1      35.018 -18.508 -19.151  0.00  0.00    +0.147 HD
BRANCH  19  21
ATOM     21  C   UNL     1      34.393 -18.401 -21.094  0.00  0.00    +0.045 C 
ATOM     22  C   UNL     1      33.931 -19.120 -22.213  0.00  0.00    +0.017 C 
ATOM     23  C   UNL     1      34.544 -17.008 -21.214  0.00  0.00    +0.017 C 
ATOM     24  C   UNL     1      33.630 -18.468 -23.408  0.00  0.00    +0.038 C 
ATOM     25  C   UNL     1      34.243 -16.356 -22.410  0.00  0.00    +0.038 C 
ATOM     26  C   UNL     1      33.786 -17.086 -23.507  0.00  0.00    +0.139 C 
BRANCH  26  27
ATOM     27  O   UNL     1      33.492 -16.448 -24.673  0.00  0.00    -0.471 OA
ATOM     28  C   UNL     1      32.850 -15.178 -24.576  0.00  0.00    +0.252 C 
ENDBRANCH  26  27
ENDBRANCH  19  21
ENDBRANCH  18  19
ENDBRANCH  17  18
ENDBRANCH  14  17
ENDBRANCH   1  15
BRANCH   1  29
ATOM     29  C   UNL     1      35.256 -23.767 -15.000  0.00  0.00    +0.029 C 
BRANCH  29  30
ATOM     30  C   UNL     1      36.160 -23.760 -13.769  0.00  0.00    +0.002 C 
ATOM     31  C   UNL     1      36.335 -25.181 -13.217  0.00  0.00    +0.000 C 
ATOM     32  C   UNL     1      35.601 -22.821 -12.692  0.00  0.00    +0.000 C 
ATOM     33  C   UNL     1      37.192 -25.193 -11.953  0.00  0.00    +0.000 C 
ATOM     34  C   UNL     1      36.459 -22.837 -11.429  0.00  0.00    +0.000 C 
ATOM     35  C   UNL     1      36.638 -24.252 -10.888  0.00  0.00    +0.000 C 
ENDBRANCH  29  30
ENDBRANCH   1  29
TORSDOF 9
ENDMDL
MODEL 3
REMARK VINA RESULT:     -10.3      1.386      5.305
REMARK  Name = 6420159
REMARK  9 active torsions:
REMARK  status: ('A' for Active; 'I' for Inactive)
REMARK    1  A    between atoms: C_1  and  N_3
REMARK    2  A    between atoms: C_1  and  C_15
REMARK    3  A    between atoms: C_1  and  C_29
REMARK    4  A    between atoms: N_14  and  C_17
REMARK    5  A    between atoms: C_17  and  C_18
REMARK    6  A    between atoms: C_18  and  N_19
REMARK    7  A    between atoms: N_19  and  C_21
REMARK    8  A    between atoms: C_26  and  O_27
REMARK    9  A    between atoms: C_29  and  C_30
REMARK                            x       y       z     vdW  Elec       q    Type
REMARK                         _______ _______ _______ _____ _____    ______ ____
ROOT
ATOM      1  C   UNL     1      34.370 -22.136 -14.946  0.00  0.00    +0.151 C 
ENDROOT
BRANCH   1   3
ATOM      2  O   UNL     1      31.624 -24.478 -14.299  0.00  0.00    -0.414 OA
ATOM      3  N   UNL     1      33.567 -23.295 -14.620  0.00  0.00    -0.271 N 
ATOM      4  N   UNL     1      31.393 -22.312 -14.929  0.00  0.00    -0.356 NA
ATOM      5  C   UNL     1      32.183 -23.296 -14.636  0.00  0.00    +0.345 C 
ATOM      6  C   UNL     1      30.289 -24.208 -14.393  0.00  0.00    +0.175 C 
ATOM      7  C   UNL     1      30.151 -22.882 -14.779  0.00  0.00    +0.152 C 
ATOM      8  C   UNL     1      29.231 -25.076 -14.154  0.00  0.00    +0.040 C 
ATOM      9  C   UNL     1      28.863 -22.356 -14.946  0.00  0.00    +0.088 C 
ATOM     10  C   UNL     1      27.952 -24.536 -14.326  0.00  0.00    -0.001 C 
ATOM     11  C   UNL     1      27.769 -23.203 -14.714  0.00  0.00    -0.018 C 
ATOM     12  H   UNL     1      34.030 -24.127 -14.373  0.00  0.00    +0.153 HD
ENDBRANCH   1   3
BRANCH   1  15
ATOM     13  O   UNL     1      35.738 -22.134 -16.946  0.00  0.00    -0.273 OA
ATOM     14  N   UNL     1      33.431 -22.078 -17.174  0.00  0.00    -0.301 N 
ATOM     15  C   UNL     1      34.613 -22.121 -16.450  0.00  0.00    +0.240 C 
ATOM     16  H   UNL     1      32.574 -22.070 -16.690  0.00  0.00    +0.150 HD
BRANCH  14  17
ATOM     17  C   UNL     1      33.417 -22.045 -18.617  0.00  0.00    +0.111 C 
BRANCH  17  18
ATOM     18  C   UNL     1      33.050 -20.672 -19.158  0.00  0.00    +0.109 C 
BRANCH  18  19
ATOM     19  N   UNL     1      34.220 -20.007 -19.682  0.00  0.00    -0.331 N 
ATOM     20  H   UNL     1      35.093 -20.213 -19.276  0.00  0.00    +0.147 HD
BRANCH  19  21
ATOM     21  C   UNL     1      34.184 -19.096 -20.726  0.00  0.00    +0.045 C 
ATOM     22  C   UNL     1      34.518 -17.745 -20.516  0.00  0.00    +0.017 C 
ATOM     23  C   UNL     1      33.812 -19.496 -22.022  0.00  0.00    +0.017 C 
ATOM     24  C   UNL     1      34.481 -16.827 -21.566  0.00  0.00    +0.038 C 
ATOM     25  C   UNL     1      33.774 -18.579 -23.072  0.00  0.00    +0.038 C 
ATOM     26  C   UNL     1      34.109 -17.244 -22.844  0.00  0.00    +0.139 C 
BRANCH  26  27
ATOM     27  O   UNL     1      34.073 -16.350 -23.869  0.00  0.00    -0.471 OA
ATOM     28  C   UNL     1      33.304 -15.165 -23.672  0.00  0.00    +0.252 C 
ENDBRANCH  26  27
ENDBRANCH  19  21
ENDBRANCH  18  19
ENDBRANCH  17  18
ENDBRANCH  14  17
ENDBRANCH   1  15
BRANCH   1  29
ATOM     29  C   UNL     1      35.704 -22.184 -14.200  0.00  0.00    +0.029 C 
BRANCH  29  30
ATOM     30  C   UNL     1      35.890 -23.484 -13.420  0.00  0.00    +0.002 C 
ATOM     31  C   UNL     1      36.065 -23.198 -11.922  0.00  0.00    +0.000 C 
ATOM     32  C   UNL     1      37.084 -24.279 -13.966  0.00  0.00    +0.000 C 
ATOM     33  C   UNL     1      36.305 -24.479 -11.128  0.00  0.00    +0.000 C 
ATOM     34  C   UNL     1      37.324 -25.557 -13.168  0.00  0.00    +0.000 C 
ATOM     35  C   UNL     1      37.488 -25.270 -11.679  0.00  0.00    +0.000 C 
ENDBRANCH  29  30
ENDBRANCH   1  29
TORSDOF 9
ENDMDL
MODEL 4
REMARK VINA RESULT:     -10.0      6.832     11.324
REMARK  Name = 6420159
REMARK  9 active torsions:
REMARK  status: ('A' for Active; 'I' for Inactive)
REMARK    1  A    between atoms: C_1  and  N_3
REMARK    2  A    between atoms: C_1  and  C_15
REMARK    3  A    between atoms: C_1  and  C_29
REMARK    4  A    between atoms: N_14  and  C_17
REMARK    5  A    between atoms: C_17  and  C_18
REMARK    6  A    between atoms: C_18  and  N_19
REMARK    7  A    between atoms: N_19  and  C_21
REMARK    8  A    between atoms: C_26  and  O_27
REMARK    9  A    between atoms: C_29  and  C_30
REMARK                            x       y       z     vdW  Elec       q    Type
REMARK                         _______ _______ _______ _____ _____    ______ ____
ROOT
ATOM      1  C   UNL     1      34.094 -15.663 -23.037  0.00  0.00    +0.151 C 
ENDROOT
BRANCH   1   3
ATOM      2  O   UNL     1      32.344 -14.065 -20.240  0.00  0.00    -0.414 OA
ATOM      3  N   UNL     1      33.477 -15.357 -21.764  0.00  0.00    -0.271 N 
ATOM      4  N   UNL     1      32.720 -13.130 -22.270  0.00  0.00    -0.356 NA
ATOM      5  C   UNL     1      32.856 -14.152 -21.485  0.00  0.00    +0.345 C 
ATOM      6  C   UNL     1      31.805 -12.811 -20.231  0.00  0.00    +0.175 C 
ATOM      7  C   UNL     1      32.037 -12.241 -21.475  0.00  0.00    +0.152 C 
ATOM      8  C   UNL     1      31.138 -12.184 -19.186  0.00  0.00    +0.040 C 
ATOM      9  C   UNL     1      31.575 -10.941 -21.721  0.00  0.00    +0.088 C 
ATOM     10  C   UNL     1      30.684 -10.887 -19.448  0.00  0.00    -0.001 C 
ATOM     11  C   UNL     1      30.897 -10.275 -20.690  0.00  0.00    -0.018 C 
ATOM     12  H   UNL     1      33.501 -16.042 -21.059  0.00  0.00    +0.153 HD
ENDBRANCH   1   3
BRANCH   1  15
ATOM     13  O   UNL     1      32.247 -16.227 -24.498  0.00  0.00    -0.273 OA
ATOM     14  N   UNL     1      33.227 -14.136 -24.699  0.00  0.00    -0.301 N 
ATOM     15  C   UNL     1      33.082 -15.398 -24.144  0.00  0.00    +0.240 C 
ATOM     16  H   UNL     1      33.926 -13.538 -24.350  0.00  0.00    +0.150 HD
BRANCH  14  17
ATOM     17  C   UNL     1      32.383 -13.670 -25.774  0.00  0.00    +0.111 C 
BRANCH  17  18
ATOM     18  C   UNL     1      32.282 -12.153 -25.810  0.00  0.00    +0.109 C 
BRANCH  18  19
ATOM     19  N   UNL     1      33.340 -11.559 -25.027  0.00  0.00    -0.331 N 
ATOM     20  H   UNL     1      34.127 -12.111 -24.813  0.00  0.00    +0.147 HD
BRANCH  19  21
ATOM     21  C   UNL     1      33.312 -10.254 -24.560  0.00  0.00    +0.045 C 
ATOM     22  C   UNL     1      34.402  -9.718 -23.849  0.00  0.00    +0.017 C 
ATOM     23  C   UNL     1      32.192  -9.432 -24.782  0.00  0.00    +0.017 C 
ATOM     24  C   UNL     1      34.373  -8.406 -23.377  0.00  0.00    +0.038 C 
ATOM     25  C   UNL     1      32.163  -8.119 -24.310  0.00  0.00    +0.038 C 
ATOM     26  C   UNL     1      33.253  -7.607 -23.607  0.00  0.00    +0.139 C 
BRANCH  26  27
ATOM     27  O   UNL     1      33.225  -6.326 -23.148  0.00  0.00    -0.471 OA
ATOM     28  C   UNL     1      33.797  -5.322 -23.985  0.00  0.00    +0.252 C 
ENDBRANCH  26  27
ENDBRANCH  19  21
ENDBRANCH  18  19
ENDBRANCH  17  18
ENDBRANCH  14  17
ENDBRANCH   1  15
BRANCH   1  29
ATOM     29  C   UNL     1      34.542 -17.126 -23.074  0.00  0.00    +0.029 C 
BRANCH  29  30
ATOM     30  C   UNL     1      34.564 -17.765 -21.687  0.00  0.00    +0.002 C 
ATOM     31  C   UNL     1      35.978 -18.245 -21.334  0.00  0.00    +0.000 C 
ATOM     32  C   UNL     1      33.559 -18.922 -21.607  0.00  0.00    +0.000 C 
ATOM     33  C   UNL     1      36.015 -18.936 -19.973  0.00  0.00    +0.000 C 
ATOM     34  C   UNL     1      33.601 -19.612 -20.246  0.00  0.00    +0.000 C 
ATOM     35  C   UNL     1      35.009 -20.080 -19.895  0.00  0.00    +0.000 C 
ENDBRANCH  29  30
ENDBRANCH   1  29
TORSDOF 9
ENDMDL
MODEL 5
REMARK VINA RESULT:      -9.9      2.312      5.130
REMARK  Name = 6420159
REMARK  9 active torsions:
REMARK  status: ('A' for Active; 'I' for Inactive)
REMARK    1  A    between atoms: C_1  and  N_3
REMARK    2  A    between atoms: C_1  and  C_15
REMARK    3  A    between atoms: C_1  and  C_29
REMARK    4  A    between atoms: N_14  and  C_17
REMARK    5  A    between atoms: C_17  and  C_18
REMARK    6  A    between atoms: C_18  and  N_19
REMARK    7  A    between atoms: N_19  and  C_21
REMARK    8  A    between atoms: C_26  and  O_27
REMARK    9  A    between atoms: C_29  and  C_30
REMARK                            x       y       z     vdW  Elec       q    Type
REMARK                         _______ _______ _______ _____ _____    ______ ____
ROOT
ATOM      1  C   UNL     1      32.618 -21.227 -17.875  0.00  0.00    +0.151 C 
ENDROOT
BRANCH   1   3
ATOM      2  O   UNL     1      29.890 -23.258 -16.506  0.00  0.00    -0.414 OA
ATOM      3  N   UNL     1      31.421 -22.021 -17.688  0.00  0.00    -0.271 N 
ATOM      4  N   UNL     1      31.644 -22.437 -15.329  0.00  0.00    -0.356 NA
ATOM      5  C   UNL     1      31.037 -22.548 -16.468  0.00  0.00    +0.345 C 
ATOM      6  C   UNL     1      29.746 -23.653 -15.207  0.00  0.00    +0.175 C 
ATOM      7  C   UNL     1      30.821 -23.149 -14.489  0.00  0.00    +0.152 C 
ATOM      8  C   UNL     1      28.724 -24.421 -14.664  0.00  0.00    +0.040 C 
ATOM      9  C   UNL     1      30.906 -23.418 -13.116  0.00  0.00    +0.088 C 
ATOM     10  C   UNL     1      28.823 -24.681 -13.293  0.00  0.00    -0.001 C 
ATOM     11  C   UNL     1      29.892 -24.191 -12.532  0.00  0.00    -0.018 C 
ATOM     12  H   UNL     1      30.851 -22.194 -18.471  0.00  0.00    +0.153 HD
ENDBRANCH   1   3
BRANCH   1  15
ATOM     13  O   UNL     1      31.486 -20.435 -19.865  0.00  0.00    -0.273 OA
ATOM     14  N   UNL     1      33.761 -20.042 -19.646  0.00  0.00    -0.301 N 
ATOM     15  C   UNL     1      32.533 -20.532 -19.227  0.00  0.00    +0.240 C 
ATOM     16  H   UNL     1      34.547 -20.166 -19.067  0.00  0.00    +0.150 HD
BRANCH  14  17
ATOM     17  C   UNL     1      33.923 -19.355 -20.905  0.00  0.00    +0.111 C 
BRANCH  17  18
ATOM     18  C   UNL     1      35.027 -18.311 -20.853  0.00  0.00    +0.109 C 
BRANCH  18  19
ATOM     19  N   UNL     1      34.943 -17.431 -21.995  0.00  0.00    -0.331 N 
ATOM     20  H   UNL     1      35.368 -17.719 -22.835  0.00  0.00    +0.147 HD
BRANCH  19  21
ATOM     21  C   UNL     1      34.300 -16.204 -21.975  0.00  0.00    +0.045 C 
ATOM     22  C   UNL     1      33.979 -15.576 -20.757  0.00  0.00    +0.017 C 
ATOM     23  C   UNL     1      33.948 -15.554 -23.172  0.00  0.00    +0.017 C 
ATOM     24  C   UNL     1      33.330 -14.341 -20.737  0.00  0.00    +0.038 C 
ATOM     25  C   UNL     1      33.299 -14.319 -23.152  0.00  0.00    +0.038 C 
ATOM     26  C   UNL     1      32.990 -13.713 -21.935  0.00  0.00    +0.139 C 
BRANCH  26  27
ATOM     27  O   UNL     1      32.358 -12.508 -21.916  0.00  0.00    -0.471 OA
ATOM     28  C   UNL     1      31.304 -12.341 -20.970  0.00  0.00    +0.252 C 
ENDBRANCH  26  27
ENDBRANCH  19  21
ENDBRANCH  18  19
ENDBRANCH  17  18
ENDBRANCH  14  17
ENDBRANCH   1  15
BRANCH   1  29
ATOM     29  C   UNL     1      33.861 -22.117 -17.820  0.00  0.00    +0.029 C 
BRANCH  29  30
ATOM     30  C   UNL     1      34.666 -21.918 -16.538  0.00  0.00    +0.002 C 
ATOM     31  C   UNL     1      36.134 -21.607 -16.863  0.00  0.00    +0.000 C 
ATOM     32  C   UNL     1      34.557 -23.151 -15.631  0.00  0.00    +0.000 C 
ATOM     33  C   UNL     1      36.971 -21.455 -15.595  0.00  0.00    +0.000 C 
ATOM     34  C   UNL     1      35.398 -22.997 -14.366  0.00  0.00    +0.000 C 
ATOM     35  C   UNL     1      36.853 -22.679 -14.693  0.00  0.00    +0.000 C 
ENDBRANCH  29  30
ENDBRANCH   1  29
TORSDOF 9
ENDMDL
MODEL 6
REMARK VINA RESULT:      -9.8      8.375     15.517
REMARK  Name = 6420159
REMARK  9 active torsions:
REMARK  status: ('A' for Active; 'I' for Inactive)
REMARK    1  A    between atoms: C_1  and  N_3
REMARK    2  A    between atoms: C_1  and  C_15
REMARK    3  A    between atoms: C_1  and  C_29
REMARK    4  A    between atoms: N_14  and  C_17
REMARK    5  A    between atoms: C_17  and  C_18
REMARK    6  A    between atoms: C_18  and  N_19
REMARK    7  A    between atoms: N_19  and  C_21
REMARK    8  A    between atoms: C_26  and  O_27
REMARK    9  A    between atoms: C_29  and  C_30
REMARK                            x       y       z     vdW  Elec       q    Type
REMARK                         _______ _______ _______ _____ _____    ______ ____
ROOT
ATOM      1  C   UNL     1      32.966  -7.416 -24.093  0.00  0.00    +0.151 C 
ENDROOT
BRANCH   1   3
ATOM      2  O   UNL     1      31.735  -7.413 -20.640  0.00  0.00    -0.414 OA
ATOM      3  N   UNL     1      32.580  -7.056 -22.745  0.00  0.00    -0.271 N 
ATOM      4  N   UNL     1      31.759  -9.202 -22.032  0.00  0.00    -0.356 NA
ATOM      5  C   UNL     1      32.024  -7.947 -21.845  0.00  0.00    +0.345 C 
ATOM      6  C   UNL     1      31.213  -8.479 -19.964  0.00  0.00    +0.175 C 
ATOM      7  C   UNL     1      31.229  -9.571 -20.819  0.00  0.00    +0.152 C 
ATOM      8  C   UNL     1      30.741  -8.504 -18.658  0.00  0.00    +0.040 C 
ATOM      9  C   UNL     1      30.740 -10.801 -20.356  0.00  0.00    +0.088 C 
ATOM     10  C   UNL     1      30.256  -9.737 -18.211  0.00  0.00    -0.001 C 
ATOM     11  C   UNL     1      30.255 -10.865 -19.042  0.00  0.00    -0.018 C 
ATOM     12  H   UNL     1      32.721  -6.127 -22.453  0.00  0.00    +0.153 HD
ENDBRANCH   1   3
BRANCH   1  15
ATOM     13  O   UNL     1      34.924  -8.723 -23.521  0.00  0.00    -0.273 OA
ATOM     14  N   UNL     1      33.176  -9.764 -24.634  0.00  0.00    -0.301 N 
ATOM     15  C   UNL     1      33.808  -8.684 -24.035  0.00  0.00    +0.240 C 
ATOM     16  H   UNL     1      32.280  -9.638 -25.020  0.00  0.00    +0.150 HD
BRANCH  14  17
ATOM     17  C   UNL     1      33.791 -11.067 -24.708  0.00  0.00    +0.111 C 
BRANCH  17  18
ATOM     18  C   UNL     1      32.887 -12.162 -24.165  0.00  0.00    +0.109 C 
BRANCH  18  19
ATOM     19  N   UNL     1      33.051 -12.290 -22.737  0.00  0.00    -0.331 N 
ATOM     20  H   UNL     1      32.921 -11.488 -22.180  0.00  0.00    +0.147 HD
BRANCH  19  21
ATOM     21  C   UNL     1      33.383 -13.477 -22.103  0.00  0.00    +0.045 C 
ATOM     22  C   UNL     1      33.227 -13.621 -20.712  0.00  0.00    +0.017 C 
ATOM     23  C   UNL     1      33.886 -14.569 -22.833  0.00  0.00    +0.017 C 
ATOM     24  C   UNL     1      33.562 -14.816 -20.074  0.00  0.00    +0.038 C 
ATOM     25  C   UNL     1      34.221 -15.764 -22.196  0.00  0.00    +0.038 C 
ATOM     26  C   UNL     1      34.060 -15.887 -20.816  0.00  0.00    +0.139 C 
BRANCH  26  27
ATOM     27  O   UNL     1      34.385 -17.053 -20.194  0.00  0.00    -0.471 OA
ATOM     28  C   UNL     1      34.774 -18.146 -21.025  0.00  0.00    +0.252 C 
ENDBRANCH  26  27
ENDBRANCH  19  21
ENDBRANCH  18  19
ENDBRANCH  17  18
ENDBRANCH  14  17
ENDBRANCH   1  15
BRANCH   1  29
ATOM     29  C   UNL     1      33.767  -6.283 -24.738  0.00  0.00    +0.029 C 
BRANCH  29  30
ATOM     30  C   UNL     1      33.049  -5.670 -25.939  0.00  0.00    +0.002 C 
ATOM     31  C   UNL     1      31.678  -6.328 -26.144  0.00  0.00    +0.000 C 
ATOM     32  C   UNL     1      33.907  -5.792 -27.205  0.00  0.00    +0.000 C 
ATOM     33  C   UNL     1      30.962  -5.767 -27.371  0.00  0.00    +0.000 C 
ATOM     34  C   UNL     1      33.188  -5.234 -28.430  0.00  0.00    +0.000 C 
ATOM     35  C   UNL     1      31.822  -5.883 -28.626  0.00  0.00    +0.000 C 
ENDBRANCH  29  30
ENDBRANCH   1  29
TORSDOF 9
ENDMDL
MODEL 7
REMARK VINA RESULT:      -9.7      8.403     15.973
REMARK  Name = 6420159
REMARK  9 active torsions:
REMARK  status: ('A' for Active; 'I' for Inactive)
REMARK    1  A    between atoms: C_1  and  N_3
REMARK    2  A    between atoms: C_1  and  C_15
REMARK    3  A    between atoms: C_1  and  C_29
REMARK    4  A    between atoms: N_14  and  C_17
REMARK    5  A    between atoms: C_17  and  C_18
REMARK    6  A    between atoms: C_18  and  N_19
REMARK    7  A    between atoms: N_19  and  C_21
REMARK    8  A    between atoms: C_26  and  O_27
REMARK    9  A    between atoms: C_29  and  C_30
REMARK                            x       y       z     vdW  Elec       q    Type
REMARK                         _______ _______ _______ _____ _____    ______ ____
ROOT
ATOM      1  C   UNL     1      32.732  -8.089 -22.387  0.00  0.00    +0.151 C 
ENDROOT
BRANCH   1   3
ATOM      2  O   UNL     1      32.702  -4.996 -24.356  0.00  0.00    -0.414 OA
ATOM      3  N   UNL     1      32.899  -6.733 -22.867  0.00  0.00    -0.271 N 
ATOM      4  N   UNL     1      31.821  -6.982 -25.003  0.00  0.00    -0.356 NA
ATOM      5  C   UNL     1      32.446  -6.296 -24.099  0.00  0.00    +0.345 C 
ATOM      6  C   UNL     1      32.163  -4.832 -25.600  0.00  0.00    +0.175 C 
ATOM      7  C   UNL     1      31.625  -6.049 -25.993  0.00  0.00    +0.152 C 
ATOM      8  C   UNL     1      32.139  -3.673 -26.366  0.00  0.00    +0.040 C 
ATOM      9  C   UNL     1      31.006  -6.144 -27.247  0.00  0.00    +0.088 C 
ATOM     10  C   UNL     1      31.518  -3.784 -27.614  0.00  0.00    -0.001 C 
ATOM     11  C   UNL     1      30.962  -4.994 -28.048  0.00  0.00    -0.018 C 
ATOM     12  H   UNL     1      33.361  -6.088 -22.285  0.00  0.00    +0.153 HD
ENDBRANCH   1   3
BRANCH   1  15
ATOM     13  O   UNL     1      34.804  -8.916 -23.330  0.00  0.00    -0.273 OA
ATOM     14  N   UNL     1      32.819  -9.960 -23.917  0.00  0.00    -0.301 N 
ATOM     15  C   UNL     1      33.582  -9.016 -23.246  0.00  0.00    +0.240 C 
ATOM     16  H   UNL     1      31.843  -9.964 -23.788  0.00  0.00    +0.150 HD
BRANCH  14  17
ATOM     17  C   UNL     1      33.410 -10.937 -24.799  0.00  0.00    +0.111 C 
BRANCH  17  18
ATOM     18  C   UNL     1      33.011 -12.358 -24.434  0.00  0.00    +0.109 C 
BRANCH  18  19
ATOM     19  N   UNL     1      32.866 -12.489 -23.003  0.00  0.00    -0.331 N 
ATOM     20  H   UNL     1      32.461 -11.741 -22.507  0.00  0.00    +0.147 HD
BRANCH  19  21
ATOM     21  C   UNL     1      33.265 -13.607 -22.288  0.00  0.00    +0.045 C 
ATOM     22  C   UNL     1      33.124 -13.657 -20.888  0.00  0.00    +0.017 C 
ATOM     23  C   UNL     1      33.824 -14.721 -22.941  0.00  0.00    +0.017 C 
ATOM     24  C   UNL     1      33.527 -14.782 -20.168  0.00  0.00    +0.038 C 
ATOM     25  C   UNL     1      34.227 -15.845 -22.221  0.00  0.00    +0.038 C 
ATOM     26  C   UNL     1      34.079 -15.876 -20.835  0.00  0.00    +0.139 C 
BRANCH  26  27
ATOM     27  O   UNL     1      34.471 -16.974 -20.133  0.00  0.00    -0.471 OA
ATOM     28  C   UNL     1      35.098 -18.025 -20.867  0.00  0.00    +0.252 C 
ENDBRANCH  26  27
ENDBRANCH  19  21
ENDBRANCH  18  19
ENDBRANCH  17  18
ENDBRANCH  14  17
ENDBRANCH   1  15
BRANCH   1  29
ATOM     29  C   UNL     1      31.261  -8.503 -22.465  0.00  0.00    +0.029 C 
BRANCH  29  30
ATOM     30  C   UNL     1      30.710  -8.958 -21.115  0.00  0.00    +0.002 C 
ATOM     31  C   UNL     1      31.239  -8.065 -19.985  0.00  0.00    +0.000 C 
ATOM     32  C   UNL     1      31.058 -10.430 -20.855  0.00  0.00    +0.000 C 
ATOM     33  C   UNL     1      30.744  -8.532 -18.618  0.00  0.00    +0.000 C 
ATOM     34  C   UNL     1      30.564 -10.893 -19.487  0.00  0.00    +0.000 C 
ATOM     35  C   UNL     1      31.084  -9.998 -18.367  0.00  0.00    +0.000 C 
ENDBRANCH  29  30
ENDBRANCH   1  29
TORSDOF 9
ENDMDL
MODEL 8
REMARK VINA RESULT:      -9.6     10.544     16.471
REMARK  Name = 6420159
REMARK  9 active torsions:
REMARK  status: ('A' for Active; 'I' for Inactive)
REMARK    1  A    between atoms: C_1  and  N_3
REMARK    2  A    between atoms: C_1  and  C_15
REMARK    3  A    between atoms: C_1  and  C_29
REMARK    4  A    between atoms: N_14  and  C_17
REMARK    5  A    between atoms: C_17  and  C_18
REMARK    6  A    between atoms: C_18  and  N_19
REMARK    7  A    between atoms: N_19  and  C_21
REMARK    8  A    between atoms: C_26  and  O_27
REMARK    9  A    between atoms: C_29  and  C_30
REMARK                            x       y       z     vdW  Elec       q    Type
REMARK                         _______ _______ _______ _____ _____    ______ ____
ROOT
ATOM      1  C   UNL     1      32.140  -7.084 -21.373  0.00  0.00    +0.151 C 
ENDROOT
BRANCH   1   3
ATOM      2  O   UNL     1      30.863  -3.704 -21.997  0.00  0.00    -0.414 OA
ATOM      3  N   UNL     1      31.815  -5.675 -21.301  0.00  0.00    -0.271 N 
ATOM      4  N   UNL     1      30.511  -5.514 -23.317  0.00  0.00    -0.356 NA
ATOM      5  C   UNL     1      31.050  -5.017 -22.248  0.00  0.00    +0.345 C 
ATOM      6  C   UNL     1      30.096  -3.310 -23.057  0.00  0.00    +0.175 C 
ATOM      7  C   UNL     1      29.883  -4.419 -23.862  0.00  0.00    +0.152 C 
ATOM      8  C   UNL     1      29.601  -2.038 -23.315  0.00  0.00    +0.040 C 
ATOM      9  C   UNL     1      29.116  -4.275 -25.026  0.00  0.00    +0.088 C 
ATOM     10  C   UNL     1      28.837  -1.910 -24.480  0.00  0.00    -0.001 C 
ATOM     11  C   UNL     1      28.598  -3.005 -25.321  0.00  0.00    -0.018 C 
ATOM     12  H   UNL     1      32.158  -5.157 -20.538  0.00  0.00    +0.153 HD
ENDBRANCH   1   3
BRANCH   1  15
ATOM     13  O   UNL     1      34.381  -6.760 -22.233  0.00  0.00    -0.273 OA
ATOM     14  N   UNL     1      32.899  -8.064 -23.450  0.00  0.00    -0.301 N 
ATOM     15  C   UNL     1      33.272  -7.271 -22.374  0.00  0.00    +0.240 C 
ATOM     16  H   UNL     1      31.987  -8.432 -23.478  0.00  0.00    +0.150 HD
BRANCH  14  17
ATOM     17  C   UNL     1      33.808  -8.368 -24.529  0.00  0.00    +0.111 C 
BRANCH  17  18
ATOM     18  C   UNL     1      34.247  -9.824 -24.519  0.00  0.00    +0.109 C 
BRANCH  18  19
ATOM     19  N   UNL     1      33.283 -10.636 -23.816  0.00  0.00    -0.331 N 
ATOM     20  H   UNL     1      32.717 -10.203 -23.136  0.00  0.00    +0.147 HD
BRANCH  19  21
ATOM     21  C   UNL     1      33.108 -11.992 -24.043  0.00  0.00    +0.045 C 
ATOM     22  C   UNL     1      33.326 -12.930 -23.017  0.00  0.00    +0.017 C 
ATOM     23  C   UNL     1      32.708 -12.467 -25.305  0.00  0.00    +0.017 C 
ATOM     24  C   UNL     1      33.152 -14.295 -23.246  0.00  0.00    +0.038 C 
ATOM     25  C   UNL     1      32.534 -13.832 -25.534  0.00  0.00    +0.038 C 
ATOM     26  C   UNL     1      32.756 -14.746 -24.504  0.00  0.00    +0.139 C 
BRANCH  26  27
ATOM     27  O   UNL     1      32.583 -16.077 -24.728  0.00  0.00    -0.471 OA
ATOM     28  C   UNL     1      33.416 -16.973 -23.993  0.00  0.00    +0.252 C 
ENDBRANCH  26  27
ENDBRANCH  19  21
ENDBRANCH  18  19
ENDBRANCH  17  18
ENDBRANCH  14  17
ENDBRANCH   1  15
BRANCH   1  29
ATOM     29  C   UNL     1      30.915  -7.891 -21.809  0.00  0.00    +0.029 C 
BRANCH  29  30
ATOM     30  C   UNL     1      30.491  -8.920 -20.764  0.00  0.00    +0.002 C 
ATOM     31  C   UNL     1      31.005  -8.524 -19.373  0.00  0.00    +0.000 C 
ATOM     32  C   UNL     1      30.985 -10.321 -21.150  0.00  0.00    +0.000 C 
ATOM     33  C   UNL     1      30.638  -9.566 -18.319  0.00  0.00    +0.000 C 
ATOM     34  C   UNL     1      30.619 -11.359 -20.092  0.00  0.00    +0.000 C 
ATOM     35  C   UNL     1      31.124 -10.958 -18.710  0.00  0.00    +0.000 C 
ENDBRANCH  29  30
ENDBRANCH   1  29
TORSDOF 9
ENDMDL
MODEL 9
REMARK VINA RESULT:      -9.5     11.115     16.395
REMARK  Name = 6420159
REMARK  9 active torsions:
REMARK  status: ('A' for Active; 'I' for Inactive)
REMARK    1  A    between atoms: C_1  and  N_3
REMARK    2  A    between atoms: C_1  and  C_15
REMARK    3  A    between atoms: C_1  and  C_29
REMARK    4  A    between atoms: N_14  and  C_17
REMARK    5  A    between atoms: C_17  and  C_18
REMARK    6  A    between atoms: C_18  and  N_19
REMARK    7  A    between atoms: N_19  and  C_21
REMARK    8  A    between atoms: C_26  and  O_27
REMARK    9  A    between atoms: C_29  and  C_30
REMARK                            x       y       z     vdW  Elec       q    Type
REMARK                         _______ _______ _______ _____ _____    ______ ____
ROOT
ATOM      1  C   UNL     1      31.194  -5.782 -23.430  0.00  0.00    +0.151 C 
ENDROOT
BRANCH   1   3
ATOM      2  O   UNL     1      30.984  -7.148 -20.034  0.00  0.00    -0.414 OA
ATOM      3  N   UNL     1      31.121  -5.960 -21.995  0.00  0.00    -0.271 N 
ATOM      4  N   UNL     1      31.025  -8.364 -21.948  0.00  0.00    -0.356 NA
ATOM      5  C   UNL     1      31.045  -7.198 -21.382  0.00  0.00    +0.345 C 
ATOM      6  C   UNL     1      30.917  -8.470 -19.695  0.00  0.00    +0.175 C 
ATOM      7  C   UNL     1      30.942  -9.210 -20.868  0.00  0.00    +0.152 C 
ATOM      8  C   UNL     1      30.837  -9.012 -18.418  0.00  0.00    +0.040 C 
ATOM      9  C   UNL     1      30.884 -10.608 -20.788  0.00  0.00    +0.088 C 
ATOM     10  C   UNL     1      30.780 -10.408 -18.355  0.00  0.00    -0.001 C 
ATOM     11  C   UNL     1      30.803 -11.193 -19.515  0.00  0.00    -0.018 C 
ATOM     12  H   UNL     1      31.126  -5.158 -21.426  0.00  0.00    +0.153 HD
ENDBRANCH   1   3
BRANCH   1  15
ATOM     13  O   UNL     1      33.511  -5.301 -23.949  0.00  0.00    -0.273 OA
ATOM     14  N   UNL     1      32.729  -7.464 -24.244  0.00  0.00    -0.301 N 
ATOM     15  C   UNL     1      32.603  -6.129 -23.892  0.00  0.00    +0.240 C 
ATOM     16  H   UNL     1      31.945  -8.054 -24.164  0.00  0.00    +0.150 HD
BRANCH  14  17
ATOM     17  C   UNL     1      33.973  -8.017 -24.723  0.00  0.00    +0.111 C 
BRANCH  17  18
ATOM     18  C   UNL     1      34.458  -9.173 -23.862  0.00  0.00    +0.109 C 
BRANCH  18  19
ATOM     19  N   UNL     1      33.348 -10.005 -23.463  0.00  0.00    -0.331 N 
ATOM     20  H   UNL     1      32.688  -9.630 -22.836  0.00  0.00    +0.147 HD
BRANCH  19  21
ATOM     21  C   UNL     1      33.158 -11.302 -23.912  0.00  0.00    +0.045 C 
ATOM     22  C   UNL     1      32.869 -11.563 -25.265  0.00  0.00    +0.017 C 
ATOM     23  C   UNL     1      33.248 -12.393 -23.028  0.00  0.00    +0.017 C 
ATOM     24  C   UNL     1      32.677 -12.869 -25.717  0.00  0.00    +0.038 C 
ATOM     25  C   UNL     1      33.056 -13.699 -23.480  0.00  0.00    +0.038 C 
ATOM     26  C   UNL     1      32.770 -13.936 -24.824  0.00  0.00    +0.139 C 
BRANCH  26  27
ATOM     27  O   UNL     1      32.584 -15.211 -25.265  0.00  0.00    -0.471 OA
ATOM     28  C   UNL     1      32.874 -16.265 -24.348  0.00  0.00    +0.252 C 
ENDBRANCH  26  27
ENDBRANCH  19  21
ENDBRANCH  18  19
ENDBRANCH  17  18
ENDBRANCH  14  17
ENDBRANCH   1  15
BRANCH   1  29
ATOM     29  C   UNL     1      30.860  -4.336 -23.804  0.00  0.00    +0.029 C 
BRANCH  29  30
ATOM     30  C   UNL     1      29.961  -4.244 -25.035  0.00  0.00    +0.002 C 
ATOM     31  C   UNL     1      30.773  -3.828 -26.269  0.00  0.00    +0.000 C 
ATOM     32  C   UNL     1      28.803  -3.268 -24.789  0.00  0.00    +0.000 C 
ATOM     33  C   UNL     1      29.886  -3.677 -27.503  0.00  0.00    +0.000 C 
ATOM     34  C   UNL     1      27.920  -3.117 -26.025  0.00  0.00    +0.000 C 
ATOM     35  C   UNL     1      28.732  -2.713 -27.252  0.00  0.00    +0.000 C 
ENDBRANCH  29  30
ENDBRANCH   1  29
TORSDOF 9
ENDMDL
