MODEL 1
REMARK VINA RESULT:     -11.8      0.000      0.000
REMARK  Name = 66555680
REMARK  4 active torsions:
REMARK  status: ('A' for Active; 'I' for Inactive)
REMARK    1  A    between atoms: N_1  and  C_8
REMARK    2  A    between atoms: C_3  and  C_22
REMARK    3  A    between atoms: C_4  and  N_18
REMARK    4  A    between atoms: C_22  and  C_24
REMARK                            x       y       z     vdW  Elec       q    Type
REMARK                         _______ _______ _______ _____ _____    ______ ____
ROOT
ATOM      1  N   UNL     1      34.329 -19.683 -20.019  0.00  0.00    -0.177 N 
ATOM      2  N   UNL     1      35.560 -19.986 -19.573  0.00  0.00    -0.171 NA
ATOM      3  C   UNL     1      33.968 -21.300 -18.595  0.00  0.00    +0.090 C 
ATOM      4  C   UNL     1      33.339 -20.441 -19.465  0.00  0.00    +0.122 C 
ATOM      5  C   UNL     1      35.333 -20.975 -18.704  0.00  0.00    +0.124 C 
ENDROOT
BRANCH   1   8
ATOM      6  N   UNL     1      33.879 -14.999 -21.474  0.00  0.00    -0.318 N 
ATOM      7  N   UNL     1      33.710 -15.519 -23.629  0.00  0.00    -0.318 N 
ATOM      8  C   UNL     1      34.172 -18.669 -20.965  0.00  0.00    +0.077 C 
ATOM      9  C   UNL     1      33.965 -16.366 -21.529  0.00  0.00    +0.060 C 
ATOM     10  C   UNL     1      34.124 -17.337 -20.540  0.00  0.00    +0.032 C 
ATOM     11  C   UNL     1      33.857 -16.666 -22.884  0.00  0.00    +0.059 C 
ATOM     12  C   UNL     1      34.066 -19.000 -22.318  0.00  0.00    +0.018 C 
ATOM     13  C   UNL     1      33.908 -18.009 -23.294  0.00  0.00    +0.017 C 
ATOM     14  C   UNL     1      33.728 -14.539 -22.753  0.00  0.00    +0.144 C 
ATOM     15  C   UNL     1      33.605 -13.098 -23.039  0.00  0.00    +0.044 C 
ATOM     16  H   UNL     1      33.920 -14.447 -20.660  0.00  0.00    +0.148 HD
ATOM     17  H   UNL     1      33.613 -15.447 -24.606  0.00  0.00    +0.148 HD
ENDBRANCH   1   8
BRANCH   4  18
ATOM     18  N   UNL     1      32.040 -20.277 -19.794  0.00  0.00    -0.344 N 
ATOM     19  H   UNL     1      31.759 -19.491 -20.315  0.00  0.00    +0.144 HD
ATOM     20  H   UNL     1      31.373 -20.944 -19.511  0.00  0.00    +0.144 HD
ENDBRANCH   4  18
BRANCH   3  22
ATOM     21  O   UNL     1      32.380 -22.989 -18.282  0.00  0.00    -0.285 OA
ATOM     22  C   UNL     1      33.305 -22.346 -17.734  0.00  0.00    +0.213 C 
BRANCH  22  24
ATOM     23  N   UNL     1      32.873 -23.208 -15.463  0.00  0.00    -0.310 N 
ATOM     24  C   UNL     1      33.688 -22.603 -16.381  0.00  0.00    +0.088 C 
ATOM     25  C   UNL     1      33.520 -23.315 -14.252  0.00  0.00    +0.048 C 
ATOM     26  C   UNL     1      34.790 -22.758 -14.413  0.00  0.00    +0.015 C 
ATOM     27  C   UNL     1      34.882 -22.312 -15.763  0.00  0.00    +0.019 C 
ATOM     28  C   UNL     1      33.083 -23.858 -13.039  0.00  0.00    +0.015 C 
ATOM     29  C   UNL     1      35.668 -22.740 -13.313  0.00  0.00    +0.001 C 
ATOM     30  C   UNL     1      33.971 -23.829 -11.960  0.00  0.00    +0.001 C 
ATOM     31  C   UNL     1      35.244 -23.279 -12.093  0.00  0.00    +0.000 C 
ATOM     32  H   UNL     1      31.957 -23.520 -15.642  0.00  0.00    +0.152 HD
ENDBRANCH  22  24
ENDBRANCH   3  22
TORSDOF 4
ENDMDL
MODEL 2
REMARK VINA RESULT:     -11.4      1.588      2.066
REMARK  Name = 66555680
REMARK  4 active torsions:
REMARK  status: ('A' for Active; 'I' for Inactive)
REMARK    1  A    between atoms: N_1  and  C_8
REMARK    2  A    between atoms: C_3  and  C_22
REMARK    3  A    between atoms: C_4  and  N_18
REMARK    4  A    between atoms: C_22  and  C_24
REMARK                            x       y       z     vdW  Elec       q    Type
REMARK                         _______ _______ _______ _____ _____    ______ ____
ROOT
ATOM      1  N   UNL     1      34.348 -19.617 -20.014  0.00  0.00    -0.177 N 
ATOM      2  N   UNL     1      35.505 -19.904 -19.394  0.00  0.00    -0.171 NA
ATOM      3  C   UNL     1      33.903 -21.469 -18.945  0.00  0.00    +0.090 C 
ATOM      4  C   UNL     1      33.356 -20.524 -19.778  0.00  0.00    +0.122 C 
ATOM      5  C   UNL     1      35.227 -21.037 -18.743  0.00  0.00    +0.124 C 
ENDROOT
BRANCH   1   8
ATOM      6  N   UNL     1      33.699 -14.798 -20.804  0.00  0.00    -0.318 N 
ATOM      7  N   UNL     1      33.964 -14.963 -23.005  0.00  0.00    -0.318 N 
ATOM      8  C   UNL     1      34.260 -18.472 -20.809  0.00  0.00    +0.077 C 
ATOM      9  C   UNL     1      33.928 -16.128 -21.047  0.00  0.00    +0.060 C 
ATOM     10  C   UNL     1      34.006 -17.237 -20.204  0.00  0.00    +0.032 C 
ATOM     11  C   UNL     1      34.090 -16.205 -22.427  0.00  0.00    +0.059 C 
ATOM     12  C   UNL     1      34.426 -18.581 -22.191  0.00  0.00    +0.018 C 
ATOM     13  C   UNL     1      34.344 -17.454 -23.019  0.00  0.00    +0.017 C 
ATOM     14  C   UNL     1      33.730 -14.144 -22.005  0.00  0.00    +0.144 C 
ATOM     15  C   UNL     1      33.517 -12.687 -22.088  0.00  0.00    +0.044 C 
ATOM     16  H   UNL     1      33.542 -14.388 -19.923  0.00  0.00    +0.148 HD
ATOM     17  H   UNL     1      34.032 -14.736 -23.961  0.00  0.00    +0.148 HD
ENDBRANCH   1   8
BRANCH   4  18
ATOM     18  N   UNL     1      32.124 -20.398 -20.318  0.00  0.00    -0.344 N 
ATOM     19  H   UNL     1      31.351 -20.199 -19.743  0.00  0.00    +0.144 HD
ATOM     20  H   UNL     1      32.000 -20.506 -21.289  0.00  0.00    +0.144 HD
ENDBRANCH   4  18
BRANCH   3  22
ATOM     21  O   UNL     1      33.251 -23.709 -19.117  0.00  0.00    -0.285 OA
ATOM     22  C   UNL     1      33.207 -22.687 -18.392  0.00  0.00    +0.213 C 
BRANCH  22  24
ATOM     23  N   UNL     1      31.187 -22.499 -16.987  0.00  0.00    -0.310 N 
ATOM     24  C   UNL     1      32.534 -22.700 -17.132  0.00  0.00    +0.088 C 
ATOM     25  C   UNL     1      30.837 -22.569 -15.657  0.00  0.00    +0.048 C 
ATOM     26  C   UNL     1      32.007 -22.824 -14.937  0.00  0.00    +0.015 C 
ATOM     27  C   UNL     1      33.069 -22.904 -15.881  0.00  0.00    +0.019 C 
ATOM     28  C   UNL     1      29.589 -22.428 -15.043  0.00  0.00    +0.015 C 
ATOM     29  C   UNL     1      31.928 -22.944 -13.536  0.00  0.00    +0.001 C 
ATOM     30  C   UNL     1      29.534 -22.552 -13.652  0.00  0.00    +0.001 C 
ATOM     31  C   UNL     1      30.685 -22.806 -12.908  0.00  0.00    +0.000 C 
ATOM     32  H   UNL     1      30.560 -22.329 -17.727  0.00  0.00    +0.152 HD
ENDBRANCH  22  24
ENDBRANCH   3  22
TORSDOF 4
ENDMDL
MODEL 3
REMARK VINA RESULT:     -11.4      3.116      9.384
REMARK  Name = 66555680
REMARK  4 active torsions:
REMARK  status: ('A' for Active; 'I' for Inactive)
REMARK    1  A    between atoms: N_1  and  C_8
REMARK    2  A    between atoms: C_3  and  C_22
REMARK    3  A    between atoms: C_4  and  N_18
REMARK    4  A    between atoms: C_22  and  C_24
REMARK                            x       y       z     vdW  Elec       q    Type
REMARK                         _______ _______ _______ _____ _____    ______ ____
ROOT
ATOM      1  N   UNL     1      33.798 -18.660 -21.428  0.00  0.00    -0.177 N 
ATOM      2  N   UNL     1      33.479 -19.050 -22.674  0.00  0.00    -0.171 NA
ATOM      3  C   UNL     1      33.925 -16.812 -22.585  0.00  0.00    +0.090 C 
ATOM      4  C   UNL     1      34.074 -17.328 -21.321  0.00  0.00    +0.122 C 
ATOM      5  C   UNL     1      33.559 -17.916 -23.376  0.00  0.00    +0.124 C 
ENDROOT
BRANCH   1   8
ATOM      6  N   UNL     1      31.738 -21.593 -18.049  0.00  0.00    -0.318 N 
ATOM      7  N   UNL     1      33.683 -22.394 -17.329  0.00  0.00    -0.318 N 
ATOM      8  C   UNL     1      33.819 -19.602 -20.398  0.00  0.00    +0.077 C 
ATOM      9  C   UNL     1      32.694 -20.970 -18.809  0.00  0.00    +0.060 C 
ATOM     10  C   UNL     1      32.612 -20.028 -19.835  0.00  0.00    +0.032 C 
ATOM     11  C   UNL     1      33.899 -21.486 -18.341  0.00  0.00    +0.059 C 
ATOM     12  C   UNL     1      35.043 -20.102 -19.949  0.00  0.00    +0.018 C 
ATOM     13  C   UNL     1      35.102 -21.048 -18.918  0.00  0.00    +0.017 C 
ATOM     14  C   UNL     1      32.377 -22.433 -17.180  0.00  0.00    +0.144 C 
ATOM     15  C   UNL     1      31.624 -23.257 -16.217  0.00  0.00    +0.044 C 
ATOM     16  H   UNL     1      30.765 -21.460 -18.117  0.00  0.00    +0.148 HD
ATOM     17  H   UNL     1      34.358 -22.903 -16.826  0.00  0.00    +0.148 HD
ENDBRANCH   1   8
BRANCH   4  18
ATOM     18  N   UNL     1      34.414 -16.758 -20.144  0.00  0.00    -0.344 N 
ATOM     19  H   UNL     1      34.777 -15.843 -20.127  0.00  0.00    +0.144 HD
ATOM     20  H   UNL     1      34.298 -17.258 -19.304  0.00  0.00    +0.144 HD
ENDBRANCH   4  18
BRANCH   3  22
ATOM     21  O   UNL     1      34.993 -15.176 -23.872  0.00  0.00    -0.285 OA
ATOM     22  C   UNL     1      34.120 -15.373 -22.994  0.00  0.00    +0.213 C 
BRANCH  22  24
ATOM     23  N   UNL     1      32.718 -14.362 -21.233  0.00  0.00    -0.310 N 
ATOM     24  C   UNL     1      33.375 -14.291 -22.432  0.00  0.00    +0.088 C 
ATOM     25  C   UNL     1      32.093 -13.165 -20.962  0.00  0.00    +0.048 C 
ATOM     26  C   UNL     1      32.366 -12.308 -22.030  0.00  0.00    +0.015 C 
ATOM     27  C   UNL     1      33.176 -13.032 -22.950  0.00  0.00    +0.019 C 
ATOM     28  C   UNL     1      31.315 -12.780 -19.865  0.00  0.00    +0.015 C 
ATOM     29  C   UNL     1      31.839 -11.003 -22.004  0.00  0.00    +0.001 C 
ATOM     30  C   UNL     1      30.803 -11.480 -19.861  0.00  0.00    +0.001 C 
ATOM     31  C   UNL     1      31.059 -10.603 -20.913  0.00  0.00    +0.000 C 
ATOM     32  H   UNL     1      32.696 -15.154 -20.648  0.00  0.00    +0.152 HD
ENDBRANCH  22  24
ENDBRANCH   3  22
TORSDOF 4
ENDMDL
MODEL 4
REMARK VINA RESULT:     -11.1      3.158      6.082
REMARK  Name = 66555680
REMARK  4 active torsions:
REMARK  status: ('A' for Active; 'I' for Inactive)
REMARK    1  A    between atoms: N_1  and  C_8
REMARK    2  A    between atoms: C_3  and  C_22
REMARK    3  A    between atoms: C_4  and  N_18
REMARK    4  A    between atoms: C_22  and  C_24
REMARK                            x       y       z     vdW  Elec       q    Type
REMARK                         _______ _______ _______ _____ _____    ______ ____
ROOT
ATOM      1  N   UNL     1      33.248 -14.745 -22.007  0.00  0.00    -0.177 N 
ATOM      2  N   UNL     1      33.290 -15.094 -23.305  0.00  0.00    -0.171 NA
ATOM      3  C   UNL     1      34.349 -16.632 -21.988  0.00  0.00    +0.090 C 
ATOM      4  C   UNL     1      33.868 -15.632 -21.177  0.00  0.00    +0.122 C 
ATOM      5  C   UNL     1      33.963 -16.248 -23.286  0.00  0.00    +0.124 C 
ENDROOT
BRANCH   1   8
ATOM      6  N   UNL     1      32.083  -9.983 -22.491  0.00  0.00    -0.318 N 
ATOM      7  N   UNL     1      30.785  -9.955 -20.687  0.00  0.00    -0.318 N 
ATOM      8  C   UNL     1      32.606 -13.562 -21.636  0.00  0.00    +0.077 C 
ATOM      9  C   UNL     1      32.127 -11.258 -21.988  0.00  0.00    +0.060 C 
ATOM     10  C   UNL     1      32.792 -12.410 -22.408  0.00  0.00    +0.032 C 
ATOM     11  C   UNL     1      31.310 -11.215 -20.863  0.00  0.00    +0.059 C 
ATOM     12  C   UNL     1      31.792 -13.549 -20.501  0.00  0.00    +0.018 C 
ATOM     13  C   UNL     1      31.134 -12.381 -20.098  0.00  0.00    +0.017 C 
ATOM     14  C   UNL     1      31.268  -9.243 -21.680  0.00  0.00    +0.144 C 
ATOM     15  C   UNL     1      31.009  -7.817 -21.951  0.00  0.00    +0.044 C 
ATOM     16  H   UNL     1      32.552  -9.660 -23.294  0.00  0.00    +0.148 HD
ATOM     17  H   UNL     1      30.179  -9.652 -19.972  0.00  0.00    +0.148 HD
ENDBRANCH   1   8
BRANCH   4  18
ATOM     18  N   UNL     1      33.925 -15.445 -19.841  0.00  0.00    -0.344 N 
ATOM     19  H   UNL     1      33.118 -15.179 -19.345  0.00  0.00    +0.144 HD
ATOM     20  H   UNL     1      34.776 -15.574 -19.362  0.00  0.00    +0.144 HD
ENDBRANCH   4  18
BRANCH   3  22
ATOM     21  O   UNL     1      36.283 -17.947 -21.989  0.00  0.00    -0.285 OA
ATOM     22  C   UNL     1      35.114 -17.854 -21.546  0.00  0.00    +0.213 C 
BRANCH  22  24
ATOM     23  N   UNL     1      35.319 -19.635 -19.851  0.00  0.00    -0.310 N 
ATOM     24  C   UNL     1      34.566 -18.852 -20.684  0.00  0.00    +0.088 C 
ATOM     25  C   UNL     1      34.509 -20.499 -19.150  0.00  0.00    +0.048 C 
ATOM     26  C   UNL     1      33.195 -20.252 -19.555  0.00  0.00    +0.015 C 
ATOM     27  C   UNL     1      33.247 -19.210 -20.523  0.00  0.00    +0.019 C 
ATOM     28  C   UNL     1      34.834 -21.471 -18.197  0.00  0.00    +0.015 C 
ATOM     29  C   UNL     1      32.155 -21.009 -18.983  0.00  0.00    +0.001 C 
ATOM     30  C   UNL     1      33.786 -22.210 -17.643  0.00  0.00    +0.001 C 
ATOM     31  C   UNL     1      32.466 -21.985 -18.029  0.00  0.00    +0.000 C 
ATOM     32  H   UNL     1      36.299 -19.587 -19.767  0.00  0.00    +0.152 HD
ENDBRANCH  22  24
ENDBRANCH   3  22
TORSDOF 4
ENDMDL
MODEL 5
REMARK VINA RESULT:     -10.9      2.858      5.563
REMARK  Name = 66555680
REMARK  4 active torsions:
REMARK  status: ('A' for Active; 'I' for Inactive)
REMARK    1  A    between atoms: N_1  and  C_8
REMARK    2  A    between atoms: C_3  and  C_22
REMARK    3  A    between atoms: C_4  and  N_18
REMARK    4  A    between atoms: C_22  and  C_24
REMARK                            x       y       z     vdW  Elec       q    Type
REMARK                         _______ _______ _______ _____ _____    ______ ____
ROOT
ATOM      1  N   UNL     1      33.719 -14.927 -22.180  0.00  0.00    -0.177 N 
ATOM      2  N   UNL     1      33.576 -14.846 -20.846  0.00  0.00    -0.171 NA
ATOM      3  C   UNL     1      34.376 -16.889 -21.481  0.00  0.00    +0.090 C 
ATOM      4  C   UNL     1      34.195 -16.130 -22.612  0.00  0.00    +0.122 C 
ATOM      5  C   UNL     1      33.980 -16.048 -20.424  0.00  0.00    +0.124 C 
ENDROOT
BRANCH   1   8
ATOM      6  N   UNL     1      33.315 -10.117 -23.162  0.00  0.00    -0.318 N 
ATOM      7  N   UNL     1      32.452 -10.442 -25.185  0.00  0.00    -0.318 N 
ATOM      8  C   UNL     1      33.385 -13.828 -22.973  0.00  0.00    +0.077 C 
ATOM      9  C   UNL     1      33.245 -11.478 -23.316  0.00  0.00    +0.060 C 
ATOM     10  C   UNL     1      33.599 -12.537 -22.480  0.00  0.00    +0.032 C 
ATOM     11  C   UNL     1      32.704 -11.655 -24.586  0.00  0.00    +0.059 C 
ATOM     12  C   UNL     1      32.843 -14.037 -24.243  0.00  0.00    +0.018 C 
ATOM     13  C   UNL     1      32.495 -12.959 -25.066  0.00  0.00    +0.017 C 
ATOM     14  C   UNL     1      32.830  -9.542 -24.304  0.00  0.00    +0.144 C 
ATOM     15  C   UNL     1      32.769  -8.077 -24.458  0.00  0.00    +0.044 C 
ATOM     16  H   UNL     1      33.654  -9.640 -22.371  0.00  0.00    +0.148 HD
ATOM     17  H   UNL     1      32.071 -10.282 -26.079  0.00  0.00    +0.148 HD
ENDBRANCH   1   8
BRANCH   4  18
ATOM     18  N   UNL     1      34.402 -16.393 -23.920  0.00  0.00    -0.344 N 
ATOM     19  H   UNL     1      33.690 -16.806 -24.459  0.00  0.00    +0.144 HD
ATOM     20  H   UNL     1      35.267 -16.170 -24.335  0.00  0.00    +0.144 HD
ENDBRANCH   4  18
BRANCH   3  22
ATOM     21  O   UNL     1      35.752 -18.601 -22.285  0.00  0.00    -0.285 OA
ATOM     22  C   UNL     1      34.890 -18.306 -21.425  0.00  0.00    +0.213 C 
BRANCH  22  24
ATOM     23  N   UNL     1      35.263 -19.902 -19.581  0.00  0.00    -0.310 N 
ATOM     24  C   UNL     1      34.437 -19.266 -20.469  0.00  0.00    +0.088 C 
ATOM     25  C   UNL     1      34.537 -20.767 -18.793  0.00  0.00    +0.048 C 
ATOM     26  C   UNL     1      33.204 -20.673 -19.199  0.00  0.00    +0.015 C 
ATOM     27  C   UNL     1      33.156 -19.722 -20.258  0.00  0.00    +0.019 C 
ATOM     28  C   UNL     1      34.953 -21.617 -17.763  0.00  0.00    +0.015 C 
ATOM     29  C   UNL     1      32.238 -21.463 -18.546  0.00  0.00    +0.001 C 
ATOM     30  C   UNL     1      33.978 -22.392 -17.130  0.00  0.00    +0.001 C 
ATOM     31  C   UNL     1      32.640 -22.318 -17.514  0.00  0.00    +0.000 C 
ATOM     32  H   UNL     1      36.235 -19.762 -19.516  0.00  0.00    +0.152 HD
ENDBRANCH  22  24
ENDBRANCH   3  22
TORSDOF 4
ENDMDL
MODEL 6
REMARK VINA RESULT:     -10.8      1.820      9.607
REMARK  Name = 66555680
REMARK  4 active torsions:
REMARK  status: ('A' for Active; 'I' for Inactive)
REMARK    1  A    between atoms: N_1  and  C_8
REMARK    2  A    between atoms: C_3  and  C_22
REMARK    3  A    between atoms: C_4  and  N_18
REMARK    4  A    between atoms: C_22  and  C_24
REMARK                            x       y       z     vdW  Elec       q    Type
REMARK                         _______ _______ _______ _____ _____    ______ ____
ROOT
ATOM      1  N   UNL     1      33.542 -20.568 -19.187  0.00  0.00    -0.177 N 
ATOM      2  N   UNL     1      32.383 -20.346 -19.831  0.00  0.00    -0.171 NA
ATOM      3  C   UNL     1      34.112 -19.215 -20.804  0.00  0.00    +0.090 C 
ATOM      4  C   UNL     1      34.608 -19.913 -19.730  0.00  0.00    +0.122 C 
ATOM      5  C   UNL     1      32.738 -19.519 -20.818  0.00  0.00    +0.124 C 
ENDROOT
BRANCH   1   8
ATOM      6  N   UNL     1      35.625 -22.715 -15.274  0.00  0.00    -0.318 N 
ATOM      7  N   UNL     1      33.795 -23.852 -14.725  0.00  0.00    -0.318 N 
ATOM      8  C   UNL     1      33.557 -21.407 -18.071  0.00  0.00    +0.077 C 
ATOM      9  C   UNL     1      34.686 -22.373 -16.212  0.00  0.00    +0.060 C 
ATOM     10  C   UNL     1      34.729 -21.519 -17.315  0.00  0.00    +0.032 C 
ATOM     11  C   UNL     1      33.553 -23.095 -15.848  0.00  0.00    +0.059 C 
ATOM     12  C   UNL     1      32.405 -22.120 -17.731  0.00  0.00    +0.018 C 
ATOM     13  C   UNL     1      32.385 -22.971 -16.619  0.00  0.00    +0.017 C 
ATOM     14  C   UNL     1      35.045 -23.600 -14.407  0.00  0.00    +0.144 C 
ATOM     15  C   UNL     1      35.798 -24.165 -13.272  0.00  0.00    +0.044 C 
ATOM     16  H   UNL     1      36.551 -22.382 -15.230  0.00  0.00    +0.148 HD
ATOM     17  H   UNL     1      33.168 -24.452 -14.260  0.00  0.00    +0.148 HD
ENDBRANCH   1   8
BRANCH   4  18
ATOM     18  N   UNL     1      35.853 -20.018 -19.216  0.00  0.00    -0.344 N 
ATOM     19  H   UNL     1      35.981 -20.068 -18.241  0.00  0.00    +0.144 HD
ATOM     20  H   UNL     1      36.633 -20.044 -19.816  0.00  0.00    +0.144 HD
ENDBRANCH   4  18
BRANCH   3  22
ATOM     21  O   UNL     1      36.077 -18.693 -21.960  0.00  0.00    -0.285 OA
ATOM     22  C   UNL     1      34.898 -18.330 -21.738  0.00  0.00    +0.213 C 
BRANCH  22  24
ATOM     23  N   UNL     1      34.327 -15.930 -21.723  0.00  0.00    -0.310 N 
ATOM     24  C   UNL     1      34.359 -17.152 -22.340  0.00  0.00    +0.088 C 
ATOM     25  C   UNL     1      33.748 -14.995 -22.553  0.00  0.00    +0.048 C 
ATOM     26  C   UNL     1      33.404 -15.652 -23.736  0.00  0.00    +0.015 C 
ATOM     27  C   UNL     1      33.795 -17.013 -23.587  0.00  0.00    +0.019 C 
ATOM     28  C   UNL     1      33.506 -13.632 -22.348  0.00  0.00    +0.015 C 
ATOM     29  C   UNL     1      32.788 -14.915 -24.766  0.00  0.00    +0.001 C 
ATOM     30  C   UNL     1      32.895 -12.921 -23.384  0.00  0.00    +0.001 C 
ATOM     31  C   UNL     1      32.540 -13.551 -24.576  0.00  0.00    +0.000 C 
ATOM     32  H   UNL     1      34.667 -15.746 -20.818  0.00  0.00    +0.152 HD
ENDBRANCH  22  24
ENDBRANCH   3  22
TORSDOF 4
ENDMDL
MODEL 7
REMARK VINA RESULT:     -10.7      3.576      6.816
REMARK  Name = 66555680
REMARK  4 active torsions:
REMARK  status: ('A' for Active; 'I' for Inactive)
REMARK    1  A    between atoms: N_1  and  C_8
REMARK    2  A    between atoms: C_3  and  C_22
REMARK    3  A    between atoms: C_4  and  N_18
REMARK    4  A    between atoms: C_22  and  C_24
REMARK                            x       y       z     vdW  Elec       q    Type
REMARK                         _______ _______ _______ _____ _____    ______ ____
ROOT
ATOM      1  N   UNL     1      33.284 -13.545 -21.865  0.00  0.00    -0.177 N 
ATOM      2  N   UNL     1      33.484 -13.803 -20.561  0.00  0.00    -0.171 NA
ATOM      3  C   UNL     1      33.801 -15.667 -21.842  0.00  0.00    +0.090 C 
ATOM      4  C   UNL     1      33.461 -14.628 -22.675  0.00  0.00    +0.122 C 
ATOM      5  C   UNL     1      33.800 -15.101 -20.553  0.00  0.00    +0.124 C 
ENDROOT
BRANCH   1   8
ATOM      6  N   UNL     1      30.862  -9.277 -21.444  0.00  0.00    -0.318 N 
ATOM      7  N   UNL     1      31.752  -8.408 -23.287  0.00  0.00    -0.318 N 
ATOM      8  C   UNL     1      32.929 -12.255 -22.262  0.00  0.00    +0.077 C 
ATOM      9  C   UNL     1      31.698 -10.245 -21.938  0.00  0.00    +0.060 C 
ATOM     10  C   UNL     1      32.015 -11.528 -21.492  0.00  0.00    +0.032 C 
ATOM     11  C   UNL     1      32.241  -9.679 -23.088  0.00  0.00    +0.059 C 
ATOM     12  C   UNL     1      33.491 -11.713 -23.421  0.00  0.00    +0.018 C 
ATOM     13  C   UNL     1      33.158 -10.423 -23.850  0.00  0.00    +0.017 C 
ATOM     14  C   UNL     1      30.929  -8.199 -22.284  0.00  0.00    +0.144 C 
ATOM     15  C   UNL     1      30.140  -6.980 -22.029  0.00  0.00    +0.044 C 
ATOM     16  H   UNL     1      30.312  -9.345 -20.630  0.00  0.00    +0.148 HD
ATOM     17  H   UNL     1      31.971  -7.790 -24.021  0.00  0.00    +0.148 HD
ENDBRANCH   1   8
BRANCH   4  18
ATOM     18  N   UNL     1      33.303 -14.557 -24.014  0.00  0.00    -0.344 N 
ATOM     19  H   UNL     1      32.656 -15.145 -24.466  0.00  0.00    +0.144 HD
ATOM     20  H   UNL     1      33.836 -13.917 -24.539  0.00  0.00    +0.144 HD
ENDBRANCH   4  18
BRANCH   3  22
ATOM     21  O   UNL     1      34.329 -17.254 -23.477  0.00  0.00    -0.285 OA
ATOM     22  C   UNL     1      34.102 -17.086 -22.256  0.00  0.00    +0.213 C 
BRANCH  22  24
ATOM     23  N   UNL     1      33.009 -18.832 -20.897  0.00  0.00    -0.310 N 
ATOM     24  C   UNL     1      34.130 -18.180 -21.338  0.00  0.00    +0.088 C 
ATOM     25  C   UNL     1      33.358 -19.837 -20.022  0.00  0.00    +0.048 C 
ATOM     26  C   UNL     1      34.749 -19.818 -19.908  0.00  0.00    +0.015 C 
ATOM     27  C   UNL     1      35.223 -18.767 -20.744  0.00  0.00    +0.019 C 
ATOM     28  C   UNL     1      32.556 -20.751 -19.331  0.00  0.00    +0.015 C 
ATOM     29  C   UNL     1      35.373 -20.757 -19.064  0.00  0.00    +0.001 C 
ATOM     30  C   UNL     1      33.196 -21.674 -18.500  0.00  0.00    +0.001 C 
ATOM     31  C   UNL     1      34.584 -21.679 -18.367  0.00  0.00    +0.000 C 
ATOM     32  H   UNL     1      32.088 -18.613 -21.166  0.00  0.00    +0.152 HD
ENDBRANCH  22  24
ENDBRANCH   3  22
TORSDOF 4
ENDMDL
MODEL 8
REMARK VINA RESULT:     -10.6      2.757      9.734
REMARK  Name = 66555680
REMARK  4 active torsions:
REMARK  status: ('A' for Active; 'I' for Inactive)
REMARK    1  A    between atoms: N_1  and  C_8
REMARK    2  A    between atoms: C_3  and  C_22
REMARK    3  A    between atoms: C_4  and  N_18
REMARK    4  A    between atoms: C_22  and  C_24
REMARK                            x       y       z     vdW  Elec       q    Type
REMARK                         _______ _______ _______ _____ _____    ______ ____
ROOT
ATOM      1  N   UNL     1      34.485 -19.398 -20.547  0.00  0.00    -0.177 N 
ATOM      2  N   UNL     1      35.716 -18.879 -20.696  0.00  0.00    -0.171 NA
ATOM      3  C   UNL     1      34.295 -18.147 -22.327  0.00  0.00    +0.090 C 
ATOM      4  C   UNL     1      33.596 -18.991 -21.498  0.00  0.00    +0.122 C 
ATOM      5  C   UNL     1      35.593 -18.115 -21.785  0.00  0.00    +0.124 C 
ENDROOT
BRANCH   1   8
ATOM      6  N   UNL     1      31.585 -22.002 -17.535  0.00  0.00    -0.318 N 
ATOM      7  N   UNL     1      33.281 -22.833 -16.363  0.00  0.00    -0.318 N 
ATOM      8  C   UNL     1      34.231 -20.268 -19.484  0.00  0.00    +0.077 C 
ATOM      9  C   UNL     1      32.716 -21.474 -18.103  0.00  0.00    +0.060 C 
ATOM     10  C   UNL     1      32.909 -20.602 -19.174  0.00  0.00    +0.032 C 
ATOM     11  C   UNL     1      33.760 -22.007 -17.354  0.00  0.00    +0.059 C 
ATOM     12  C   UNL     1      35.300 -20.787 -18.751  0.00  0.00    +0.018 C 
ATOM     13  C   UNL     1      35.083 -21.661 -17.679  0.00  0.00    +0.017 C 
ATOM     14  C   UNL     1      31.974 -22.807 -16.501  0.00  0.00    +0.144 C 
ATOM     15  C   UNL     1      30.986 -23.530 -15.679  0.00  0.00    +0.044 C 
ATOM     16  H   UNL     1      30.658 -21.833 -17.822  0.00  0.00    +0.148 HD
ATOM     17  H   UNL     1      33.803 -23.334 -15.695  0.00  0.00    +0.148 HD
ENDBRANCH   1   8
BRANCH   4  18
ATOM     18  N   UNL     1      32.312 -19.411 -21.507  0.00  0.00    -0.344 N 
ATOM     19  H   UNL     1      31.863 -19.604 -22.361  0.00  0.00    +0.144 HD
ATOM     20  H   UNL     1      31.826 -19.523 -20.659  0.00  0.00    +0.144 HD
ENDBRANCH   4  18
BRANCH   3  22
ATOM     21  O   UNL     1      33.471 -18.163 -24.517  0.00  0.00    -0.285 OA
ATOM     22  C   UNL     1      33.753 -17.431 -23.539  0.00  0.00    +0.213 C 
BRANCH  22  24
ATOM     23  N   UNL     1      33.153 -15.346 -24.715  0.00  0.00    -0.310 N 
ATOM     24  C   UNL     1      33.567 -16.016 -23.594  0.00  0.00    +0.088 C 
ATOM     25  C   UNL     1      33.069 -13.996 -24.457  0.00  0.00    +0.048 C 
ATOM     26  C   UNL     1      33.444 -13.807 -23.125  0.00  0.00    +0.015 C 
ATOM     27  C   UNL     1      33.755 -15.091 -22.593  0.00  0.00    +0.019 C 
ATOM     28  C   UNL     1      32.694 -12.938 -25.292  0.00  0.00    +0.015 C 
ATOM     29  C   UNL     1      33.444 -12.501 -22.599  0.00  0.00    +0.001 C 
ATOM     30  C   UNL     1      32.702 -11.651 -24.749  0.00  0.00    +0.001 C 
ATOM     31  C   UNL     1      33.071 -11.433 -23.423  0.00  0.00    +0.000 C 
ATOM     32  H   UNL     1      32.946 -15.769 -25.579  0.00  0.00    +0.152 HD
ENDBRANCH  22  24
ENDBRANCH   3  22
TORSDOF 4
ENDMDL
MODEL 9
REMARK VINA RESULT:     -10.6      5.928     10.131
REMARK  Name = 66555680
REMARK  4 active torsions:
REMARK  status: ('A' for Active; 'I' for Inactive)
REMARK    1  A    between atoms: N_1  and  C_8
REMARK    2  A    between atoms: C_3  and  C_22
REMARK    3  A    between atoms: C_4  and  N_18
REMARK    4  A    between atoms: C_22  and  C_24
REMARK                            x       y       z     vdW  Elec       q    Type
REMARK                         _______ _______ _______ _____ _____    ______ ____
ROOT
ATOM      1  N   UNL     1      32.767 -10.735 -23.146  0.00  0.00    -0.177 N 
ATOM      2  N   UNL     1      32.276 -11.321 -22.040  0.00  0.00    -0.171 NA
ATOM      3  C   UNL     1      32.835 -12.864 -23.628  0.00  0.00    +0.090 C 
ATOM      4  C   UNL     1      33.117 -11.615 -24.127  0.00  0.00    +0.122 C 
ATOM      5  C   UNL     1      32.321 -12.622 -22.341  0.00  0.00    +0.124 C 
ENDROOT
BRANCH   1   8
ATOM      6  N   UNL     1      30.985  -6.143 -23.134  0.00  0.00    -0.318 N 
ATOM      7  N   UNL     1      32.987  -5.197 -23.330  0.00  0.00    -0.318 N 
ATOM      8  C   UNL     1      32.873  -9.343 -23.196  0.00  0.00    +0.077 C 
ATOM      9  C   UNL     1      31.879  -7.182 -23.177  0.00  0.00    +0.060 C 
ATOM     10  C   UNL     1      31.712  -8.566 -23.121  0.00  0.00    +0.032 C 
ATOM     11  C   UNL     1      33.120  -6.566 -23.300  0.00  0.00    +0.059 C 
ATOM     12  C   UNL     1      34.132  -8.754 -23.320  0.00  0.00    +0.018 C 
ATOM     13  C   UNL     1      34.276  -7.362 -23.374  0.00  0.00    +0.017 C 
ATOM     14  C   UNL     1      31.695  -4.978 -23.228  0.00  0.00    +0.144 C 
ATOM     15  C   UNL     1      31.021  -3.667 -23.211  0.00  0.00    +0.044 C 
ATOM     16  H   UNL     1      30.008  -6.221 -23.048  0.00  0.00    +0.148 HD
ATOM     17  H   UNL     1      33.704  -4.526 -23.411  0.00  0.00    +0.148 HD
ENDBRANCH   1   8
BRANCH   4  18
ATOM     18  N   UNL     1      33.628 -11.207 -25.309  0.00  0.00    -0.344 N 
ATOM     19  H   UNL     1      33.028 -11.007 -26.063  0.00  0.00    +0.144 HD
ATOM     20  H   UNL     1      34.602 -11.110 -25.416  0.00  0.00    +0.144 HD
ENDBRANCH   4  18
BRANCH   3  22
ATOM     21  O   UNL     1      32.902 -14.152 -25.580  0.00  0.00    -0.285 OA
ATOM     22  C   UNL     1      33.045 -14.180 -24.335  0.00  0.00    +0.213 C 
BRANCH  22  24
ATOM     23  N   UNL     1      33.917 -15.428 -22.393  0.00  0.00    -0.310 N 
ATOM     24  C   UNL     1      33.384 -15.389 -23.654  0.00  0.00    +0.088 C 
ATOM     25  C   UNL     1      34.136 -16.733 -22.010  0.00  0.00    +0.048 C 
ATOM     26  C   UNL     1      33.726 -17.546 -23.069  0.00  0.00    +0.015 C 
ATOM     27  C   UNL     1      33.254 -16.684 -24.100  0.00  0.00    +0.019 C 
ATOM     28  C   UNL     1      34.659 -17.249 -20.821  0.00  0.00    +0.015 C 
ATOM     29  C   UNL     1      33.843 -18.943 -22.936  0.00  0.00    +0.001 C 
ATOM     30  C   UNL     1      34.766 -18.638 -20.711  0.00  0.00    +0.001 C 
ATOM     31  C   UNL     1      34.365 -19.474 -21.751  0.00  0.00    +0.000 C 
ATOM     32  H   UNL     1      34.115 -14.638 -21.841  0.00  0.00    +0.152 HD
ENDBRANCH  22  24
ENDBRANCH   3  22
TORSDOF 4
ENDMDL
