MODEL 1
REMARK VINA RESULT:     -12.1      0.000      0.000
REMARK  Name = 25058128
REMARK  13 active torsions:
REMARK  status: ('A' for Active; 'I' for Inactive)
REMARK    1  A    between atoms: C_1  and  S_11
REMARK    2  A    between atoms: C_9  and  O_27
REMARK    3  A    between atoms: S_11  and  N_14
REMARK    4  A    between atoms: N_14  and  C_16
REMARK    5  A    between atoms: C_16  and  C_18
REMARK    6  A    between atoms: C_16  and  C_21
REMARK    7  A    between atoms: C_18  and  O_19
REMARK    8  A    between atoms: C_21  and  C_22
REMARK    9  A    between atoms: C_22  and  C_24
REMARK   10  A    between atoms: C_24  and  O_25
REMARK   11  A    between atoms: O_27  and  C_28
REMARK   12  A    between atoms: C_28  and  C_30
REMARK   13  A    between atoms: C_35  and  C_37
REMARK                            x       y       z     vdW  Elec       q    Type
REMARK                         _______ _______ _______ _____ _____    ______ ____
ROOT
ATOM      1  C   UNL     1      35.182 -22.461 -15.971  0.00  0.00    +0.122 C 
ATOM      2  C   UNL     1      33.707 -21.629 -17.717  0.00  0.00    +0.002 C 
ATOM      3  C   UNL     1      33.911 -22.362 -16.536  0.00  0.00    +0.020 C 
ATOM      4  C   UNL     1      34.809 -20.988 -18.332  0.00  0.00    +0.003 C 
ATOM      5  C   UNL     1      36.265 -21.830 -16.575  0.00  0.00    +0.020 C 
ATOM      6  C   UNL     1      36.081 -21.098 -17.748  0.00  0.00    +0.001 C 
ATOM      7  C   UNL     1      34.605 -20.254 -19.512  0.00  0.00    +0.037 C 
ATOM      8  C   UNL     1      32.434 -21.519 -18.301  0.00  0.00    +0.003 C 
ATOM      9  C   UNL     1      33.333 -20.155 -20.078  0.00  0.00    +0.139 C 
ATOM     10  C   UNL     1      32.250 -20.786 -19.474  0.00  0.00    +0.037 C 
ENDROOT
BRANCH   1  11
ATOM     11  S   UNL     1      35.417 -23.389 -14.484  0.00  0.00    +0.061 S 
ATOM     12  O   UNL     1      35.004 -22.559 -13.369  0.00  0.00    -0.153 OA
ATOM     13  O   UNL     1      34.805 -24.687 -14.695  0.00  0.00    -0.153 OA
BRANCH  11  14
ATOM     14  N   UNL     1      37.106 -23.576 -14.453  0.00  0.00    -0.170 NA
ATOM     15  H   UNL     1      37.487 -22.744 -14.002  0.00  0.00    +0.149 HD
BRANCH  14  16
ATOM     16  C   UNL     1      37.708 -24.744 -13.773  0.00  0.00    +0.174 C 
BRANCH  16  18
ATOM     17  O   UNL     1      40.113 -24.400 -13.672  0.00  0.00    -0.249 OA
ATOM     18  C   UNL     1      39.137 -24.873 -14.241  0.00  0.00    +0.330 C 
BRANCH  18  19
ATOM     19  O   UNL     1      39.240 -25.605 -15.381  0.00  0.00    -0.479 OA
ATOM     20  H   UNL     1      38.467 -25.868 -15.840  0.00  0.00    +0.295 HD
ENDBRANCH  18  19
ENDBRANCH  16  18
BRANCH  16  21
ATOM     21  C   UNL     1      37.542 -24.625 -12.254  0.00  0.00    +0.040 C 
BRANCH  21  22
ATOM     22  C   UNL     1      36.483 -25.525 -11.611  0.00  0.00    +0.111 C 
BRANCH  22  24
ATOM     23  O   UNL     1      35.607 -24.205  -9.787  0.00  0.00    -0.250 OA
ATOM     24  C   UNL     1      35.417 -24.770 -10.857  0.00  0.00    +0.314 C 
BRANCH  24  25
ATOM     25  O   UNL     1      34.213 -24.796 -11.480  0.00  0.00    -0.480 OA
ATOM     26  H   UNL     1      34.004 -25.498 -12.065  0.00  0.00    +0.295 HD
ENDBRANCH  24  25
ENDBRANCH  22  24
ENDBRANCH  21  22
ENDBRANCH  16  21
ENDBRANCH  14  16
ENDBRANCH  11  14
ENDBRANCH   1  11
BRANCH   9  27
ATOM     27  O   UNL     1      33.152 -19.440 -21.222  0.00  0.00    -0.471 OA
BRANCH  27  28
ATOM     28  C   UNL     1      34.319 -18.911 -21.849  0.00  0.00    +0.234 C 
BRANCH  28  30
ATOM     29  F   UNL     1      34.399 -16.804 -19.961  0.00  0.00    -0.204 F 
ATOM     30  C   UNL     1      34.072 -17.477 -22.213  0.00  0.00    +0.049 C 
ATOM     31  C   UNL     1      34.125 -16.485 -21.233  0.00  0.00    +0.140 C 
ATOM     32  C   UNL     1      33.787 -17.135 -23.536  0.00  0.00    +0.002 C 
ATOM     33  C   UNL     1      33.894 -15.153 -21.576  0.00  0.00    +0.040 C 
ATOM     34  C   UNL     1      33.556 -15.802 -23.878  0.00  0.00    +0.010 C 
ATOM     35  C   UNL     1      33.609 -14.811 -22.898  0.00  0.00    +0.071 C 
BRANCH  35  37
ATOM     36  N   UNL     1      33.185 -12.337 -23.534  0.00  0.00    -0.191 NA
ATOM     37  C   UNL     1      33.375 -13.446 -23.249  0.00  0.00    +0.100 C 
ENDBRANCH  35  37
ENDBRANCH  28  30
ENDBRANCH  27  28
ENDBRANCH   9  27
TORSDOF 13
ENDMDL
MODEL 2
REMARK VINA RESULT:     -11.7      1.100      1.844
REMARK  Name = 25058128
REMARK  13 active torsions:
REMARK  status: ('A' for Active; 'I' for Inactive)
REMARK    1  A    between atoms: C_1  and  S_11
REMARK    2  A    between atoms: C_9  and  O_27
REMARK    3  A    between atoms: S_11  and  N_14
REMARK    4  A    between atoms: N_14  and  C_16
REMARK    5  A    between atoms: C_16  and  C_18
REMARK    6  A    between atoms: C_16  and  C_21
REMARK    7  A    between atoms: C_18  and  O_19
REMARK    8  A    between atoms: C_21  and  C_22
REMARK    9  A    between atoms: C_22  and  C_24
REMARK   10  A    between atoms: C_24  and  O_25
REMARK   11  A    between atoms: O_27  and  C_28
REMARK   12  A    between atoms: C_28  and  C_30
REMARK   13  A    between atoms: C_35  and  C_37
REMARK                            x       y       z     vdW  Elec       q    Type
REMARK                         _______ _______ _______ _____ _____    ______ ____
ROOT
ATOM      1  C   UNL     1      33.524 -23.086 -15.773  0.00  0.00    +0.122 C 
ATOM      2  C   UNL     1      34.263 -21.710 -17.637  0.00  0.00    +0.002 C 
ATOM      3  C   UNL     1      34.549 -22.477 -16.496  0.00  0.00    +0.020 C 
ATOM      4  C   UNL     1      32.917 -21.561 -18.051  0.00  0.00    +0.003 C 
ATOM      5  C   UNL     1      32.202 -22.940 -16.179  0.00  0.00    +0.020 C 
ATOM      6  C   UNL     1      31.898 -22.183 -17.311  0.00  0.00    +0.001 C 
ATOM      7  C   UNL     1      32.630 -20.795 -19.193  0.00  0.00    +0.037 C 
ATOM      8  C   UNL     1      35.281 -21.088 -18.378  0.00  0.00    +0.003 C 
ATOM      9  C   UNL     1      33.655 -20.185 -19.916  0.00  0.00    +0.139 C 
ATOM     10  C   UNL     1      34.978 -20.331 -19.509  0.00  0.00    +0.037 C 
ENDROOT
BRANCH   1  11
ATOM     11  S   UNL     1      33.906 -24.047 -14.338  0.00  0.00    +0.061 S 
ATOM     12  O   UNL     1      32.902 -23.767 -13.332  0.00  0.00    -0.153 OA
ATOM     13  O   UNL     1      34.130 -25.408 -14.789  0.00  0.00    -0.153 OA
BRANCH  11  14
ATOM     14  N   UNL     1      35.392 -23.377 -13.855  0.00  0.00    -0.170 NA
ATOM     15  H   UNL     1      35.175 -22.567 -13.274  0.00  0.00    +0.149 HD
BRANCH  14  16
ATOM     16  C   UNL     1      36.361 -24.199 -13.097  0.00  0.00    +0.174 C 
BRANCH  16  18
ATOM     17  O   UNL     1      38.478 -23.954 -14.269  0.00  0.00    -0.249 OA
ATOM     18  C   UNL     1      37.467 -24.606 -14.040  0.00  0.00    +0.330 C 
BRANCH  18  19
ATOM     19  O   UNL     1      37.233 -25.816 -14.611  0.00  0.00    -0.479 OA
ATOM     20  H   UNL     1      37.878 -26.494 -14.556  0.00  0.00    +0.295 HD
ENDBRANCH  18  19
ENDBRANCH  16  18
BRANCH  16  21
ATOM     21  C   UNL     1      36.834 -23.451 -11.844  0.00  0.00    +0.040 C 
BRANCH  21  22
ATOM     22  C   UNL     1      35.740 -22.876 -10.941  0.00  0.00    +0.111 C 
BRANCH  22  24
ATOM     23  O   UNL     1      34.261 -24.731 -10.485  0.00  0.00    -0.250 OA
ATOM     24  C   UNL     1      35.064 -23.904 -10.070  0.00  0.00    +0.314 C 
BRANCH  24  25
ATOM     25  O   UNL     1      35.424 -23.809  -8.766  0.00  0.00    -0.480 OA
ATOM     26  H   UNL     1      34.977 -24.319  -8.118  0.00  0.00    +0.295 HD
ENDBRANCH  24  25
ENDBRANCH  22  24
ENDBRANCH  21  22
ENDBRANCH  16  21
ENDBRANCH  14  16
ENDBRANCH  11  14
ENDBRANCH   1  11
BRANCH   9  27
ATOM     27  O   UNL     1      33.362 -19.447 -21.021  0.00  0.00    -0.471 OA
BRANCH  27  28
ATOM     28  C   UNL     1      34.461 -18.925 -21.766  0.00  0.00    +0.234 C 
BRANCH  28  30
ATOM     29  F   UNL     1      34.466 -16.750 -19.954  0.00  0.00    -0.204 F 
ATOM     30  C   UNL     1      34.150 -17.517 -22.178  0.00  0.00    +0.049 C 
ATOM     31  C   UNL     1      34.169 -16.490 -21.235  0.00  0.00    +0.140 C 
ATOM     32  C   UNL     1      33.841 -17.236 -23.509  0.00  0.00    +0.002 C 
ATOM     33  C   UNL     1      33.879 -15.182 -21.623  0.00  0.00    +0.040 C 
ATOM     34  C   UNL     1      33.551 -15.927 -23.897  0.00  0.00    +0.010 C 
ATOM     35  C   UNL     1      33.569 -14.900 -22.953  0.00  0.00    +0.071 C 
BRANCH  35  37
ATOM     36  N   UNL     1      33.035 -12.471 -23.673  0.00  0.00    -0.191 NA
ATOM     37  C   UNL     1      33.274 -13.560 -23.350  0.00  0.00    +0.100 C 
ENDBRANCH  35  37
ENDBRANCH  28  30
ENDBRANCH  27  28
ENDBRANCH   9  27
TORSDOF 13
ENDMDL
MODEL 3
REMARK VINA RESULT:     -11.5      1.277      2.829
REMARK  Name = 25058128
REMARK  13 active torsions:
REMARK  status: ('A' for Active; 'I' for Inactive)
REMARK    1  A    between atoms: C_1  and  S_11
REMARK    2  A    between atoms: C_9  and  O_27
REMARK    3  A    between atoms: S_11  and  N_14
REMARK    4  A    between atoms: N_14  and  C_16
REMARK    5  A    between atoms: C_16  and  C_18
REMARK    6  A    between atoms: C_16  and  C_21
REMARK    7  A    between atoms: C_18  and  O_19
REMARK    8  A    between atoms: C_21  and  C_22
REMARK    9  A    between atoms: C_22  and  C_24
REMARK   10  A    between atoms: C_24  and  O_25
REMARK   11  A    between atoms: O_27  and  C_28
REMARK   12  A    between atoms: C_28  and  C_30
REMARK   13  A    between atoms: C_35  and  C_37
REMARK                            x       y       z     vdW  Elec       q    Type
REMARK                         _______ _______ _______ _____ _____    ______ ____
ROOT
ATOM      1  C   UNL     1      34.604 -22.980 -14.985  0.00  0.00    +0.122 C 
ATOM      2  C   UNL     1      33.618 -22.097 -17.026  0.00  0.00    +0.002 C 
ATOM      3  C   UNL     1      33.500 -22.805 -15.818  0.00  0.00    +0.020 C 
ATOM      4  C   UNL     1      34.876 -21.560 -17.392  0.00  0.00    +0.003 C 
ATOM      5  C   UNL     1      35.840 -22.451 -15.345  0.00  0.00    +0.020 C 
ATOM      6  C   UNL     1      35.976 -21.745 -16.540  0.00  0.00    +0.001 C 
ATOM      7  C   UNL     1      34.995 -20.852 -18.599  0.00  0.00    +0.037 C 
ATOM      8  C   UNL     1      32.518 -21.911 -17.878  0.00  0.00    +0.003 C 
ATOM      9  C   UNL     1      33.890 -20.677 -19.434  0.00  0.00    +0.139 C 
ATOM     10  C   UNL     1      32.654 -21.205 -19.074  0.00  0.00    +0.037 C 
ENDROOT
BRANCH   1  11
ATOM     11  S   UNL     1      34.434 -23.874 -13.469  0.00  0.00    +0.061 S 
ATOM     12  O   UNL     1      33.078 -23.688 -12.991  0.00  0.00    -0.153 OA
ATOM     13  O   UNL     1      34.949 -25.208 -13.706  0.00  0.00    -0.153 OA
BRANCH  11  14
ATOM     14  N   UNL     1      35.510 -23.042 -12.450  0.00  0.00    -0.170 NA
ATOM     15  H   UNL     1      34.970 -22.317 -11.978  0.00  0.00    +0.149 HD
BRANCH  14  16
ATOM     16  C   UNL     1      36.250 -23.776 -11.400  0.00  0.00    +0.174 C 
BRANCH  16  18
ATOM     17  O   UNL     1      35.383 -23.739  -9.128  0.00  0.00    -0.249 OA
ATOM     18  C   UNL     1      35.282 -24.110 -10.291  0.00  0.00    +0.330 C 
BRANCH  18  19
ATOM     19  O   UNL     1      34.244 -24.869 -10.729  0.00  0.00    -0.479 OA
ATOM     20  H   UNL     1      33.366 -24.646 -10.488  0.00  0.00    +0.295 HD
ENDBRANCH  18  19
ENDBRANCH  16  18
BRANCH  16  21
ATOM     21  C   UNL     1      36.975 -24.987 -12.001  0.00  0.00    +0.040 C 
BRANCH  21  22
ATOM     22  C   UNL     1      38.343 -24.717 -12.634  0.00  0.00    +0.111 C 
BRANCH  22  24
ATOM     23  O   UNL     1      39.787 -26.197 -13.882  0.00  0.00    -0.250 OA
ATOM     24  C   UNL     1      38.693 -25.661 -13.756  0.00  0.00    +0.314 C 
BRANCH  24  25
ATOM     25  O   UNL     1      37.670 -25.845 -14.628  0.00  0.00    -0.480 OA
ATOM     26  H   UNL     1      37.392 -25.139 -15.178  0.00  0.00    +0.295 HD
ENDBRANCH  24  25
ENDBRANCH  22  24
ENDBRANCH  21  22
ENDBRANCH  16  21
ENDBRANCH  14  16
ENDBRANCH  11  14
ENDBRANCH   1  11
BRANCH   9  27
ATOM     27  O   UNL     1      34.021 -19.987 -20.600  0.00  0.00    -0.471 OA
BRANCH  27  28
ATOM     28  C   UNL     1      34.811 -18.800 -20.567  0.00  0.00    +0.234 C 
BRANCH  28  30
ATOM     29  F   UNL     1      34.365 -16.035 -20.157  0.00  0.00    -0.204 F 
ATOM     30  C   UNL     1      34.351 -17.876 -21.656  0.00  0.00    +0.049 C 
ATOM     31  C   UNL     1      34.149 -16.522 -21.387  0.00  0.00    +0.140 C 
ATOM     32  C   UNL     1      34.124 -18.373 -22.939  0.00  0.00    +0.002 C 
ATOM     33  C   UNL     1      33.721 -15.666 -22.402  0.00  0.00    +0.040 C 
ATOM     34  C   UNL     1      33.695 -17.516 -23.954  0.00  0.00    +0.010 C 
ATOM     35  C   UNL     1      33.494 -16.163 -23.685  0.00  0.00    +0.071 C 
BRANCH  35  37
ATOM     36  N   UNL     1      32.702 -14.571 -25.567  0.00  0.00    -0.191 NA
ATOM     37  C   UNL     1      33.057 -15.285 -24.724  0.00  0.00    +0.100 C 
ENDBRANCH  35  37
ENDBRANCH  28  30
ENDBRANCH  27  28
ENDBRANCH   9  27
TORSDOF 13
ENDMDL
MODEL 4
REMARK VINA RESULT:     -11.5      2.966      4.690
REMARK  Name = 25058128
REMARK  13 active torsions:
REMARK  status: ('A' for Active; 'I' for Inactive)
REMARK    1  A    between atoms: C_1  and  S_11
REMARK    2  A    between atoms: C_9  and  O_27
REMARK    3  A    between atoms: S_11  and  N_14
REMARK    4  A    between atoms: N_14  and  C_16
REMARK    5  A    between atoms: C_16  and  C_18
REMARK    6  A    between atoms: C_16  and  C_21
REMARK    7  A    between atoms: C_18  and  O_19
REMARK    8  A    between atoms: C_21  and  C_22
REMARK    9  A    between atoms: C_22  and  C_24
REMARK   10  A    between atoms: C_24  and  O_25
REMARK   11  A    between atoms: O_27  and  C_28
REMARK   12  A    between atoms: C_28  and  C_30
REMARK   13  A    between atoms: C_35  and  C_37
REMARK                            x       y       z     vdW  Elec       q    Type
REMARK                         _______ _______ _______ _____ _____    ______ ____
ROOT
ATOM      1  C   UNL     1      34.102 -22.309 -16.341  0.00  0.00    +0.122 C 
ATOM      2  C   UNL     1      33.066 -21.242 -18.266  0.00  0.00    +0.002 C 
ATOM      3  C   UNL     1      32.962 -21.968 -17.068  0.00  0.00    +0.020 C 
ATOM      4  C   UNL     1      34.347 -20.855 -18.731  0.00  0.00    +0.003 C 
ATOM      5  C   UNL     1      35.360 -21.928 -16.798  0.00  0.00    +0.020 C 
ATOM      6  C   UNL     1      35.483 -21.206 -17.985  0.00  0.00    +0.001 C 
ATOM      7  C   UNL     1      34.451 -20.129 -19.928  0.00  0.00    +0.037 C 
ATOM      8  C   UNL     1      31.930 -20.891 -19.012  0.00  0.00    +0.003 C 
ATOM      9  C   UNL     1      33.311 -19.788 -20.657  0.00  0.00    +0.139 C 
ATOM     10  C   UNL     1      32.053 -20.169 -20.200  0.00  0.00    +0.037 C 
ENDROOT
BRANCH   1  11
ATOM     11  S   UNL     1      33.949 -23.224 -14.835  0.00  0.00    +0.061 S 
ATOM     12  O   UNL     1      33.816 -24.626 -15.176  0.00  0.00    -0.153 OA
ATOM     13  O   UNL     1      35.020 -22.782 -13.963  0.00  0.00    -0.153 OA
BRANCH  11  14
ATOM     14  N   UNL     1      32.471 -22.647 -14.226  0.00  0.00    -0.170 NA
ATOM     15  H   UNL     1      32.212 -21.840 -14.794  0.00  0.00    +0.149 HD
BRANCH  14  16
ATOM     16  C   UNL     1      31.290 -23.538 -14.186  0.00  0.00    +0.174 C 
BRANCH  16  18
ATOM     17  O   UNL     1      30.235 -23.208 -12.020  0.00  0.00    -0.249 OA
ATOM     18  C   UNL     1      30.988 -23.851 -12.741  0.00  0.00    +0.330 C 
BRANCH  18  19
ATOM     19  O   UNL     1      31.640 -24.962 -12.310  0.00  0.00    -0.479 OA
ATOM     20  H   UNL     1      31.318 -25.437 -11.569  0.00  0.00    +0.295 HD
ENDBRANCH  18  19
ENDBRANCH  16  18
BRANCH  16  21
ATOM     21  C   UNL     1      30.123 -22.916 -14.962  0.00  0.00    +0.040 C 
BRANCH  21  22
ATOM     22  C   UNL     1      28.825 -23.727 -15.006  0.00  0.00    +0.111 C 
BRANCH  22  24
ATOM     23  O   UNL     1      26.936 -23.845 -16.508  0.00  0.00    -0.250 OA
ATOM     24  C   UNL     1      27.786 -23.166 -15.944  0.00  0.00    +0.314 C 
BRANCH  24  25
ATOM     25  O   UNL     1      27.899 -21.825 -16.114  0.00  0.00    -0.480 OA
ATOM     26  H   UNL     1      28.324 -21.485 -16.877  0.00  0.00    +0.295 HD
ENDBRANCH  24  25
ENDBRANCH  22  24
ENDBRANCH  21  22
ENDBRANCH  16  21
ENDBRANCH  14  16
ENDBRANCH  11  14
ENDBRANCH   1  11
BRANCH   9  27
ATOM     27  O   UNL     1      33.428 -19.083 -21.814  0.00  0.00    -0.471 OA
BRANCH  27  28
ATOM     28  C   UNL     1      34.627 -18.332 -21.999  0.00  0.00    +0.234 C 
BRANCH  28  30
ATOM     29  F   UNL     1      34.240 -16.404 -19.962  0.00  0.00    -0.204 F 
ATOM     30  C   UNL     1      34.272 -16.902 -22.283  0.00  0.00    +0.049 C 
ATOM     31  C   UNL     1      34.093 -16.002 -21.232  0.00  0.00    +0.140 C 
ATOM     32  C   UNL     1      34.119 -16.474 -23.601  0.00  0.00    +0.002 C 
ATOM     33  C   UNL     1      33.762 -14.674 -21.501  0.00  0.00    +0.040 C 
ATOM     34  C   UNL     1      33.787 -15.145 -23.869  0.00  0.00    +0.010 C 
ATOM     35  C   UNL     1      33.609 -14.245 -22.819  0.00  0.00    +0.071 C 
BRANCH  35  37
ATOM     36  N   UNL     1      32.997 -11.779 -23.315  0.00  0.00    -0.191 NA
ATOM     37  C   UNL     1      33.271 -12.884 -23.093  0.00  0.00    +0.100 C 
ENDBRANCH  35  37
ENDBRANCH  28  30
ENDBRANCH  27  28
ENDBRANCH   9  27
TORSDOF 13
ENDMDL
MODEL 5
REMARK VINA RESULT:     -11.0      2.118      3.310
REMARK  Name = 25058128
REMARK  13 active torsions:
REMARK  status: ('A' for Active; 'I' for Inactive)
REMARK    1  A    between atoms: C_1  and  S_11
REMARK    2  A    between atoms: C_9  and  O_27
REMARK    3  A    between atoms: S_11  and  N_14
REMARK    4  A    between atoms: N_14  and  C_16
REMARK    5  A    between atoms: C_16  and  C_18
REMARK    6  A    between atoms: C_16  and  C_21
REMARK    7  A    between atoms: C_18  and  O_19
REMARK    8  A    between atoms: C_21  and  C_22
REMARK    9  A    between atoms: C_22  and  C_24
REMARK   10  A    between atoms: C_24  and  O_25
REMARK   11  A    between atoms: O_27  and  C_28
REMARK   12  A    between atoms: C_28  and  C_30
REMARK   13  A    between atoms: C_35  and  C_37
REMARK                            x       y       z     vdW  Elec       q    Type
REMARK                         _______ _______ _______ _____ _____    ______ ____
ROOT
ATOM      1  C   UNL     1      33.056 -21.666 -18.120  0.00  0.00    +0.122 C 
ATOM      2  C   UNL     1      34.482 -20.263 -19.504  0.00  0.00    +0.002 C 
ATOM      3  C   UNL     1      34.324 -21.219 -18.487  0.00  0.00    +0.020 C 
ATOM      4  C   UNL     1      33.333 -19.754 -20.157  0.00  0.00    +0.003 C 
ATOM      5  C   UNL     1      31.927 -21.166 -18.763  0.00  0.00    +0.020 C 
ATOM      6  C   UNL     1      32.064 -20.216 -19.775  0.00  0.00    +0.001 C 
ATOM      7  C   UNL     1      33.490 -18.798 -21.175  0.00  0.00    +0.037 C 
ATOM      8  C   UNL     1      35.751 -19.800 -19.886  0.00  0.00    +0.003 C 
ATOM      9  C   UNL     1      34.760 -18.351 -21.542  0.00  0.00    +0.139 C 
ATOM     10  C   UNL     1      35.888 -18.850 -20.899  0.00  0.00    +0.037 C 
ENDROOT
BRANCH   1  11
ATOM     11  S   UNL     1      32.880 -22.870 -16.837  0.00  0.00    +0.061 S 
ATOM     12  O   UNL     1      31.883 -22.386 -15.903  0.00  0.00    -0.153 OA
ATOM     13  O   UNL     1      32.710 -24.156 -17.486  0.00  0.00    -0.153 OA
BRANCH  11  14
ATOM     14  N   UNL     1      34.412 -22.823 -16.103  0.00  0.00    -0.170 NA
ATOM     15  H   UNL     1      34.806 -21.903 -16.300  0.00  0.00    +0.149 HD
BRANCH  14  16
ATOM     16  C   UNL     1      34.539 -23.038 -14.644  0.00  0.00    +0.174 C 
BRANCH  16  18
ATOM     17  O   UNL     1      34.688 -25.455 -14.864  0.00  0.00    -0.249 OA
ATOM     18  C   UNL     1      34.171 -24.472 -14.348  0.00  0.00    +0.330 C 
BRANCH  18  19
ATOM     19  O   UNL     1      33.194 -24.567 -13.410  0.00  0.00    -0.479 OA
ATOM     20  H   UNL     1      32.831 -25.403 -13.194  0.00  0.00    +0.295 HD
ENDBRANCH  18  19
ENDBRANCH  16  18
BRANCH  16  21
ATOM     21  C   UNL     1      35.935 -22.625 -14.161  0.00  0.00    +0.040 C 
BRANCH  21  22
ATOM     22  C   UNL     1      36.477 -23.361 -12.933  0.00  0.00    +0.111 C 
BRANCH  22  24
ATOM     23  O   UNL     1      36.863 -21.926 -11.029  0.00  0.00    -0.250 OA
ATOM     24  C   UNL     1      36.126 -22.703 -11.623  0.00  0.00    +0.314 C 
BRANCH  24  25
ATOM     25  O   UNL     1      34.909 -23.076 -11.155  0.00  0.00    -0.480 OA
ATOM     26  H   UNL     1      34.136 -22.865 -11.642  0.00  0.00    +0.295 HD
ENDBRANCH  24  25
ENDBRANCH  22  24
ENDBRANCH  21  22
ENDBRANCH  16  21
ENDBRANCH  14  16
ENDBRANCH  11  14
ENDBRANCH   1  11
BRANCH   9  27
ATOM     27  O   UNL     1      34.895 -17.425 -22.530  0.00  0.00    -0.471 OA
BRANCH  27  28
ATOM     28  C   UNL     1      33.724 -17.094 -23.275  0.00  0.00    +0.234 C 
BRANCH  28  30
ATOM     29  F   UNL     1      34.102 -15.495 -20.970  0.00  0.00    -0.204 F 
ATOM     30  C   UNL     1      33.549 -15.604 -23.275  0.00  0.00    +0.049 C 
ATOM     31  C   UNL     1      33.749 -14.874 -22.104  0.00  0.00    +0.140 C 
ATOM     32  C   UNL     1      33.183 -14.948 -24.452  0.00  0.00    +0.002 C 
ATOM     33  C   UNL     1      33.585 -13.488 -22.109  0.00  0.00    +0.040 C 
ATOM     34  C   UNL     1      33.018 -13.563 -24.455  0.00  0.00    +0.010 C 
ATOM     35  C   UNL     1      33.219 -12.833 -23.284  0.00  0.00    +0.071 C 
BRANCH  35  37
ATOM     36  N   UNL     1      32.917 -10.261 -23.291  0.00  0.00    -0.191 NA
ATOM     37  C   UNL     1      33.052 -11.414 -23.288  0.00  0.00    +0.100 C 
ENDBRANCH  35  37
ENDBRANCH  28  30
ENDBRANCH  27  28
ENDBRANCH   9  27
TORSDOF 13
ENDMDL
MODEL 6
REMARK VINA RESULT:     -10.7      3.446     11.078
REMARK  Name = 25058128
REMARK  13 active torsions:
REMARK  status: ('A' for Active; 'I' for Inactive)
REMARK    1  A    between atoms: C_1  and  S_11
REMARK    2  A    between atoms: C_9  and  O_27
REMARK    3  A    between atoms: S_11  and  N_14
REMARK    4  A    between atoms: N_14  and  C_16
REMARK    5  A    between atoms: C_16  and  C_18
REMARK    6  A    between atoms: C_16  and  C_21
REMARK    7  A    between atoms: C_18  and  O_19
REMARK    8  A    between atoms: C_21  and  C_22
REMARK    9  A    between atoms: C_22  and  C_24
REMARK   10  A    between atoms: C_24  and  O_25
REMARK   11  A    between atoms: O_27  and  C_28
REMARK   12  A    between atoms: C_28  and  C_30
REMARK   13  A    between atoms: C_35  and  C_37
REMARK                            x       y       z     vdW  Elec       q    Type
REMARK                         _______ _______ _______ _____ _____    ______ ____
ROOT
ATOM      1  C   UNL     1      34.171 -19.130 -21.008  0.00  0.00    +0.122 C 
ATOM      2  C   UNL     1      33.178 -20.584 -19.331  0.00  0.00    +0.002 C 
ATOM      3  C   UNL     1      33.049 -19.729 -20.438  0.00  0.00    +0.020 C 
ATOM      4  C   UNL     1      34.465 -20.834 -18.796  0.00  0.00    +0.003 C 
ATOM      5  C   UNL     1      35.436 -19.376 -20.483  0.00  0.00    +0.020 C 
ATOM      6  C   UNL     1      35.583 -20.222 -19.384  0.00  0.00    +0.001 C 
ATOM      7  C   UNL     1      34.594 -21.689 -17.690  0.00  0.00    +0.037 C 
ATOM      8  C   UNL     1      32.059 -21.196 -18.742  0.00  0.00    +0.003 C 
ATOM      9  C   UNL     1      33.471 -22.289 -17.118  0.00  0.00    +0.139 C 
ATOM     10  C   UNL     1      32.206 -22.043 -17.643  0.00  0.00    +0.037 C 
ENDROOT
BRANCH   1  11
ATOM     11  S   UNL     1      33.987 -18.056 -22.402  0.00  0.00    +0.061 S 
ATOM     12  O   UNL     1      35.227 -18.080 -23.151  0.00  0.00    -0.153 OA
ATOM     13  O   UNL     1      32.737 -18.413 -23.046  0.00  0.00    -0.153 OA
BRANCH  11  14
ATOM     14  N   UNL     1      33.807 -16.541 -21.653  0.00  0.00    -0.170 NA
ATOM     15  H   UNL     1      34.372 -16.562 -20.804  0.00  0.00    +0.149 HD
BRANCH  14  16
ATOM     16  C   UNL     1      34.179 -15.308 -22.382  0.00  0.00    +0.174 C 
BRANCH  16  18
ATOM     17  O   UNL     1      32.327 -14.696 -23.835  0.00  0.00    -0.249 OA
ATOM     18  C   UNL     1      33.395 -15.273 -23.672  0.00  0.00    +0.330 C 
BRANCH  18  19
ATOM     19  O   UNL     1      34.020 -15.949 -24.670  0.00  0.00    -0.479 OA
ATOM     20  H   UNL     1      34.500 -15.480 -25.325  0.00  0.00    +0.295 HD
ENDBRANCH  18  19
ENDBRANCH  16  18
BRANCH  16  21
ATOM     21  C   UNL     1      33.990 -14.078 -21.486  0.00  0.00    +0.040 C 
BRANCH  21  22
ATOM     22  C   UNL     1      33.040 -14.241 -20.296  0.00  0.00    +0.111 C 
BRANCH  22  24
ATOM     23  O   UNL     1      30.995 -13.255 -19.473  0.00  0.00    -0.250 OA
ATOM     24  C   UNL     1      31.794 -13.397 -20.390  0.00  0.00    +0.314 C 
BRANCH  24  25
ATOM     25  O   UNL     1      31.638 -12.821 -21.608  0.00  0.00    -0.480 OA
ATOM     26  H   UNL     1      31.998 -11.972 -21.773  0.00  0.00    +0.295 HD
ENDBRANCH  24  25
ENDBRANCH  22  24
ENDBRANCH  21  22
ENDBRANCH  16  21
ENDBRANCH  14  16
ENDBRANCH  11  14
ENDBRANCH   1  11
BRANCH   9  27
ATOM     27  O   UNL     1      33.613 -23.116 -16.047  0.00  0.00    -0.471 OA
BRANCH  27  28
ATOM     28  C   UNL     1      34.230 -22.571 -14.882  0.00  0.00    +0.234 C 
BRANCH  28  30
ATOM     29  F   UNL     1      36.832 -21.588 -15.409  0.00  0.00    -0.204 F 
ATOM     30  C   UNL     1      35.475 -23.350 -14.577  0.00  0.00    +0.049 C 
ATOM     31  C   UNL     1      36.728 -22.808 -14.862  0.00  0.00    +0.140 C 
ATOM     32  C   UNL     1      35.378 -24.619 -14.006  0.00  0.00    +0.002 C 
ATOM     33  C   UNL     1      37.884 -23.535 -14.577  0.00  0.00    +0.040 C 
ATOM     34  C   UNL     1      36.534 -25.347 -13.722  0.00  0.00    +0.010 C 
ATOM     35  C   UNL     1      37.787 -24.805 -14.008  0.00  0.00    +0.071 C 
BRANCH  35  37
ATOM     36  N   UNL     1      39.934 -26.152 -13.476  0.00  0.00    -0.191 NA
ATOM     37  C   UNL     1      38.972 -25.549 -13.714  0.00  0.00    +0.100 C 
ENDBRANCH  35  37
ENDBRANCH  28  30
ENDBRANCH  27  28
ENDBRANCH   9  27
TORSDOF 13
ENDMDL
MODEL 7
REMARK VINA RESULT:     -10.7      3.392      5.225
REMARK  Name = 25058128
REMARK  13 active torsions:
REMARK  status: ('A' for Active; 'I' for Inactive)
REMARK    1  A    between atoms: C_1  and  S_11
REMARK    2  A    between atoms: C_9  and  O_27
REMARK    3  A    between atoms: S_11  and  N_14
REMARK    4  A    between atoms: N_14  and  C_16
REMARK    5  A    between atoms: C_16  and  C_18
REMARK    6  A    between atoms: C_16  and  C_21
REMARK    7  A    between atoms: C_18  and  O_19
REMARK    8  A    between atoms: C_21  and  C_22
REMARK    9  A    between atoms: C_22  and  C_24
REMARK   10  A    between atoms: C_24  and  O_25
REMARK   11  A    between atoms: O_27  and  C_28
REMARK   12  A    between atoms: C_28  and  C_30
REMARK   13  A    between atoms: C_35  and  C_37
REMARK                            x       y       z     vdW  Elec       q    Type
REMARK                         _______ _______ _______ _____ _____    ______ ____
ROOT
ATOM      1  C   UNL     1      33.151 -21.776 -17.877  0.00  0.00    +0.122 C 
ATOM      2  C   UNL     1      34.299 -20.326 -19.457  0.00  0.00    +0.002 C 
ATOM      3  C   UNL     1      34.332 -21.249 -18.399  0.00  0.00    +0.020 C 
ATOM      4  C   UNL     1      33.049 -19.933 -19.993  0.00  0.00    +0.003 C 
ATOM      5  C   UNL     1      31.923 -21.391 -18.405  0.00  0.00    +0.020 C 
ATOM      6  C   UNL     1      31.870 -20.475 -19.456  0.00  0.00    +0.001 C 
ATOM      7  C   UNL     1      33.015 -19.010 -21.052  0.00  0.00    +0.037 C 
ATOM      8  C   UNL     1      35.477 -19.783 -19.995  0.00  0.00    +0.003 C 
ATOM      9  C   UNL     1      34.196 -18.482 -21.574  0.00  0.00    +0.139 C 
ATOM     10  C   UNL     1      35.425 -18.867 -21.046  0.00  0.00    +0.037 C 
ENDROOT
BRANCH   1  11
ATOM     11  S   UNL     1      33.216 -22.937 -16.545  0.00  0.00    +0.061 S 
ATOM     12  O   UNL     1      32.794 -24.227 -17.055  0.00  0.00    -0.153 OA
ATOM     13  O   UNL     1      34.515 -22.789 -15.919  0.00  0.00    -0.153 OA
BRANCH  11  14
ATOM     14  N   UNL     1      32.026 -22.329 -15.495  0.00  0.00    -0.170 NA
ATOM     15  H   UNL     1      31.358 -21.816 -16.070  0.00  0.00    +0.149 HD
BRANCH  14  16
ATOM     16  C   UNL     1      31.240 -23.257 -14.652  0.00  0.00    +0.174 C 
BRANCH  16  18
ATOM     17  O   UNL     1      32.975 -24.271 -13.283  0.00  0.00    -0.249 OA
ATOM     18  C   UNL     1      32.019 -23.513 -13.385  0.00  0.00    +0.330 C 
BRANCH  18  19
ATOM     19  O   UNL     1      31.553 -22.781 -12.340  0.00  0.00    -0.479 OA
ATOM     20  H   UNL     1      30.805 -23.075 -11.858  0.00  0.00    +0.295 HD
ENDBRANCH  18  19
ENDBRANCH  16  18
BRANCH  16  21
ATOM     21  C   UNL     1      29.824 -22.712 -14.432  0.00  0.00    +0.040 C 
BRANCH  21  22
ATOM     22  C   UNL     1      28.925 -22.628 -15.668  0.00  0.00    +0.111 C 
BRANCH  22  24
ATOM     23  O   UNL     1      26.900 -23.638 -16.514  0.00  0.00    -0.250 OA
ATOM     24  C   UNL     1      27.750 -23.571 -15.634  0.00  0.00    +0.314 C 
BRANCH  24  25
ATOM     25  O   UNL     1      27.718 -24.333 -14.512  0.00  0.00    -0.480 OA
ATOM     26  H   UNL     1      28.049 -23.990 -13.705  0.00  0.00    +0.295 HD
ENDBRANCH  24  25
ENDBRANCH  22  24
ENDBRANCH  21  22
ENDBRANCH  16  21
ENDBRANCH  14  16
ENDBRANCH  11  14
ENDBRANCH   1  11
BRANCH   9  27
ATOM     27  O   UNL     1      34.147 -17.590 -22.600  0.00  0.00    -0.471 OA
BRANCH  27  28
ATOM     28  C   UNL     1      34.879 -16.376 -22.441  0.00  0.00    +0.234 C 
BRANCH  28  30
ATOM     29  F   UNL     1      33.428 -14.811 -24.302  0.00  0.00    -0.204 F 
ATOM     30  C   UNL     1      33.935 -15.284 -22.032  0.00  0.00    +0.049 C 
ATOM     31  C   UNL     1      33.251 -14.549 -23.000  0.00  0.00    +0.140 C 
ATOM     32  C   UNL     1      33.742 -15.005 -20.679  0.00  0.00    +0.002 C 
ATOM     33  C   UNL     1      32.374 -13.534 -22.615  0.00  0.00    +0.040 C 
ATOM     34  C   UNL     1      32.866 -13.989 -20.294  0.00  0.00    +0.010 C 
ATOM     35  C   UNL     1      32.182 -13.254 -21.262  0.00  0.00    +0.071 C 
BRANCH  35  37
ATOM     36  N   UNL     1      30.552 -11.372 -20.549  0.00  0.00    -0.191 NA
ATOM     37  C   UNL     1      31.283 -12.216 -20.868  0.00  0.00    +0.100 C 
ENDBRANCH  35  37
ENDBRANCH  28  30
ENDBRANCH  27  28
ENDBRANCH   9  27
TORSDOF 13
ENDMDL
MODEL 8
REMARK VINA RESULT:     -10.6      3.883     11.576
REMARK  Name = 25058128
REMARK  13 active torsions:
REMARK  status: ('A' for Active; 'I' for Inactive)
REMARK    1  A    between atoms: C_1  and  S_11
REMARK    2  A    between atoms: C_9  and  O_27
REMARK    3  A    between atoms: S_11  and  N_14
REMARK    4  A    between atoms: N_14  and  C_16
REMARK    5  A    between atoms: C_16  and  C_18
REMARK    6  A    between atoms: C_16  and  C_21
REMARK    7  A    between atoms: C_18  and  O_19
REMARK    8  A    between atoms: C_21  and  C_22
REMARK    9  A    between atoms: C_22  and  C_24
REMARK   10  A    between atoms: C_24  and  O_25
REMARK   11  A    between atoms: O_27  and  C_28
REMARK   12  A    between atoms: C_28  and  C_30
REMARK   13  A    between atoms: C_35  and  C_37
REMARK                            x       y       z     vdW  Elec       q    Type
REMARK                         _______ _______ _______ _____ _____    ______ ____
ROOT
ATOM      1  C   UNL     1      33.958 -18.204 -22.294  0.00  0.00    +0.122 C 
ATOM      2  C   UNL     1      33.416 -19.743 -20.490  0.00  0.00    +0.002 C 
ATOM      3  C   UNL     1      33.016 -18.920 -21.556  0.00  0.00    +0.020 C 
ATOM      4  C   UNL     1      34.791 -19.839 -20.168  0.00  0.00    +0.003 C 
ATOM      5  C   UNL     1      35.310 -18.299 -21.978  0.00  0.00    +0.020 C 
ATOM      6  C   UNL     1      35.725 -19.111 -20.922  0.00  0.00    +0.001 C 
ATOM      7  C   UNL     1      35.191 -20.662 -19.103  0.00  0.00    +0.037 C 
ATOM      8  C   UNL     1      32.481 -20.471 -19.736  0.00  0.00    +0.003 C 
ATOM      9  C   UNL     1      34.248 -21.379 -18.364  0.00  0.00    +0.139 C 
ATOM     10  C   UNL     1      32.897 -21.284 -18.680  0.00  0.00    +0.037 C 
ENDROOT
BRANCH   1  11
ATOM     11  S   UNL     1      33.434 -17.174 -23.632  0.00  0.00    +0.061 S 
ATOM     12  O   UNL     1      34.564 -16.985 -24.520  0.00  0.00    -0.153 OA
ATOM     13  O   UNL     1      32.196 -17.735 -24.136  0.00  0.00    -0.153 OA
BRANCH  11  14
ATOM     14  N   UNL     1      33.092 -15.713 -22.835  0.00  0.00    -0.170 NA
ATOM     15  H   UNL     1      33.499 -15.783 -21.902  0.00  0.00    +0.149 HD
BRANCH  14  16
ATOM     16  C   UNL     1      33.557 -14.431 -23.409  0.00  0.00    +0.174 C 
BRANCH  16  18
ATOM     17  O   UNL     1      32.906 -14.426 -25.752  0.00  0.00    -0.249 OA
ATOM     18  C   UNL     1      32.680 -14.101 -24.592  0.00  0.00    +0.330 C 
BRANCH  18  19
ATOM     19  O   UNL     1      31.571 -13.405 -24.230  0.00  0.00    -0.479 OA
ATOM     20  H   UNL     1      30.951 -13.785 -23.640  0.00  0.00    +0.295 HD
ENDBRANCH  18  19
ENDBRANCH  16  18
BRANCH  16  21
ATOM     21  C   UNL     1      33.604 -13.345 -22.327  0.00  0.00    +0.040 C 
BRANCH  21  22
ATOM     22  C   UNL     1      33.152 -13.760 -20.924  0.00  0.00    +0.111 C 
BRANCH  22  24
ATOM     23  O   UNL     1      31.182 -13.582 -19.538  0.00  0.00    -0.250 OA
ATOM     24  C   UNL     1      31.797 -13.226 -20.537  0.00  0.00    +0.314 C 
BRANCH  24  25
ATOM     25  O   UNL     1      31.315 -12.318 -21.421  0.00  0.00    -0.480 OA
ATOM     26  H   UNL     1      30.520 -12.494 -21.886  0.00  0.00    +0.295 HD
ENDBRANCH  24  25
ENDBRANCH  22  24
ENDBRANCH  21  22
ENDBRANCH  16  21
ENDBRANCH  14  16
ENDBRANCH  11  14
ENDBRANCH   1  11
BRANCH   9  27
ATOM     27  O   UNL     1      34.652 -22.173 -17.335  0.00  0.00    -0.471 OA
BRANCH  27  28
ATOM     28  C   UNL     1      35.607 -21.626 -16.428  0.00  0.00    +0.234 C 
BRANCH  28  30
ATOM     29  F   UNL     1      37.898 -22.892 -15.349  0.00  0.00    -0.204 F 
ATOM     30  C   UNL     1      35.581 -22.415 -15.153  0.00  0.00    +0.049 C 
ATOM     31  C   UNL     1      36.746 -23.015 -14.676  0.00  0.00    +0.140 C 
ATOM     32  C   UNL     1      34.387 -22.548 -14.444  0.00  0.00    +0.002 C 
ATOM     33  C   UNL     1      36.716 -23.749 -13.489  0.00  0.00    +0.040 C 
ATOM     34  C   UNL     1      34.358 -23.282 -13.258  0.00  0.00    +0.010 C 
ATOM     35  C   UNL     1      35.523 -23.883 -12.780  0.00  0.00    +0.071 C 
BRANCH  35  37
ATOM     36  N   UNL     1      35.469 -25.242 -10.577  0.00  0.00    -0.191 NA
ATOM     37  C   UNL     1      35.494 -24.633 -11.565  0.00  0.00    +0.100 C 
ENDBRANCH  35  37
ENDBRANCH  28  30
ENDBRANCH  27  28
ENDBRANCH   9  27
TORSDOF 13
ENDMDL
MODEL 9
REMARK VINA RESULT:     -10.6      2.101      3.482
REMARK  Name = 25058128
REMARK  13 active torsions:
REMARK  status: ('A' for Active; 'I' for Inactive)
REMARK    1  A    between atoms: C_1  and  S_11
REMARK    2  A    between atoms: C_9  and  O_27
REMARK    3  A    between atoms: S_11  and  N_14
REMARK    4  A    between atoms: N_14  and  C_16
REMARK    5  A    between atoms: C_16  and  C_18
REMARK    6  A    between atoms: C_16  and  C_21
REMARK    7  A    between atoms: C_18  and  O_19
REMARK    8  A    between atoms: C_21  and  C_22
REMARK    9  A    between atoms: C_22  and  C_24
REMARK   10  A    between atoms: C_24  and  O_25
REMARK   11  A    between atoms: O_27  and  C_28
REMARK   12  A    between atoms: C_28  and  C_30
REMARK   13  A    between atoms: C_35  and  C_37
REMARK                            x       y       z     vdW  Elec       q    Type
REMARK                         _______ _______ _______ _____ _____    ______ ____
ROOT
ATOM      1  C   UNL     1      35.705 -22.757 -15.207  0.00  0.00    +0.122 C 
ATOM      2  C   UNL     1      34.269 -22.018 -17.026  0.00  0.00    +0.002 C 
ATOM      3  C   UNL     1      34.467 -22.758 -15.848  0.00  0.00    +0.020 C 
ATOM      4  C   UNL     1      35.345 -21.267 -17.559  0.00  0.00    +0.003 C 
ATOM      5  C   UNL     1      36.761 -22.019 -15.730  0.00  0.00    +0.020 C 
ATOM      6  C   UNL     1      36.584 -21.277 -16.899  0.00  0.00    +0.001 C 
ATOM      7  C   UNL     1      35.148 -20.526 -18.736  0.00  0.00    +0.037 C 
ATOM      8  C   UNL     1      33.030 -22.007 -17.687  0.00  0.00    +0.003 C 
ATOM      9  C   UNL     1      33.909 -20.527 -19.379  0.00  0.00    +0.139 C 
ATOM     10  C   UNL     1      32.853 -21.266 -18.856  0.00  0.00    +0.037 C 
ENDROOT
BRANCH   1  11
ATOM     11  S   UNL     1      35.932 -23.696 -13.725  0.00  0.00    +0.061 S 
ATOM     12  O   UNL     1      35.786 -25.099 -14.058  0.00  0.00    -0.153 OA
ATOM     13  O   UNL     1      37.151 -23.215 -13.104  0.00  0.00    -0.153 OA
BRANCH  11  14
ATOM     14  N   UNL     1      34.604 -23.196 -12.789  0.00  0.00    -0.170 NA
ATOM     15  H   UNL     1      33.905 -22.834 -13.438  0.00  0.00    +0.149 HD
BRANCH  14  16
ATOM     16  C   UNL     1      33.911 -24.166 -11.914  0.00  0.00    +0.174 C 
BRANCH  16  18
ATOM     17  O   UNL     1      34.375 -24.925  -9.650  0.00  0.00    -0.249 OA
ATOM     18  C   UNL     1      34.564 -24.120 -10.554  0.00  0.00    +0.330 C 
BRANCH  18  19
ATOM     19  O   UNL     1      35.425 -23.076 -10.434  0.00  0.00    -0.479 OA
ATOM     20  H   UNL     1      36.226 -23.180  -9.960  0.00  0.00    +0.295 HD
ENDBRANCH  18  19
ENDBRANCH  16  18
BRANCH  16  21
ATOM     21  C   UNL     1      32.401 -23.898 -11.905  0.00  0.00    +0.040 C 
BRANCH  21  22
ATOM     22  C   UNL     1      31.599 -24.479 -13.073  0.00  0.00    +0.111 C 
BRANCH  22  24
ATOM     23  O   UNL     1      30.247 -23.667 -14.903  0.00  0.00    -0.250 OA
ATOM     24  C   UNL     1      31.080 -23.439 -14.034  0.00  0.00    +0.314 C 
BRANCH  24  25
ATOM     25  O   UNL     1      31.646 -22.221 -13.848  0.00  0.00    -0.480 OA
ATOM     26  H   UNL     1      32.263 -21.892 -14.472  0.00  0.00    +0.295 HD
ENDBRANCH  24  25
ENDBRANCH  22  24
ENDBRANCH  21  22
ENDBRANCH  16  21
ENDBRANCH  14  16
ENDBRANCH  11  14
ENDBRANCH   1  11
BRANCH   9  27
ATOM     27  O   UNL     1      33.734 -19.804 -20.518  0.00  0.00    -0.471 OA
BRANCH  27  28
ATOM     28  C   UNL     1      34.815 -18.969 -20.931  0.00  0.00    +0.234 C 
BRANCH  28  30
ATOM     29  F   UNL     1      33.840 -19.758 -23.469  0.00  0.00    -0.204 F 
ATOM     30  C   UNL     1      34.317 -17.993 -21.955  0.00  0.00    +0.049 C 
ATOM     31  C   UNL     1      33.850 -18.447 -23.189  0.00  0.00    +0.140 C 
ATOM     32  C   UNL     1      34.323 -16.627 -21.672  0.00  0.00    +0.002 C 
ATOM     33  C   UNL     1      33.389 -17.536 -24.139  0.00  0.00    +0.040 C 
ATOM     34  C   UNL     1      33.861 -15.716 -22.623  0.00  0.00    +0.010 C 
ATOM     35  C   UNL     1      33.395 -16.170 -23.856  0.00  0.00    +0.071 C 
BRANCH  35  37
ATOM     36  N   UNL     1      32.534 -14.481 -25.620  0.00  0.00    -0.191 NA
ATOM     37  C   UNL     1      32.920 -15.237 -24.829  0.00  0.00    +0.100 C 
ENDBRANCH  35  37
ENDBRANCH  28  30
ENDBRANCH  27  28
ENDBRANCH   9  27
TORSDOF 13
ENDMDL
