MODEL 1
REMARK VINA RESULT:     -12.6      0.000      0.000
REMARK  Name = 71245288
REMARK  5 active torsions:
REMARK  status: ('A' for Active; 'I' for Inactive)
REMARK    1  A    between atoms: C_3  and  C_9
REMARK    2  A    between atoms: C_6  and  N_14
REMARK    3  A    between atoms: C_15  and  C_18
REMARK    4  A    between atoms: C_22  and  C_30
REMARK    5  A    between atoms: N_27  and  C_32
REMARK                            x       y       z     vdW  Elec       q    Type
REMARK                         _______ _______ _______ _____ _____    ______ ____
ROOT
ATOM      1  O   UNL     1      31.821 -21.432 -18.895  0.00  0.00    -0.270 OA
ATOM      2  N   UNL     1      33.441 -21.758 -17.228  0.00  0.00    -0.259 N 
ATOM      3  C   UNL     1      32.975 -21.283 -18.462  0.00  0.00    +0.253 C 
ATOM      4  H   UNL     1      34.383 -21.562 -17.022  0.00  0.00    +0.157 HD
ATOM      5  N   UNL     1      33.387 -22.847 -15.114  0.00  0.00    -0.388 NA
ATOM      6  C   UNL     1      32.671 -23.539 -14.200  0.00  0.00    +0.166 C 
ATOM      7  C   UNL     1      32.734 -22.486 -16.240  0.00  0.00    +0.167 C 
ATOM      8  C   UNL     1      31.339 -23.885 -14.359  0.00  0.00    +0.031 C 
ATOM      9  C   UNL     1      31.404 -22.782 -16.494  0.00  0.00    +0.101 C 
ATOM     10  C   UNL     1      30.700 -23.496 -15.530  0.00  0.00    -0.015 C 
ENDROOT
BRANCH   3  15
ATOM     11  F   UNL     1      35.729 -21.328 -17.915  0.00  0.00    -0.204 F 
ATOM     12  C   UNL     1      34.419 -19.054 -21.105  0.00  0.00    +0.046 C 
ATOM     13  C   UNL     1      35.778 -19.108 -20.793  0.00  0.00    -0.006 C 
ATOM     14  C   UNL     1      33.498 -19.769 -20.338  0.00  0.00    +0.021 C 
ATOM     15  C   UNL     1      33.937 -20.538 -19.260  0.00  0.00    +0.082 C 
ATOM     16  C   UNL     1      36.216 -19.876 -19.715  0.00  0.00    +0.027 C 
ATOM     17  C   UNL     1      36.790 -18.353 -21.594  0.00  0.00    +0.032 C 
ATOM     18  C   UNL     1      35.295 -20.592 -18.949  0.00  0.00    +0.144 C 
BRANCH  12  20
ATOM     19  N   UNL     1      32.932 -17.787 -24.071  0.00  0.00    -0.255 NA
ATOM     20  N   UNL     1      33.962 -18.297 -22.171  0.00  0.00    -0.282 N 
ATOM     21  C   UNL     1      33.536 -16.672 -23.548  0.00  0.00    +0.053 C 
ATOM     22  C   UNL     1      34.182 -16.963 -22.370  0.00  0.00    +0.134 C 
ATOM     23  C   UNL     1      33.207 -18.748 -23.218  0.00  0.00    +0.219 C 
BRANCH  21  24
ATOM     24  C   UNL     1      33.493 -15.292 -24.197  0.00  0.00    +0.037 C 
ATOM     25  C   UNL     1      32.504 -14.286 -23.684  0.00  0.00    +0.006 C 
ATOM     26  C   UNL     1      32.299 -14.924 -25.028  0.00  0.00    +0.006 C 
ENDBRANCH  21  24
ENDBRANCH  12  20
ENDBRANCH   3  15
BRANCH   6  30
ATOM     27  N   UNL     1      34.652 -24.446 -13.028  0.00  0.00    -0.252 N 
ATOM     28  N   UNL     1      32.989 -23.774 -11.775  0.00  0.00    -0.129 NA
ATOM     29  N   UNL     1      33.994 -24.243 -10.952  0.00  0.00    -0.128 NA
ATOM     30  C   UNL     1      33.403 -23.905 -13.015  0.00  0.00    +0.188 C 
ATOM     31  C   UNL     1      34.982 -24.640 -11.721  0.00  0.00    +0.192 C 
BRANCH  27  32
ATOM     32  C   UNL     1      35.477 -24.756 -14.171  0.00  0.00    +0.080 C 
ATOM     33  C   UNL     1      36.740 -23.892 -14.206  0.00  0.00    +0.022 C 
ATOM     34  C   UNL     1      35.834 -26.244 -14.220  0.00  0.00    +0.022 C 
ENDBRANCH  27  32
ENDBRANCH   6  30
TORSDOF 5
ENDMDL
MODEL 2
REMARK VINA RESULT:     -12.6      7.234     14.025
REMARK  Name = 71245288
REMARK  5 active torsions:
REMARK  status: ('A' for Active; 'I' for Inactive)
REMARK    1  A    between atoms: C_3  and  C_9
REMARK    2  A    between atoms: C_6  and  N_14
REMARK    3  A    between atoms: C_15  and  C_18
REMARK    4  A    between atoms: C_22  and  C_30
REMARK    5  A    between atoms: N_27  and  C_32
REMARK                            x       y       z     vdW  Elec       q    Type
REMARK                         _______ _______ _______ _____ _____    ______ ____
ROOT
ATOM      1  O   UNL     1      34.312 -10.486 -25.129  0.00  0.00    -0.270 OA
ATOM      2  N   UNL     1      32.923 -10.263 -23.250  0.00  0.00    -0.259 N 
ATOM      3  C   UNL     1      33.508 -10.965 -24.314  0.00  0.00    +0.253 C 
ATOM      4  H   UNL     1      32.302 -10.778 -22.687  0.00  0.00    +0.157 HD
ATOM      5  N   UNL     1      32.436  -8.433 -21.810  0.00  0.00    -0.388 NA
ATOM      6  C   UNL     1      32.644  -7.135 -21.497  0.00  0.00    +0.166 C 
ATOM      7  C   UNL     1      33.107  -8.908 -22.882  0.00  0.00    +0.167 C 
ATOM      8  C   UNL     1      33.489  -6.293 -22.202  0.00  0.00    +0.031 C 
ATOM      9  C   UNL     1      33.975  -8.149 -23.652  0.00  0.00    +0.101 C 
ATOM     10  C   UNL     1      34.163  -6.817 -23.299  0.00  0.00    -0.015 C 
ENDROOT
BRANCH   3  15
ATOM     11  F   UNL     1      31.876 -11.929 -26.386  0.00  0.00    -0.204 F 
ATOM     12  C   UNL     1      33.255 -14.631 -23.584  0.00  0.00    +0.046 C 
ATOM     13  C   UNL     1      32.441 -15.062 -24.632  0.00  0.00    -0.006 C 
ATOM     14  C   UNL     1      33.605 -13.284 -23.480  0.00  0.00    +0.021 C 
ATOM     15  C   UNL     1      33.141 -12.369 -24.425  0.00  0.00    +0.082 C 
ATOM     16  C   UNL     1      31.977 -14.146 -25.576  0.00  0.00    +0.027 C 
ATOM     17  C   UNL     1      32.047 -16.497 -24.772  0.00  0.00    +0.032 C 
ATOM     18  C   UNL     1      32.328 -12.800 -25.472  0.00  0.00    +0.144 C 
BRANCH  12  20
ATOM     19  N   UNL     1      34.255 -16.360 -20.647  0.00  0.00    -0.255 NA
ATOM     20  N   UNL     1      33.726 -15.523 -22.636  0.00  0.00    -0.282 N 
ATOM     21  C   UNL     1      34.571 -17.258 -21.636  0.00  0.00    +0.053 C 
ATOM     22  C   UNL     1      34.252 -16.761 -22.878  0.00  0.00    +0.134 C 
ATOM     23  C   UNL     1      33.748 -15.327 -21.282  0.00  0.00    +0.219 C 
BRANCH  21  24
ATOM     24  C   UNL     1      35.194 -18.627 -21.381  0.00  0.00    +0.037 C 
ATOM     25  C   UNL     1      34.676 -19.453 -20.240  0.00  0.00    +0.006 C 
ATOM     26  C   UNL     1      36.034 -18.818 -20.153  0.00  0.00    +0.006 C 
ENDBRANCH  21  24
ENDBRANCH  12  20
ENDBRANCH   3  15
BRANCH   6  30
ATOM     27  N   UNL     1      30.944  -5.711 -20.401  0.00  0.00    -0.252 N 
ATOM     28  N   UNL     1      32.057  -7.085 -19.112  0.00  0.00    -0.129 NA
ATOM     29  N   UNL     1      31.163  -6.382 -18.330  0.00  0.00    -0.128 NA
ATOM     30  C   UNL     1      31.911  -6.669 -20.349  0.00  0.00    +0.188 C 
ATOM     31  C   UNL     1      30.505  -5.564 -19.120  0.00  0.00    +0.192 C 
BRANCH  27  32
ATOM     32  C   UNL     1      30.464  -4.990 -21.555  0.00  0.00    +0.080 C 
ATOM     33  C   UNL     1      29.749  -5.917 -22.541  0.00  0.00    +0.022 C 
ATOM     34  C   UNL     1      29.562  -3.821 -21.153  0.00  0.00    +0.022 C 
ENDBRANCH  27  32
ENDBRANCH   6  30
TORSDOF 5
ENDMDL
MODEL 3
REMARK VINA RESULT:     -11.7      1.667     10.735
REMARK  Name = 71245288
REMARK  5 active torsions:
REMARK  status: ('A' for Active; 'I' for Inactive)
REMARK    1  A    between atoms: C_3  and  C_9
REMARK    2  A    between atoms: C_6  and  N_14
REMARK    3  A    between atoms: C_15  and  C_18
REMARK    4  A    between atoms: C_22  and  C_30
REMARK    5  A    between atoms: N_27  and  C_32
REMARK                            x       y       z     vdW  Elec       q    Type
REMARK                         _______ _______ _______ _____ _____    ______ ____
ROOT
ATOM      1  O   UNL     1      35.866 -21.136 -17.997  0.00  0.00    -0.270 OA
ATOM      2  N   UNL     1      34.037 -20.364 -19.248  0.00  0.00    -0.259 N 
ATOM      3  C   UNL     1      34.645 -21.091 -18.215  0.00  0.00    +0.253 C 
ATOM      4  H   UNL     1      33.055 -20.427 -19.295  0.00  0.00    +0.157 HD
ATOM      5  N   UNL     1      33.862 -18.939 -21.145  0.00  0.00    -0.388 NA
ATOM      6  C   UNL     1      34.492 -18.177 -22.067  0.00  0.00    +0.166 C 
ATOM      7  C   UNL     1      34.649 -19.554 -20.235  0.00  0.00    +0.167 C 
ATOM      8  C   UNL     1      35.865 -18.000 -22.119  0.00  0.00    +0.031 C 
ATOM      9  C   UNL     1      36.030 -19.442 -20.202  0.00  0.00    +0.101 C 
ATOM     10  C   UNL     1      36.642 -18.649 -21.166  0.00  0.00    -0.015 C 
ENDROOT
BRANCH   3  15
ATOM     11  F   UNL     1      31.916 -21.410 -18.794  0.00  0.00    -0.204 F 
ATOM     12  C   UNL     1      33.368 -23.076 -15.305  0.00  0.00    +0.046 C 
ATOM     13  C   UNL     1      32.019 -23.207 -15.637  0.00  0.00    -0.006 C 
ATOM     14  C   UNL     1      34.230 -22.380 -16.153  0.00  0.00    +0.021 C 
ATOM     15  C   UNL     1      33.744 -21.816 -17.333  0.00  0.00    +0.082 C 
ATOM     16  C   UNL     1      31.533 -22.643 -16.815  0.00  0.00    +0.027 C 
ATOM     17  C   UNL     1      31.068 -23.946 -14.750  0.00  0.00    +0.032 C 
ATOM     18  C   UNL     1      32.395 -21.947 -17.663  0.00  0.00    +0.144 C 
BRANCH  12  20
ATOM     19  N   UNL     1      34.017 -24.184 -11.994  0.00  0.00    -0.255 NA
ATOM     20  N   UNL     1      33.871 -23.628 -14.140  0.00  0.00    -0.282 N 
ATOM     21  C   UNL     1      35.098 -24.673 -12.682  0.00  0.00    +0.053 C 
ATOM     22  C   UNL     1      35.031 -24.341 -14.015  0.00  0.00    +0.134 C 
ATOM     23  C   UNL     1      33.297 -23.560 -12.900  0.00  0.00    +0.219 C 
BRANCH  21  24
ATOM     24  C   UNL     1      36.225 -25.479 -12.044  0.00  0.00    +0.037 C 
ATOM     25  C   UNL     1      37.293 -24.747 -11.285  0.00  0.00    +0.006 C 
ATOM     26  C   UNL     1      37.607 -25.365 -12.617  0.00  0.00    +0.006 C 
ENDBRANCH  21  24
ENDBRANCH  12  20
ENDBRANCH   3  15
BRANCH   6  30
ATOM     27  N   UNL     1      33.443 -16.193 -23.106  0.00  0.00    -0.252 N 
ATOM     28  N   UNL     1      32.880 -18.144 -23.920  0.00  0.00    -0.129 NA
ATOM     29  N   UNL     1      32.200 -17.167 -24.619  0.00  0.00    -0.128 NA
ATOM     30  C   UNL     1      33.619 -17.540 -23.017  0.00  0.00    +0.188 C 
ATOM     31  C   UNL     1      32.551 -16.005 -24.119  0.00  0.00    +0.192 C 
BRANCH  27  32
ATOM     32  C   UNL     1      34.060 -15.159 -22.311  0.00  0.00    +0.080 C 
ATOM     33  C   UNL     1      33.685 -13.762 -22.813  0.00  0.00    +0.022 C 
ATOM     34  C   UNL     1      33.722 -15.313 -20.827  0.00  0.00    +0.022 C 
ENDBRANCH  27  32
ENDBRANCH   6  30
TORSDOF 5
ENDMDL
MODEL 4
REMARK VINA RESULT:     -11.5      5.771     12.734
REMARK  Name = 71245288
REMARK  5 active torsions:
REMARK  status: ('A' for Active; 'I' for Inactive)
REMARK    1  A    between atoms: C_3  and  C_9
REMARK    2  A    between atoms: C_6  and  N_14
REMARK    3  A    between atoms: C_15  and  C_18
REMARK    4  A    between atoms: C_22  and  C_30
REMARK    5  A    between atoms: N_27  and  C_32
REMARK                            x       y       z     vdW  Elec       q    Type
REMARK                         _______ _______ _______ _____ _____    ______ ____
ROOT
ATOM      1  O   UNL     1      32.126 -13.773 -19.529  0.00  0.00    -0.270 OA
ATOM      2  N   UNL     1      32.194 -12.386 -21.421  0.00  0.00    -0.259 N 
ATOM      3  C   UNL     1      32.396 -13.587 -20.725  0.00  0.00    +0.253 C 
ATOM      4  H   UNL     1      32.459 -12.391 -22.369  0.00  0.00    +0.157 HD
ATOM      5  N   UNL     1      31.553 -10.125 -21.790  0.00  0.00    -0.388 NA
ATOM      6  C   UNL     1      31.038  -8.983 -21.283  0.00  0.00    +0.166 C 
ATOM      7  C   UNL     1      31.660 -11.167 -20.937  0.00  0.00    +0.167 C 
ATOM      8  C   UNL     1      30.625  -8.836 -19.969  0.00  0.00    +0.031 C 
ATOM      9  C   UNL     1      31.276 -11.122 -19.606  0.00  0.00    +0.101 C 
ATOM     10  C   UNL     1      30.750  -9.930 -19.120  0.00  0.00    -0.015 C 
ENDROOT
BRANCH   3  15
ATOM     11  F   UNL     1      32.259 -13.651 -23.530  0.00  0.00    -0.204 F 
ATOM     12  C   UNL     1      34.087 -16.813 -21.602  0.00  0.00    +0.046 C 
ATOM     13  C   UNL     1      33.995 -16.799 -22.994  0.00  0.00    -0.006 C 
ATOM     14  C   UNL     1      33.561 -15.757 -20.858  0.00  0.00    +0.021 C 
ATOM     15  C   UNL     1      32.943 -14.687 -21.505  0.00  0.00    +0.082 C 
ATOM     16  C   UNL     1      33.376 -15.730 -23.641  0.00  0.00    +0.027 C 
ATOM     17  C   UNL     1      34.547 -17.915 -23.822  0.00  0.00    +0.032 C 
ATOM     18  C   UNL     1      32.851 -14.674 -22.896  0.00  0.00    +0.144 C 
BRANCH  12  20
ATOM     19  N   UNL     1      36.280 -19.050 -19.927  0.00  0.00    -0.255 NA
ATOM     20  N   UNL     1      34.697 -17.866 -20.940  0.00  0.00    -0.282 N 
ATOM     21  C   UNL     1      35.104 -19.758 -19.953  0.00  0.00    +0.053 C 
ATOM     22  C   UNL     1      34.108 -19.044 -20.576  0.00  0.00    +0.134 C 
ATOM     23  C   UNL     1      36.000 -17.916 -20.529  0.00  0.00    +0.219 C 
BRANCH  21  24
ATOM     24  C   UNL     1      34.934 -21.155 -19.364  0.00  0.00    +0.037 C 
ATOM     25  C   UNL     1      33.777 -21.412 -18.443  0.00  0.00    +0.006 C 
ATOM     26  C   UNL     1      35.173 -21.351 -17.896  0.00  0.00    +0.006 C 
ENDBRANCH  21  24
ENDBRANCH  12  20
ENDBRANCH   3  15
BRANCH   6  30
ATOM     27  N   UNL     1      31.990  -7.430 -22.957  0.00  0.00    -0.252 N 
ATOM     28  N   UNL     1      29.858  -7.214 -22.512  0.00  0.00    -0.129 NA
ATOM     29  N   UNL     1      30.204  -6.271 -23.459  0.00  0.00    -0.128 NA
ATOM     30  C   UNL     1      30.942  -7.898 -22.224  0.00  0.00    +0.188 C 
ATOM     31  C   UNL     1      31.484  -6.417 -23.714  0.00  0.00    +0.192 C 
BRANCH  27  32
ATOM     32  C   UNL     1      33.356  -7.894 -22.955  0.00  0.00    +0.080 C 
ATOM     33  C   UNL     1      33.733  -8.544 -24.289  0.00  0.00    +0.022 C 
ATOM     34  C   UNL     1      34.331  -6.769 -22.603  0.00  0.00    +0.022 C 
ENDBRANCH  27  32
ENDBRANCH   6  30
TORSDOF 5
ENDMDL
MODEL 5
REMARK VINA RESULT:     -11.0      6.015     10.145
REMARK  Name = 71245288
REMARK  5 active torsions:
REMARK  status: ('A' for Active; 'I' for Inactive)
REMARK    1  A    between atoms: C_3  and  C_9
REMARK    2  A    between atoms: C_6  and  N_14
REMARK    3  A    between atoms: C_15  and  C_18
REMARK    4  A    between atoms: C_22  and  C_30
REMARK    5  A    between atoms: N_27  and  C_32
REMARK                            x       y       z     vdW  Elec       q    Type
REMARK                         _______ _______ _______ _____ _____    ______ ____
ROOT
ATOM      1  O   UNL     1      32.135 -12.843 -23.348  0.00  0.00    -0.270 OA
ATOM      2  N   UNL     1      32.949 -14.011 -21.483  0.00  0.00    -0.259 N 
ATOM      3  C   UNL     1      32.311 -12.939 -22.124  0.00  0.00    +0.253 C 
ATOM      4  H   UNL     1      33.014 -13.946 -20.503  0.00  0.00    +0.157 HD
ATOM      5  N   UNL     1      34.084 -16.088 -21.247  0.00  0.00    -0.388 NA
ATOM      6  C   UNL     1      34.610 -17.181 -21.845  0.00  0.00    +0.166 C 
ATOM      7  C   UNL     1      33.513 -15.174 -22.062  0.00  0.00    +0.167 C 
ATOM      8  C   UNL     1      34.589 -17.401 -23.213  0.00  0.00    +0.031 C 
ATOM      9  C   UNL     1      33.441 -15.300 -23.440  0.00  0.00    +0.101 C 
ATOM     10  C   UNL     1      33.992 -16.438 -24.019  0.00  0.00    -0.015 C 
ENDROOT
BRANCH   3  15
ATOM     11  F   UNL     1      31.231 -13.485 -19.589  0.00  0.00    -0.204 F 
ATOM     12  C   UNL     1      31.364  -9.550 -20.837  0.00  0.00    +0.046 C 
ATOM     13  C   UNL     1      30.837  -9.872 -19.586  0.00  0.00    -0.006 C 
ATOM     14  C   UNL     1      31.848 -10.559 -21.670  0.00  0.00    +0.021 C 
ATOM     15  C   UNL     1      31.805 -11.890 -21.252  0.00  0.00    +0.082 C 
ATOM     16  C   UNL     1      30.793 -11.202 -19.169  0.00  0.00    +0.027 C 
ATOM     17  C   UNL     1      30.309  -8.815 -18.669  0.00  0.00    +0.032 C 
ATOM     18  C   UNL     1      31.278 -12.210 -20.002  0.00  0.00    +0.144 C 
BRANCH  12  20
ATOM     19  N   UNL     1      32.201  -6.186 -21.611  0.00  0.00    -0.255 NA
ATOM     20  N   UNL     1      31.416  -8.237 -21.271  0.00  0.00    -0.282 N 
ATOM     21  C   UNL     1      30.953  -6.312 -22.168  0.00  0.00    +0.053 C 
ATOM     22  C   UNL     1      30.446  -7.575 -21.969  0.00  0.00    +0.134 C 
ATOM     23  C   UNL     1      32.451  -7.363 -21.080  0.00  0.00    +0.219 C 
BRANCH  21  24
ATOM     24  C   UNL     1      30.230  -5.191 -22.908  0.00  0.00    +0.037 C 
ATOM     25  C   UNL     1      30.985  -3.933 -23.222  0.00  0.00    +0.006 C 
ATOM     26  C   UNL     1      29.917  -3.925 -22.167  0.00  0.00    +0.006 C 
ENDBRANCH  21  24
ENDBRANCH  12  20
ENDBRANCH   3  15
BRANCH   6  30
ATOM     27  N   UNL     1      34.511 -19.088 -20.273  0.00  0.00    -0.252 N 
ATOM     28  N   UNL     1      36.484 -18.215 -20.639  0.00  0.00    -0.129 NA
ATOM     29  N   UNL     1      36.627 -19.256 -19.744  0.00  0.00    -0.128 NA
ATOM     30  C   UNL     1      35.208 -18.129 -20.943  0.00  0.00    +0.188 C 
ATOM     31  C   UNL     1      35.435 -19.767 -19.538  0.00  0.00    +0.192 C 
BRANCH  27  32
ATOM     32  C   UNL     1      33.093 -19.351 -20.315  0.00  0.00    +0.080 C 
ATOM     33  C   UNL     1      32.607 -19.590 -21.747  0.00  0.00    +0.022 C 
ATOM     34  C   UNL     1      32.711 -20.523 -19.408  0.00  0.00    +0.022 C 
ENDBRANCH  27  32
ENDBRANCH   6  30
TORSDOF 5
ENDMDL
MODEL 6
REMARK VINA RESULT:     -10.8      5.199      9.234
REMARK  Name = 71245288
REMARK  5 active torsions:
REMARK  status: ('A' for Active; 'I' for Inactive)
REMARK    1  A    between atoms: C_3  and  C_9
REMARK    2  A    between atoms: C_6  and  N_14
REMARK    3  A    between atoms: C_15  and  C_18
REMARK    4  A    between atoms: C_22  and  C_30
REMARK    5  A    between atoms: N_27  and  C_32
REMARK                            x       y       z     vdW  Elec       q    Type
REMARK                         _______ _______ _______ _____ _____    ______ ____
ROOT
ATOM      1  O   UNL     1      32.363 -14.293 -24.114  0.00  0.00    -0.270 OA
ATOM      2  N   UNL     1      33.299 -14.865 -22.040  0.00  0.00    -0.259 N 
ATOM      3  C   UNL     1      32.666 -14.002 -22.947  0.00  0.00    +0.253 C 
ATOM      4  H   UNL     1      33.476 -14.491 -21.147  0.00  0.00    +0.157 HD
ATOM      5  N   UNL     1      34.316 -16.853 -21.220  0.00  0.00    -0.388 NA
ATOM      6  C   UNL     1      34.700 -18.126 -21.460  0.00  0.00    +0.166 C 
ATOM      7  C   UNL     1      33.720 -16.202 -22.242  0.00  0.00    +0.167 C 
ATOM      8  C   UNL     1      34.515 -18.776 -22.670  0.00  0.00    +0.031 C 
ATOM      9  C   UNL     1      33.488 -16.762 -23.489  0.00  0.00    +0.101 C 
ATOM     10  C   UNL     1      33.897 -18.075 -23.699  0.00  0.00    -0.015 C 
ENDROOT
BRANCH   3  15
ATOM     11  F   UNL     1      31.191 -13.640 -20.584  0.00  0.00    -0.204 F 
ATOM     12  C   UNL     1      32.420 -10.277 -22.642  0.00  0.00    +0.046 C 
ATOM     13  C   UNL     1      31.685 -10.148 -21.463  0.00  0.00    -0.006 C 
ATOM     14  C   UNL     1      32.741 -11.544 -23.129  0.00  0.00    +0.021 C 
ATOM     15  C   UNL     1      32.328 -12.682 -22.436  0.00  0.00    +0.082 C 
ATOM     16  C   UNL     1      31.271 -11.286 -20.772  0.00  0.00    +0.027 C 
ATOM     17  C   UNL     1      31.322  -8.805 -20.915  0.00  0.00    +0.032 C 
ATOM     18  C   UNL     1      31.594 -12.553 -21.258  0.00  0.00    +0.144 C 
BRANCH  12  20
ATOM     19  N   UNL     1      34.186  -7.568 -24.112  0.00  0.00    -0.255 NA
ATOM     20  N   UNL     1      32.839  -9.160 -23.345  0.00  0.00    -0.282 N 
ATOM     21  C   UNL     1      32.924  -7.409 -24.628  0.00  0.00    +0.053 C 
ATOM     22  C   UNL     1      32.072  -8.384 -24.167  0.00  0.00    +0.134 C 
ATOM     23  C   UNL     1      34.101  -8.631 -23.343  0.00  0.00    +0.219 C 
BRANCH  21  24
ATOM     24  C   UNL     1      32.529  -6.292 -25.589  0.00  0.00    +0.037 C 
ATOM     25  C   UNL     1      33.604  -5.610 -26.384  0.00  0.00    +0.006 C 
ATOM     26  C   UNL     1      32.926  -4.883 -25.259  0.00  0.00    +0.006 C 
ENDBRANCH  21  24
ENDBRANCH  12  20
ENDBRANCH   3  15
BRANCH   6  30
ATOM     27  N   UNL     1      34.817 -19.874 -19.714  0.00  0.00    -0.252 N 
ATOM     28  N   UNL     1      36.470 -18.443 -19.787  0.00  0.00    -0.129 NA
ATOM     29  N   UNL     1      36.709 -19.332 -18.759  0.00  0.00    -0.128 NA
ATOM     30  C   UNL     1      35.332 -18.784 -20.346  0.00  0.00    +0.188 C 
ATOM     31  C   UNL     1      35.708 -20.183 -18.731  0.00  0.00    +0.192 C 
BRANCH  27  32
ATOM     32  C   UNL     1      33.590 -20.576 -20.004  0.00  0.00    +0.080 C 
ATOM     33  C   UNL     1      33.421 -21.808 -19.112  0.00  0.00    +0.022 C 
ATOM     34  C   UNL     1      32.374 -19.653 -19.895  0.00  0.00    +0.022 C 
ENDBRANCH  27  32
ENDBRANCH   6  30
TORSDOF 5
ENDMDL
MODEL 7
REMARK VINA RESULT:     -10.7      1.996     10.617
REMARK  Name = 71245288
REMARK  5 active torsions:
REMARK  status: ('A' for Active; 'I' for Inactive)
REMARK    1  A    between atoms: C_3  and  C_9
REMARK    2  A    between atoms: C_6  and  N_14
REMARK    3  A    between atoms: C_15  and  C_18
REMARK    4  A    between atoms: C_22  and  C_30
REMARK    5  A    between atoms: N_27  and  C_32
REMARK                            x       y       z     vdW  Elec       q    Type
REMARK                         _______ _______ _______ _____ _____    ______ ____
ROOT
ATOM      1  O   UNL     1      35.458 -21.668 -19.283  0.00  0.00    -0.270 OA
ATOM      2  N   UNL     1      34.027 -19.810 -19.201  0.00  0.00    -0.259 N 
ATOM      3  C   UNL     1      34.465 -21.086 -18.819  0.00  0.00    +0.253 C 
ATOM      4  H   UNL     1      33.220 -19.480 -18.744  0.00  0.00    +0.157 HD
ATOM      5  N   UNL     1      34.000 -17.739 -20.371  0.00  0.00    -0.388 NA
ATOM      6  C   UNL     1      34.575 -16.938 -21.295  0.00  0.00    +0.166 C 
ATOM      7  C   UNL     1      34.592 -18.934 -20.160  0.00  0.00    +0.167 C 
ATOM      8  C   UNL     1      35.711 -17.275 -22.014  0.00  0.00    +0.031 C 
ATOM      9  C   UNL     1      35.729 -19.365 -20.825  0.00  0.00    +0.101 C 
ATOM     10  C   UNL     1      36.293 -18.513 -21.769  0.00  0.00    -0.015 C 
ENDROOT
BRANCH   3  15
ATOM     11  F   UNL     1      31.659 -21.197 -18.893  0.00  0.00    -0.204 F 
ATOM     12  C   UNL     1      33.590 -22.965 -15.698  0.00  0.00    +0.046 C 
ATOM     13  C   UNL     1      32.197 -22.993 -15.779  0.00  0.00    -0.006 C 
ATOM     14  C   UNL     1      34.334 -22.337 -16.698  0.00  0.00    +0.021 C 
ATOM     15  C   UNL     1      33.686 -21.739 -17.779  0.00  0.00    +0.082 C 
ATOM     16  C   UNL     1      31.549 -22.395 -16.859  0.00  0.00    +0.027 C 
ATOM     17  C   UNL     1      31.370 -23.656 -14.725  0.00  0.00    +0.032 C 
ATOM     18  C   UNL     1      32.294 -21.768 -17.859  0.00  0.00    +0.144 C 
BRANCH  12  20
ATOM     19  N   UNL     1      35.299 -25.100 -13.433  0.00  0.00    -0.255 NA
ATOM     20  N   UNL     1      34.253 -23.552 -14.634  0.00  0.00    -0.282 N 
ATOM     21  C   UNL     1      35.217 -23.928 -12.724  0.00  0.00    +0.053 C 
ATOM     22  C   UNL     1      34.572 -22.953 -13.448  0.00  0.00    +0.134 C 
ATOM     23  C   UNL     1      34.710 -24.840 -14.578  0.00  0.00    +0.219 C 
BRANCH  21  24
ATOM     24  C   UNL     1      35.772 -23.740 -11.315  0.00  0.00    +0.037 C 
ATOM     25  C   UNL     1      36.522 -22.479 -10.999  0.00  0.00    +0.006 C 
ATOM     26  C   UNL     1      37.258 -23.782 -11.115  0.00  0.00    +0.006 C 
ENDBRANCH  21  24
ENDBRANCH  12  20
ENDBRANCH   3  15
BRANCH   6  30
ATOM     27  N   UNL     1      33.454 -15.232 -22.693  0.00  0.00    -0.252 N 
ATOM     28  N   UNL     1      33.658 -14.780 -20.562  0.00  0.00    -0.129 NA
ATOM     29  N   UNL     1      33.014 -13.723 -21.173  0.00  0.00    -0.128 NA
ATOM     30  C   UNL     1      33.914 -15.674 -21.490  0.00  0.00    +0.188 C 
ATOM     31  C   UNL     1      32.901 -14.012 -22.449  0.00  0.00    +0.192 C 
BRANCH  27  32
ATOM     32  C   UNL     1      33.524 -15.897 -23.972  0.00  0.00    +0.080 C 
ATOM     33  C   UNL     1      32.800 -17.246 -23.946  0.00  0.00    +0.022 C 
ATOM     34  C   UNL     1      32.984 -15.011 -25.097  0.00  0.00    +0.022 C 
ENDBRANCH  27  32
ENDBRANCH   6  30
TORSDOF 5
ENDMDL
MODEL 8
REMARK VINA RESULT:     -10.7      7.153     13.268
REMARK  Name = 71245288
REMARK  5 active torsions:
REMARK  status: ('A' for Active; 'I' for Inactive)
REMARK    1  A    between atoms: C_3  and  C_9
REMARK    2  A    between atoms: C_6  and  N_14
REMARK    3  A    between atoms: C_15  and  C_18
REMARK    4  A    between atoms: C_22  and  C_30
REMARK    5  A    between atoms: N_27  and  C_32
REMARK                            x       y       z     vdW  Elec       q    Type
REMARK                         _______ _______ _______ _____ _____    ______ ____
ROOT
ATOM      1  O   UNL     1      34.382 -10.712 -25.173  0.00  0.00    -0.270 OA
ATOM      2  N   UNL     1      32.780 -10.421 -23.484  0.00  0.00    -0.259 N 
ATOM      3  C   UNL     1      33.423 -11.132 -24.508  0.00  0.00    +0.253 C 
ATOM      4  H   UNL     1      32.031 -10.886 -23.045  0.00  0.00    +0.157 HD
ATOM      5  N   UNL     1      32.311  -8.627 -21.994  0.00  0.00    -0.388 NA
ATOM      6  C   UNL     1      32.621  -7.383 -21.565  0.00  0.00    +0.166 C 
ATOM      7  C   UNL     1      33.066  -9.122 -22.999  0.00  0.00    +0.167 C 
ATOM      8  C   UNL     1      33.648  -6.615 -22.092  0.00  0.00    +0.031 C 
ATOM      9  C   UNL     1      34.114  -8.435 -23.593  0.00  0.00    +0.101 C 
ATOM     10  C   UNL     1      34.403  -7.158 -23.124  0.00  0.00    -0.015 C 
ENDROOT
BRANCH   3  15
ATOM     11  F   UNL     1      31.426 -11.638 -26.417  0.00  0.00    -0.204 F 
ATOM     12  C   UNL     1      32.941 -14.841 -24.295  0.00  0.00    +0.046 C 
ATOM     13  C   UNL     1      31.948 -15.042 -25.255  0.00  0.00    -0.006 C 
ATOM     14  C   UNL     1      33.425 -13.556 -24.050  0.00  0.00    +0.021 C 
ATOM     15  C   UNL     1      32.916 -12.471 -24.765  0.00  0.00    +0.082 C 
ATOM     16  C   UNL     1      31.439 -13.958 -25.968  0.00  0.00    +0.027 C 
ATOM     17  C   UNL     1      31.407 -16.406 -25.541  0.00  0.00    +0.032 C 
ATOM     18  C   UNL     1      31.923 -12.672 -25.724  0.00  0.00    +0.144 C 
BRANCH  12  20
ATOM     19  N   UNL     1      34.189 -17.953 -23.121  0.00  0.00    -0.255 NA
ATOM     20  N   UNL     1      33.460 -15.904 -23.575  0.00  0.00    -0.282 N 
ATOM     21  C   UNL     1      34.283 -17.160 -22.005  0.00  0.00    +0.053 C 
ATOM     22  C   UNL     1      33.837 -15.885 -22.261  0.00  0.00    +0.134 C 
ATOM     23  C   UNL     1      33.690 -17.166 -24.049  0.00  0.00    +0.219 C 
BRANCH  21  24
ATOM     24  C   UNL     1      34.816 -17.640 -20.658  0.00  0.00    +0.037 C 
ATOM     25  C   UNL     1      36.082 -18.446 -20.630  0.00  0.00    +0.006 C 
ATOM     26  C   UNL     1      34.764 -19.106 -20.345  0.00  0.00    +0.006 C 
ENDBRANCH  21  24
ENDBRANCH  12  20
ENDBRANCH   3  15
BRANCH   6  30
ATOM     27  N   UNL     1      31.157  -7.694 -19.596  0.00  0.00    -0.252 N 
ATOM     28  N   UNL     1      31.535  -5.633 -20.227  0.00  0.00    -0.129 NA
ATOM     29  N   UNL     1      30.705  -5.607 -19.124  0.00  0.00    -0.128 NA
ATOM     30  C   UNL     1      31.794  -6.893 -20.495  0.00  0.00    +0.188 C 
ATOM     31  C   UNL     1      30.491  -6.850 -18.760  0.00  0.00    +0.192 C 
BRANCH  27  32
ATOM     32  C   UNL     1      31.170  -9.135 -19.521  0.00  0.00    +0.080 C 
ATOM     33  C   UNL     1      31.099  -9.624 -18.073  0.00  0.00    +0.022 C 
ATOM     34  C   UNL     1      30.048  -9.752 -20.360  0.00  0.00    +0.022 C 
ENDBRANCH  27  32
ENDBRANCH   6  30
TORSDOF 5
ENDMDL
MODEL 9
REMARK VINA RESULT:     -10.6      9.015     16.144
REMARK  Name = 71245288
REMARK  5 active torsions:
REMARK  status: ('A' for Active; 'I' for Inactive)
REMARK    1  A    between atoms: C_3  and  C_9
REMARK    2  A    between atoms: C_6  and  N_14
REMARK    3  A    between atoms: C_15  and  C_18
REMARK    4  A    between atoms: C_22  and  C_30
REMARK    5  A    between atoms: N_27  and  C_32
REMARK                            x       y       z     vdW  Elec       q    Type
REMARK                         _______ _______ _______ _____ _____    ______ ____
ROOT
ATOM      1  O   UNL     1      31.392  -7.214 -20.595  0.00  0.00    -0.270 OA
ATOM      2  N   UNL     1      31.564  -7.980 -22.807  0.00  0.00    -0.259 N 
ATOM      3  C   UNL     1      31.454  -8.141 -21.418  0.00  0.00    +0.253 C 
ATOM      4  H   UNL     1      31.603  -8.812 -23.332  0.00  0.00    +0.157 HD
ATOM      5  N   UNL     1      31.732  -6.857 -24.897  0.00  0.00    -0.388 NA
ATOM      6  C   UNL     1      31.790  -5.683 -25.565  0.00  0.00    +0.166 C 
ATOM      7  C   UNL     1      31.627  -6.778 -23.552  0.00  0.00    +0.167 C 
ATOM      8  C   UNL     1      31.746  -4.440 -24.954  0.00  0.00    +0.031 C 
ATOM      9  C   UNL     1      31.575  -5.586 -22.847  0.00  0.00    +0.101 C 
ATOM     10  C   UNL     1      31.637  -4.399 -23.569  0.00  0.00    -0.015 C 
ENDROOT
BRANCH   3  15
ATOM     11  F   UNL     1      30.335  -8.810 -18.931  0.00  0.00    -0.204 F 
ATOM     12  C   UNL     1      31.817 -11.867 -21.279  0.00  0.00    +0.046 C 
ATOM     13  C   UNL     1      31.252 -12.149 -20.035  0.00  0.00    -0.006 C 
ATOM     14  C   UNL     1      31.884 -10.549 -21.732  0.00  0.00    +0.021 C 
ATOM     15  C   UNL     1      31.384  -9.514 -20.942  0.00  0.00    +0.082 C 
ATOM     16  C   UNL     1      30.753 -11.114 -19.245  0.00  0.00    +0.027 C 
ATOM     17  C   UNL     1      31.167 -13.550 -19.519  0.00  0.00    +0.032 C 
ATOM     18  C   UNL     1      30.819  -9.797 -19.699  0.00  0.00    +0.144 C 
BRANCH  12  20
ATOM     19  N   UNL     1      32.580 -14.201 -23.846  0.00  0.00    -0.255 NA
ATOM     20  N   UNL     1      32.319 -12.880 -22.079  0.00  0.00    -0.282 N 
ATOM     21  C   UNL     1      33.457 -14.561 -22.853  0.00  0.00    +0.053 C 
ATOM     22  C   UNL     1      33.315 -13.756 -21.748  0.00  0.00    +0.134 C 
ATOM     23  C   UNL     1      31.910 -13.186 -23.347  0.00  0.00    +0.219 C 
BRANCH  21  24
ATOM     24  C   UNL     1      34.457 -15.707 -22.971  0.00  0.00    +0.037 C 
ATOM     25  C   UNL     1      33.951 -17.069 -23.346  0.00  0.00    +0.006 C 
ATOM     26  C   UNL     1      34.422 -16.802 -21.946  0.00  0.00    +0.006 C 
ENDBRANCH  21  24
ENDBRANCH  12  20
ENDBRANCH   3  15
BRANCH   6  30
ATOM     27  N   UNL     1      33.084  -5.819 -27.669  0.00  0.00    -0.252 N 
ATOM     28  N   UNL     1      30.907  -5.938 -27.843  0.00  0.00    -0.129 NA
ATOM     29  N   UNL     1      31.451  -6.031 -29.108  0.00  0.00    -0.128 NA
ATOM     30  C   UNL     1      31.901  -5.811 -26.995  0.00  0.00    +0.188 C 
ATOM     31  C   UNL     1      32.757  -5.958 -28.983  0.00  0.00    +0.192 C 
BRANCH  27  32
ATOM     32  C   UNL     1      34.418  -5.707 -27.129  0.00  0.00    +0.080 C 
ATOM     33  C   UNL     1      35.439  -6.456 -27.990  0.00  0.00    +0.022 C 
ATOM     34  C   UNL     1      34.830  -4.245 -26.944  0.00  0.00    +0.022 C 
ENDBRANCH  27  32
ENDBRANCH   6  30
TORSDOF 5
ENDMDL
