MODEL 1
REMARK VINA RESULT:     -12.9      0.000      0.000
REMARK  Name = 9800765
REMARK  5 active torsions:
REMARK  status: ('A' for Active; 'I' for Inactive)
REMARK    1  A    between atoms: C_3  and  C_17
REMARK    2  A    between atoms: C_5  and  N_8
REMARK    3  A    between atoms: N_8  and  C_14
REMARK    4  A    between atoms: C_17  and  C_20
REMARK    5  A    between atoms: C_23  and  C_26
REMARK                            x       y       z     vdW  Elec       q    Type
REMARK                         _______ _______ _______ _____ _____    ______ ____
ROOT
ATOM      1  O   UNL     1      35.998 -22.095 -15.222  0.00  0.00    -0.337 OA
ATOM      2  N   UNL     1      35.262 -22.168 -16.398  0.00  0.00    -0.079 NA
ATOM      3  C   UNL     1      34.040 -22.551 -16.018  0.00  0.00    +0.106 C 
ATOM      4  C   UNL     1      33.946 -22.733 -14.628  0.00  0.00    +0.076 C 
ATOM      5  C   UNL     1      35.200 -22.433 -14.184  0.00  0.00    +0.252 C 
ENDROOT
BRANCH   3   6
ATOM      6  C   UNL     1      32.981 -22.731 -17.025  0.00  0.00    +0.066 C 
ATOM      7  C   UNL     1      31.552 -22.758 -16.430  0.00  0.00    +0.011 C 
BRANCH   6   9
ATOM      8  F   UNL     1      35.946 -20.108 -19.846  0.00  0.00    -0.204 F 
ATOM      9  C   UNL     1      33.203 -21.680 -18.117  0.00  0.00    -0.015 C 
ATOM     10  C   UNL     1      34.492 -21.375 -18.482  0.00  0.00    +0.026 C 
ATOM     11  C   UNL     1      32.103 -21.084 -18.688  0.00  0.00    -0.004 C 
ATOM     12  C   UNL     1      33.600 -19.795 -20.077  0.00  0.00    +0.027 C 
ATOM     13  C   UNL     1      34.694 -20.418 -19.477  0.00  0.00    +0.140 C 
ATOM     14  C   UNL     1      32.305 -20.128 -19.682  0.00  0.00    +0.002 C 
BRANCH  12  15
ATOM     15  C   UNL     1      33.804 -18.802 -21.111  0.00  0.00    +0.002 C 
ATOM     16  C   UNL     1      34.353 -17.561 -20.785  0.00  0.00    +0.000 C 
ATOM     17  C   UNL     1      33.455 -19.087 -22.430  0.00  0.00    +0.000 C 
ATOM     18  C   UNL     1      34.551 -16.605 -21.781  0.00  0.00    +0.000 C 
ATOM     19  C   UNL     1      33.653 -18.130 -23.426  0.00  0.00    +0.000 C 
ATOM     20  C   UNL     1      34.200 -16.888 -23.102  0.00  0.00    +0.000 C 
ENDBRANCH  12  15
ENDBRANCH   6   9
ENDBRANCH   3   6
BRANCH   5  21
ATOM     21  N   UNL     1      35.690 -22.439 -12.912  0.00  0.00    -0.147 NA
BRANCH  21  29
ATOM     22  O   UNL     1      37.839 -26.665 -13.771  0.00  0.00    -0.350 OA
ATOM     23  N   UNL     1      36.415 -24.596 -12.532  0.00  0.00    -0.277 N 
ATOM     24  N   UNL     1      34.744 -23.859 -11.198  0.00  0.00    -0.373 N 
ATOM     25  C   UNL     1      36.009 -25.985 -12.333  0.00  0.00    +0.125 C 
ATOM     26  C   UNL     1      37.820 -24.408 -12.883  0.00  0.00    +0.125 C 
ATOM     27  C   UNL     1      36.437 -26.813 -13.539  0.00  0.00    +0.164 C 
ATOM     28  C   UNL     1      38.168 -25.305 -14.065  0.00  0.00    +0.164 C 
ATOM     29  C   UNL     1      35.601 -23.558 -12.237  0.00  0.00    +0.182 C 
ATOM     30  H   UNL     1      34.779 -24.746 -10.772  0.00  0.00    +0.158 HD
ATOM     31  H   UNL     1      34.097 -23.188 -10.883  0.00  0.00    +0.158 HD
ENDBRANCH  21  29
ENDBRANCH   5  21
TORSDOF 5
ENDMDL
MODEL 2
REMARK VINA RESULT:     -11.9      1.834      2.624
REMARK  Name = 9800765
REMARK  5 active torsions:
REMARK  status: ('A' for Active; 'I' for Inactive)
REMARK    1  A    between atoms: C_3  and  C_17
REMARK    2  A    between atoms: C_5  and  N_8
REMARK    3  A    between atoms: N_8  and  C_14
REMARK    4  A    between atoms: C_17  and  C_20
REMARK    5  A    between atoms: C_23  and  C_26
REMARK                            x       y       z     vdW  Elec       q    Type
REMARK                         _______ _______ _______ _____ _____    ______ ____
ROOT
ATOM      1  O   UNL     1      34.434 -23.202 -13.901  0.00  0.00    -0.337 OA
ATOM      2  N   UNL     1      33.408 -22.553 -14.578  0.00  0.00    -0.079 NA
ATOM      3  C   UNL     1      33.028 -23.409 -15.531  0.00  0.00    +0.106 C 
ATOM      4  C   UNL     1      33.771 -24.602 -15.504  0.00  0.00    +0.076 C 
ATOM      5  C   UNL     1      34.633 -24.415 -14.464  0.00  0.00    +0.252 C 
ENDROOT
BRANCH   3   6
ATOM      6  C   UNL     1      31.941 -23.045 -16.454  0.00  0.00    +0.066 C 
ATOM      7  C   UNL     1      30.679 -22.494 -15.746  0.00  0.00    +0.011 C 
BRANCH   6   9
ATOM      8  F   UNL     1      35.758 -21.325 -18.925  0.00  0.00    -0.204 F 
ATOM      9  C   UNL     1      32.536 -22.119 -17.520  0.00  0.00    -0.015 C 
ATOM     10  C   UNL     1      33.893 -22.150 -17.734  0.00  0.00    +0.026 C 
ATOM     11  C   UNL     1      31.688 -21.293 -18.220  0.00  0.00    -0.004 C 
ATOM     12  C   UNL     1      33.603 -20.457 -19.432  0.00  0.00    +0.027 C 
ATOM     13  C   UNL     1      34.435 -21.307 -18.704  0.00  0.00    +0.140 C 
ATOM     14  C   UNL     1      32.230 -20.450 -19.190  0.00  0.00    +0.002 C 
BRANCH  12  15
ATOM     15  C   UNL     1      34.160 -19.582 -20.441  0.00  0.00    +0.002 C 
ATOM     16  C   UNL     1      33.421 -19.280 -21.586  0.00  0.00    +0.000 C 
ATOM     17  C   UNL     1      35.433 -19.039 -20.269  0.00  0.00    +0.000 C 
ATOM     18  C   UNL     1      33.957 -18.436 -22.558  0.00  0.00    +0.000 C 
ATOM     19  C   UNL     1      35.968 -18.194 -21.242  0.00  0.00    +0.000 C 
ATOM     20  C   UNL     1      35.231 -17.893 -22.387  0.00  0.00    +0.000 C 
ENDBRANCH  12  15
ENDBRANCH   6   9
ENDBRANCH   3   6
BRANCH   5  21
ATOM     21  N   UNL     1      35.592 -25.251 -13.978  0.00  0.00    -0.147 NA
BRANCH  21  29
ATOM     22  O   UNL     1      35.701 -23.426  -9.519  0.00  0.00    -0.350 OA
ATOM     23  N   UNL     1      36.483 -24.408 -12.023  0.00  0.00    -0.277 N 
ATOM     24  N   UNL     1      37.842 -24.376 -13.831  0.00  0.00    -0.373 N 
ATOM     25  C   UNL     1      37.210 -23.298 -11.413  0.00  0.00    +0.125 C 
ATOM     26  C   UNL     1      35.784 -25.279 -11.083  0.00  0.00    +0.125 C 
ATOM     27  C   UNL     1      36.277 -22.537 -10.478  0.00  0.00    +0.164 C 
ATOM     28  C   UNL     1      34.913 -24.432 -10.163  0.00  0.00    +0.164 C 
ATOM     29  C   UNL     1      36.597 -24.710 -13.336  0.00  0.00    +0.182 C 
ATOM     30  H   UNL     1      38.515 -23.969 -13.238  0.00  0.00    +0.158 HD
ATOM     31  H   UNL     1      38.057 -24.544 -14.777  0.00  0.00    +0.158 HD
ENDBRANCH  21  29
ENDBRANCH   5  21
TORSDOF 5
ENDMDL
MODEL 3
REMARK VINA RESULT:     -11.8      1.645      2.364
REMARK  Name = 9800765
REMARK  5 active torsions:
REMARK  status: ('A' for Active; 'I' for Inactive)
REMARK    1  A    between atoms: C_3  and  C_17
REMARK    2  A    between atoms: C_5  and  N_8
REMARK    3  A    between atoms: N_8  and  C_14
REMARK    4  A    between atoms: C_17  and  C_20
REMARK    5  A    between atoms: C_23  and  C_26
REMARK                            x       y       z     vdW  Elec       q    Type
REMARK                         _______ _______ _______ _____ _____    ______ ____
ROOT
ATOM      1  O   UNL     1      36.549 -20.904 -16.255  0.00  0.00    -0.337 OA
ATOM      2  N   UNL     1      35.923 -20.873 -17.495  0.00  0.00    -0.079 NA
ATOM      3  C   UNL     1      34.951 -21.786 -17.414  0.00  0.00    +0.106 C 
ATOM      4  C   UNL     1      34.916 -22.418 -16.160  0.00  0.00    +0.076 C 
ATOM      5  C   UNL     1      35.937 -21.825 -15.478  0.00  0.00    +0.252 C 
ENDROOT
BRANCH   3   6
ATOM      6  C   UNL     1      34.070 -22.024 -18.569  0.00  0.00    +0.066 C 
ATOM      7  C   UNL     1      32.667 -22.555 -18.185  0.00  0.00    +0.011 C 
BRANCH   6   9
ATOM      8  F   UNL     1      36.429 -18.525 -20.980  0.00  0.00    -0.204 F 
ATOM      9  C   UNL     1      34.064 -20.746 -19.413  0.00  0.00    -0.015 C 
ATOM     10  C   UNL     1      35.268 -20.217 -19.813  0.00  0.00    +0.026 C 
ATOM     11  C   UNL     1      32.854 -20.177 -19.736  0.00  0.00    -0.004 C 
ATOM     12  C   UNL     1      34.053 -18.451 -20.926  0.00  0.00    +0.027 C 
ATOM     13  C   UNL     1      35.263 -19.053 -20.581  0.00  0.00    +0.140 C 
ATOM     14  C   UNL     1      32.849 -19.013 -20.503  0.00  0.00    +0.002 C 
BRANCH  12  15
ATOM     15  C   UNL     1      34.042 -17.244 -21.725  0.00  0.00    +0.002 C 
ATOM     16  C   UNL     1      33.971 -15.998 -21.101  0.00  0.00    +0.000 C 
ATOM     17  C   UNL     1      34.103 -17.326 -23.115  0.00  0.00    +0.000 C 
ATOM     18  C   UNL     1      33.962 -14.834 -21.870  0.00  0.00    +0.000 C 
ATOM     19  C   UNL     1      34.093 -16.162 -23.883  0.00  0.00    +0.000 C 
ATOM     20  C   UNL     1      34.022 -14.915 -23.261  0.00  0.00    +0.000 C 
ENDBRANCH  12  15
ENDBRANCH   6   9
ENDBRANCH   3   6
BRANCH   5  21
ATOM     21  N   UNL     1      36.368 -22.048 -14.204  0.00  0.00    -0.147 NA
BRANCH  21  29
ATOM     22  O   UNL     1      35.216 -24.963 -10.544  0.00  0.00    -0.350 OA
ATOM     23  N   UNL     1      36.266 -23.981 -12.948  0.00  0.00    -0.277 N 
ATOM     24  N   UNL     1      37.895 -23.896 -14.514  0.00  0.00    -0.373 N 
ATOM     25  C   UNL     1      37.028 -24.943 -12.156  0.00  0.00    +0.125 C 
ATOM     26  C   UNL     1      34.820 -24.021 -12.744  0.00  0.00    +0.125 C 
ATOM     27  C   UNL     1      36.630 -24.816 -10.690  0.00  0.00    +0.164 C 
ATOM     28  C   UNL     1      34.519 -23.934 -11.253  0.00  0.00    +0.164 C 
ATOM     29  C   UNL     1      36.836 -23.238 -13.924  0.00  0.00    +0.182 C 
ATOM     30  H   UNL     1      38.149 -24.797 -14.206  0.00  0.00    +0.158 HD
ATOM     31  H   UNL     1      38.400 -23.466 -15.242  0.00  0.00    +0.158 HD
ENDBRANCH  21  29
ENDBRANCH   5  21
TORSDOF 5
ENDMDL
MODEL 4
REMARK VINA RESULT:     -11.5      4.313      9.507
REMARK  Name = 9800765
REMARK  5 active torsions:
REMARK  status: ('A' for Active; 'I' for Inactive)
REMARK    1  A    between atoms: C_3  and  C_17
REMARK    2  A    between atoms: C_5  and  N_8
REMARK    3  A    between atoms: N_8  and  C_14
REMARK    4  A    between atoms: C_17  and  C_20
REMARK    5  A    between atoms: C_23  and  C_26
REMARK                            x       y       z     vdW  Elec       q    Type
REMARK                         _______ _______ _______ _____ _____    ______ ____
ROOT
ATOM      1  O   UNL     1      35.359 -19.078 -20.057  0.00  0.00    -0.337 OA
ATOM      2  N   UNL     1      35.990 -19.815 -19.062  0.00  0.00    -0.079 NA
ATOM      3  C   UNL     1      35.069 -20.687 -18.641  0.00  0.00    +0.106 C 
ATOM      4  C   UNL     1      33.850 -20.548 -19.327  0.00  0.00    +0.076 C 
ATOM      5  C   UNL     1      34.092 -19.528 -20.199  0.00  0.00    +0.252 C 
ENDROOT
BRANCH   3   6
ATOM      6  C   UNL     1      35.399 -21.644 -17.573  0.00  0.00    +0.066 C 
ATOM      7  C   UNL     1      36.451 -21.118 -16.566  0.00  0.00    +0.011 C 
BRANCH   6   9
ATOM      8  F   UNL     1      32.839 -23.173 -13.734  0.00  0.00    -0.204 F 
ATOM      9  C   UNL     1      34.079 -22.100 -16.942  0.00  0.00    -0.015 C 
ATOM     10  C   UNL     1      34.068 -22.431 -15.609  0.00  0.00    +0.026 C 
ATOM     11  C   UNL     1      32.957 -22.160 -17.736  0.00  0.00    -0.004 C 
ATOM     12  C   UNL     1      31.711 -22.918 -15.812  0.00  0.00    +0.027 C 
ATOM     13  C   UNL     1      32.866 -22.846 -15.034  0.00  0.00    +0.140 C 
ATOM     14  C   UNL     1      31.756 -22.575 -17.162  0.00  0.00    +0.002 C 
BRANCH  12  15
ATOM     15  C   UNL     1      30.461 -23.346 -15.220  0.00  0.00    +0.002 C 
ATOM     16  C   UNL     1      29.282 -22.658 -15.509  0.00  0.00    +0.000 C 
ATOM     17  C   UNL     1      30.435 -24.446 -14.363  0.00  0.00    +0.000 C 
ATOM     18  C   UNL     1      28.078 -23.071 -14.941  0.00  0.00    +0.000 C 
ATOM     19  C   UNL     1      29.230 -24.858 -13.795  0.00  0.00    +0.000 C 
ATOM     20  C   UNL     1      28.051 -24.170 -14.082  0.00  0.00    +0.000 C 
ENDBRANCH  12  15
ENDBRANCH   6   9
ENDBRANCH   3   6
BRANCH   5  21
ATOM     21  N   UNL     1      33.259 -18.964 -21.119  0.00  0.00    -0.147 NA
BRANCH  21  29
ATOM     22  O   UNL     1      33.625 -14.650 -23.233  0.00  0.00    -0.350 OA
ATOM     23  N   UNL     1      33.938 -17.370 -22.642  0.00  0.00    -0.277 N 
ATOM     24  N   UNL     1      34.179 -19.525 -23.283  0.00  0.00    -0.373 N 
ATOM     25  C   UNL     1      33.869 -16.927 -24.032  0.00  0.00    +0.125 C 
ATOM     26  C   UNL     1      34.397 -16.358 -21.694  0.00  0.00    +0.125 C 
ATOM     27  C   UNL     1      33.068 -15.632 -24.109  0.00  0.00    +0.164 C 
ATOM     28  C   UNL     1      33.573 -15.089 -21.874  0.00  0.00    +0.164 C 
ATOM     29  C   UNL     1      33.766 -18.663 -22.288  0.00  0.00    +0.182 C 
ATOM     30  H   UNL     1      34.545 -19.166 -24.125  0.00  0.00    +0.158 HD
ATOM     31  H   UNL     1      34.108 -20.498 -23.154  0.00  0.00    +0.158 HD
ENDBRANCH  21  29
ENDBRANCH   5  21
TORSDOF 5
ENDMDL
MODEL 5
REMARK VINA RESULT:     -11.5     10.356     14.167
REMARK  Name = 9800765
REMARK  5 active torsions:
REMARK  status: ('A' for Active; 'I' for Inactive)
REMARK    1  A    between atoms: C_3  and  C_17
REMARK    2  A    between atoms: C_5  and  N_8
REMARK    3  A    between atoms: N_8  and  C_14
REMARK    4  A    between atoms: C_17  and  C_20
REMARK    5  A    between atoms: C_23  and  C_26
REMARK                            x       y       z     vdW  Elec       q    Type
REMARK                         _______ _______ _______ _____ _____    ______ ____
ROOT
ATOM      1  O   UNL     1      31.271 -11.711 -19.390  0.00  0.00    -0.337 OA
ATOM      2  N   UNL     1      31.083 -10.402 -18.965  0.00  0.00    -0.079 NA
ATOM      3  C   UNL     1      30.878  -9.702 -20.084  0.00  0.00    +0.106 C 
ATOM      4  C   UNL     1      30.926 -10.508 -21.234  0.00  0.00    +0.076 C 
ATOM      5  C   UNL     1      31.174 -11.754 -20.737  0.00  0.00    +0.252 C 
ENDROOT
BRANCH   3   6
ATOM      6  C   UNL     1      30.638  -8.252 -20.009  0.00  0.00    +0.066 C 
ATOM      7  C   UNL     1      31.025  -7.624 -18.648  0.00  0.00    +0.011 C 
BRANCH   6   9
ATOM      8  F   UNL     1      34.615  -6.657 -22.303  0.00  0.00    -0.204 F 
ATOM      9  C   UNL     1      31.312  -7.612 -21.227  0.00  0.00    -0.015 C 
ATOM     10  C   UNL     1      32.673  -7.427 -21.203  0.00  0.00    +0.026 C 
ATOM     11  C   UNL     1      30.527  -7.247 -22.296  0.00  0.00    -0.004 C 
ATOM     12  C   UNL     1      32.521  -6.463 -23.412  0.00  0.00    +0.027 C 
ATOM     13  C   UNL     1      33.287  -6.845 -22.311  0.00  0.00    +0.140 C 
ATOM     14  C   UNL     1      31.141  -6.664 -23.405  0.00  0.00    +0.002 C 
BRANCH  12  15
ATOM     15  C   UNL     1      33.153  -5.859 -24.565  0.00  0.00    +0.002 C 
ATOM     16  C   UNL     1      33.192  -4.470 -24.691  0.00  0.00    +0.000 C 
ATOM     17  C   UNL     1      33.725  -6.665 -25.550  0.00  0.00    +0.000 C 
ATOM     18  C   UNL     1      33.802  -3.888 -25.801  0.00  0.00    +0.000 C 
ATOM     19  C   UNL     1      34.335  -6.082 -26.660  0.00  0.00    +0.000 C 
ATOM     20  C   UNL     1      34.373  -4.693 -26.787  0.00  0.00    +0.000 C 
ENDBRANCH  12  15
ENDBRANCH   6   9
ENDBRANCH   3   6
BRANCH   5  21
ATOM     21  N   UNL     1      31.323 -12.934 -21.402  0.00  0.00    -0.147 NA
BRANCH  21  29
ATOM     22  O   UNL     1      33.512 -15.319 -24.971  0.00  0.00    -0.350 OA
ATOM     23  N   UNL     1      33.030 -13.953 -22.574  0.00  0.00    -0.277 N 
ATOM     24  N   UNL     1      33.392 -13.633 -20.365  0.00  0.00    -0.373 N 
ATOM     25  C   UNL     1      33.969 -15.071 -22.602  0.00  0.00    +0.125 C 
ATOM     26  C   UNL     1      32.838 -13.275 -23.853  0.00  0.00    +0.125 C 
ATOM     27  C   UNL     1      33.586 -16.023 -23.729  0.00  0.00    +0.164 C 
ATOM     28  C   UNL     1      32.505 -14.305 -24.925  0.00  0.00    +0.164 C 
ATOM     29  C   UNL     1      32.517 -13.471 -21.419  0.00  0.00    +0.182 C 
ATOM     30  H   UNL     1      34.268 -14.059 -20.512  0.00  0.00    +0.158 HD
ATOM     31  H   UNL     1      33.141 -13.324 -19.464  0.00  0.00    +0.158 HD
ENDBRANCH  21  29
ENDBRANCH   5  21
TORSDOF 5
ENDMDL
MODEL 6
REMARK VINA RESULT:     -11.4      5.606     11.144
REMARK  Name = 9800765
REMARK  5 active torsions:
REMARK  status: ('A' for Active; 'I' for Inactive)
REMARK    1  A    between atoms: C_3  and  C_17
REMARK    2  A    between atoms: C_5  and  N_8
REMARK    3  A    between atoms: N_8  and  C_14
REMARK    4  A    between atoms: C_17  and  C_20
REMARK    5  A    between atoms: C_23  and  C_26
REMARK                            x       y       z     vdW  Elec       q    Type
REMARK                         _______ _______ _______ _____ _____    ______ ____
ROOT
ATOM      1  O   UNL     1      34.189 -15.765 -20.727  0.00  0.00    -0.337 OA
ATOM      2  N   UNL     1      34.030 -17.139 -20.594  0.00  0.00    -0.079 NA
ATOM      3  C   UNL     1      33.804 -17.583 -21.834  0.00  0.00    +0.106 C 
ATOM      4  C   UNL     1      33.809 -16.544 -22.781  0.00  0.00    +0.076 C 
ATOM      5  C   UNL     1      34.055 -15.433 -22.031  0.00  0.00    +0.252 C 
ENDROOT
BRANCH   3   6
ATOM      6  C   UNL     1      33.587 -19.019 -22.072  0.00  0.00    +0.066 C 
ATOM      7  C   UNL     1      34.366 -19.575 -23.289  0.00  0.00    +0.011 C 
BRANCH   6   9
ATOM      8  F   UNL     1      31.988 -21.303 -18.090  0.00  0.00    -0.204 F 
ATOM      9  C   UNL     1      33.855 -19.748 -20.751  0.00  0.00    -0.015 C 
ATOM     10  C   UNL     1      32.782 -20.196 -20.019  0.00  0.00    +0.026 C 
ATOM     11  C   UNL     1      35.159 -19.924 -20.350  0.00  0.00    -0.004 C 
ATOM     12  C   UNL     1      34.335 -21.055 -18.381  0.00  0.00    +0.027 C 
ATOM     13  C   UNL     1      33.025 -20.860 -18.817  0.00  0.00    +0.140 C 
ATOM     14  C   UNL     1      35.402 -20.587 -19.148  0.00  0.00    +0.002 C 
BRANCH  12  15
ATOM     15  C   UNL     1      34.593 -21.744 -17.135  0.00  0.00    +0.002 C 
ATOM     16  C   UNL     1      33.580 -22.488 -16.528  0.00  0.00    +0.000 C 
ATOM     17  C   UNL     1      35.853 -21.666 -16.542  0.00  0.00    +0.000 C 
ATOM     18  C   UNL     1      33.828 -23.154 -15.328  0.00  0.00    +0.000 C 
ATOM     19  C   UNL     1      36.100 -22.332 -15.341  0.00  0.00    +0.000 C 
ATOM     20  C   UNL     1      35.088 -23.075 -14.733  0.00  0.00    +0.000 C 
ENDBRANCH  12  15
ENDBRANCH   6   9
ENDBRANCH   3   6
BRANCH   5  21
ATOM     21  N   UNL     1      34.169 -14.134 -22.426  0.00  0.00    -0.147 NA
BRANCH  21  29
ATOM     22  O   UNL     1      32.712 -10.049 -24.527  0.00  0.00    -0.350 OA
ATOM     23  N   UNL     1      32.846 -12.293 -22.856  0.00  0.00    -0.277 N 
ATOM     24  N   UNL     1      32.533 -13.297 -20.854  0.00  0.00    -0.373 N 
ATOM     25  C   UNL     1      32.346 -11.022 -22.336  0.00  0.00    +0.125 C 
ATOM     26  C   UNL     1      32.713 -12.464 -24.300  0.00  0.00    +0.125 C 
ATOM     27  C   UNL     1      32.961  -9.876 -23.130  0.00  0.00    +0.164 C 
ATOM     28  C   UNL     1      33.312 -11.255 -25.008  0.00  0.00    +0.164 C 
ATOM     29  C   UNL     1      33.233 -13.302 -22.043  0.00  0.00    +0.182 C 
ATOM     30  H   UNL     1      31.849 -12.609 -20.688  0.00  0.00    +0.158 HD
ATOM     31  H   UNL     1      32.719 -13.981 -20.171  0.00  0.00    +0.158 HD
ENDBRANCH  21  29
ENDBRANCH   5  21
TORSDOF 5
ENDMDL
MODEL 7
REMARK VINA RESULT:     -11.3      3.983      7.159
REMARK  Name = 9800765
REMARK  5 active torsions:
REMARK  status: ('A' for Active; 'I' for Inactive)
REMARK    1  A    between atoms: C_3  and  C_17
REMARK    2  A    between atoms: C_5  and  N_8
REMARK    3  A    between atoms: N_8  and  C_14
REMARK    4  A    between atoms: C_17  and  C_20
REMARK    5  A    between atoms: C_23  and  C_26
REMARK                            x       y       z     vdW  Elec       q    Type
REMARK                         _______ _______ _______ _____ _____    ______ ____
ROOT
ATOM      1  O   UNL     1      35.032 -18.766 -19.873  0.00  0.00    -0.337 OA
ATOM      2  N   UNL     1      35.296 -17.887 -20.916  0.00  0.00    -0.079 NA
ATOM      3  C   UNL     1      34.322 -18.100 -21.804  0.00  0.00    +0.106 C 
ATOM      4  C   UNL     1      33.422 -19.093 -21.380  0.00  0.00    +0.076 C 
ATOM      5  C   UNL     1      33.917 -19.472 -20.167  0.00  0.00    +0.252 C 
ENDROOT
BRANCH   3   6
ATOM      6  C   UNL     1      34.286 -17.327 -23.055  0.00  0.00    +0.066 C 
ATOM      7  C   UNL     1      33.583 -18.060 -24.224  0.00  0.00    +0.011 C 
BRANCH   6   9
ATOM      8  F   UNL     1      33.548 -13.679 -19.929  0.00  0.00    -0.204 F 
ATOM      9  C   UNL     1      33.710 -15.946 -22.725  0.00  0.00    -0.015 C 
ATOM     10  C   UNL     1      33.898 -15.442 -21.460  0.00  0.00    +0.026 C 
ATOM     11  C   UNL     1      33.028 -15.266 -23.706  0.00  0.00    -0.004 C 
ATOM     12  C   UNL     1      32.676 -13.469 -22.131  0.00  0.00    +0.027 C 
ATOM     13  C   UNL     1      33.374 -14.185 -21.158  0.00  0.00    +0.140 C 
ATOM     14  C   UNL     1      32.503 -14.010 -23.405  0.00  0.00    +0.002 C 
BRANCH  12  15
ATOM     15  C   UNL     1      32.132 -12.164 -21.824  0.00  0.00    +0.002 C 
ATOM     16  C   UNL     1      32.515 -11.054 -22.578  0.00  0.00    +0.000 C 
ATOM     17  C   UNL     1      31.224 -12.015 -20.776  0.00  0.00    +0.000 C 
ATOM     18  C   UNL     1      31.990  -9.797 -22.284  0.00  0.00    +0.000 C 
ATOM     19  C   UNL     1      30.699 -10.757 -20.482  0.00  0.00    +0.000 C 
ATOM     20  C   UNL     1      31.082  -9.647 -21.235  0.00  0.00    +0.000 C 
ENDBRANCH  12  15
ENDBRANCH   6   9
ENDBRANCH   3   6
BRANCH   5  21
ATOM     21  N   UNL     1      33.444 -20.408 -19.297  0.00  0.00    -0.147 NA
BRANCH  21  29
ATOM     22  O   UNL     1      32.839 -23.160 -15.388  0.00  0.00    -0.350 OA
ATOM     23  N   UNL     1      33.928 -21.989 -17.688  0.00  0.00    -0.277 N 
ATOM     24  N   UNL     1      35.687 -21.203 -18.871  0.00  0.00    -0.373 N 
ATOM     25  C   UNL     1      34.794 -22.337 -16.564  0.00  0.00    +0.125 C 
ATOM     26  C   UNL     1      32.692 -22.761 -17.776  0.00  0.00    +0.125 C 
ATOM     27  C   UNL     1      33.982 -22.309 -15.275  0.00  0.00    +0.164 C 
ATOM     28  C   UNL     1      31.972 -22.715 -16.434  0.00  0.00    +0.164 C 
ATOM     29  C   UNL     1      34.324 -21.148 -18.669  0.00  0.00    +0.182 C 
ATOM     30  H   UNL     1      36.242 -21.807 -18.326  0.00  0.00    +0.158 HD
ATOM     31  H   UNL     1      36.107 -20.638 -19.560  0.00  0.00    +0.158 HD
ENDBRANCH  21  29
ENDBRANCH   5  21
TORSDOF 5
ENDMDL
MODEL 8
REMARK VINA RESULT:     -11.2     10.382     14.204
REMARK  Name = 9800765
REMARK  5 active torsions:
REMARK  status: ('A' for Active; 'I' for Inactive)
REMARK    1  A    between atoms: C_3  and  C_17
REMARK    2  A    between atoms: C_5  and  N_8
REMARK    3  A    between atoms: N_8  and  C_14
REMARK    4  A    between atoms: C_17  and  C_20
REMARK    5  A    between atoms: C_23  and  C_26
REMARK                            x       y       z     vdW  Elec       q    Type
REMARK                         _______ _______ _______ _____ _____    ______ ____
ROOT
ATOM      1  O   UNL     1      31.405 -11.790 -19.337  0.00  0.00    -0.337 OA
ATOM      2  N   UNL     1      31.187 -10.487 -18.909  0.00  0.00    -0.079 NA
ATOM      3  C   UNL     1      30.883  -9.805 -20.017  0.00  0.00    +0.106 C 
ATOM      4  C   UNL     1      30.892 -10.619 -21.163  0.00  0.00    +0.076 C 
ATOM      5  C   UNL     1      31.225 -11.848 -20.675  0.00  0.00    +0.252 C 
ENDROOT
BRANCH   3   6
ATOM      6  C   UNL     1      30.585  -8.366 -19.935  0.00  0.00    +0.066 C 
ATOM      7  C   UNL     1      30.936  -7.732 -18.567  0.00  0.00    +0.011 C 
BRANCH   6   9
ATOM      8  F   UNL     1      30.340  -6.574 -24.447  0.00  0.00    -0.204 F 
ATOM      9  C   UNL     1      31.244  -7.693 -21.143  0.00  0.00    -0.015 C 
ATOM     10  C   UNL     1      30.476  -7.440 -22.254  0.00  0.00    +0.026 C 
ATOM     11  C   UNL     1      32.579  -7.369 -21.068  0.00  0.00    -0.004 C 
ATOM     12  C   UNL     1      32.427  -6.485 -23.311  0.00  0.00    +0.027 C 
ATOM     13  C   UNL     1      31.076  -6.827 -23.354  0.00  0.00    +0.140 C 
ATOM     14  C   UNL     1      33.179  -6.756 -22.167  0.00  0.00    +0.002 C 
BRANCH  12  15
ATOM     15  C   UNL     1      33.054  -5.848 -24.448  0.00  0.00    +0.002 C 
ATOM     16  C   UNL     1      33.702  -6.623 -25.412  0.00  0.00    +0.000 C 
ATOM     17  C   UNL     1      33.011  -4.460 -24.583  0.00  0.00    +0.000 C 
ATOM     18  C   UNL     1      34.305  -6.009 -26.509  0.00  0.00    +0.000 C 
ATOM     19  C   UNL     1      33.615  -3.847 -25.681  0.00  0.00    +0.000 C 
ATOM     20  C   UNL     1      34.263  -4.621 -26.644  0.00  0.00    +0.000 C 
ENDBRANCH  12  15
ENDBRANCH   6   9
ENDBRANCH   3   6
BRANCH   5  21
ATOM     21  N   UNL     1      31.381 -13.027 -21.342  0.00  0.00    -0.147 NA
BRANCH  21  29
ATOM     22  O   UNL     1      33.535 -15.389 -24.947  0.00  0.00    -0.350 OA
ATOM     23  N   UNL     1      33.080 -14.020 -22.546  0.00  0.00    -0.277 N 
ATOM     24  N   UNL     1      33.486 -13.682 -20.348  0.00  0.00    -0.373 N 
ATOM     25  C   UNL     1      34.040 -15.120 -22.591  0.00  0.00    +0.125 C 
ATOM     26  C   UNL     1      32.847 -13.352 -23.824  0.00  0.00    +0.125 C 
ATOM     27  C   UNL     1      33.650 -16.085 -23.704  0.00  0.00    +0.164 C 
ATOM     28  C   UNL     1      32.510 -14.394 -24.883  0.00  0.00    +0.164 C 
ATOM     29  C   UNL     1      32.584 -13.542 -21.383  0.00  0.00    +0.182 C 
ATOM     30  H   UNL     1      34.366 -14.092 -20.513  0.00  0.00    +0.158 HD
ATOM     31  H   UNL     1      33.249 -13.373 -19.443  0.00  0.00    +0.158 HD
ENDBRANCH  21  29
ENDBRANCH   5  21
TORSDOF 5
ENDMDL
MODEL 9
REMARK VINA RESULT:     -11.1      3.834      9.007
REMARK  Name = 9800765
REMARK  5 active torsions:
REMARK  status: ('A' for Active; 'I' for Inactive)
REMARK    1  A    between atoms: C_3  and  C_17
REMARK    2  A    between atoms: C_5  and  N_8
REMARK    3  A    between atoms: N_8  and  C_14
REMARK    4  A    between atoms: C_17  and  C_20
REMARK    5  A    between atoms: C_23  and  C_26
REMARK                            x       y       z     vdW  Elec       q    Type
REMARK                         _______ _______ _______ _____ _____    ______ ____
ROOT
ATOM      1  O   UNL     1      36.295 -19.368 -18.776  0.00  0.00    -0.337 OA
ATOM      2  N   UNL     1      36.485 -20.054 -17.583  0.00  0.00    -0.079 NA
ATOM      3  C   UNL     1      35.722 -21.146 -17.687  0.00  0.00    +0.106 C 
ATOM      4  C   UNL     1      35.035 -21.202 -18.912  0.00  0.00    +0.076 C 
ATOM      5  C   UNL     1      35.434 -20.065 -19.550  0.00  0.00    +0.252 C 
ENDROOT
BRANCH   3   6
ATOM      6  C   UNL     1      35.678 -22.119 -16.584  0.00  0.00    +0.066 C 
ATOM      7  C   UNL     1      36.554 -21.726 -15.369  0.00  0.00    +0.011 C 
BRANCH   6   9
ATOM      8  F   UNL     1      32.155 -23.101 -13.382  0.00  0.00    -0.204 F 
ATOM      9  C   UNL     1      34.204 -22.375 -16.256  0.00  0.00    -0.015 C 
ATOM     10  C   UNL     1      33.855 -22.624 -14.951  0.00  0.00    +0.026 C 
ATOM     11  C   UNL     1      33.288 -22.347 -17.282  0.00  0.00    -0.004 C 
ATOM     12  C   UNL     1      31.558 -22.835 -15.669  0.00  0.00    +0.027 C 
ATOM     13  C   UNL     1      32.512 -22.857 -14.652  0.00  0.00    +0.140 C 
ATOM     14  C   UNL     1      31.946 -22.581 -16.984  0.00  0.00    +0.002 C 
BRANCH  12  15
ATOM     15  C   UNL     1      30.164 -23.075 -15.364  0.00  0.00    +0.002 C 
ATOM     16  C   UNL     1      29.782 -24.265 -14.743  0.00  0.00    +0.000 C 
ATOM     17  C   UNL     1      29.203 -22.119 -15.691  0.00  0.00    +0.000 C 
ATOM     18  C   UNL     1      28.439 -24.496 -14.447  0.00  0.00    +0.000 C 
ATOM     19  C   UNL     1      27.860 -22.351 -15.395  0.00  0.00    +0.000 C 
ATOM     20  C   UNL     1      27.476 -23.540 -14.775  0.00  0.00    +0.000 C 
ENDBRANCH  12  15
ENDBRANCH   6   9
ENDBRANCH   3   6
BRANCH   5  21
ATOM     21  N   UNL     1      35.082 -19.599 -20.782  0.00  0.00    -0.147 NA
BRANCH  21  29
ATOM     22  O   UNL     1      33.134 -17.315 -24.551  0.00  0.00    -0.350 OA
ATOM     23  N   UNL     1      33.971 -17.952 -21.955  0.00  0.00    -0.277 N 
ATOM     24  N   UNL     1      34.779 -17.357 -19.928  0.00  0.00    -0.373 N 
ATOM     25  C   UNL     1      34.013 -16.567 -22.418  0.00  0.00    +0.125 C 
ATOM     26  C   UNL     1      33.001 -18.802 -22.639  0.00  0.00    +0.125 C 
ATOM     27  C   UNL     1      34.169 -16.547 -23.933  0.00  0.00    +0.164 C 
ATOM     28  C   UNL     1      33.202 -18.684 -24.145  0.00  0.00    +0.164 C 
ATOM     29  C   UNL     1      34.645 -18.367 -20.859  0.00  0.00    +0.182 C 
ATOM     30  H   UNL     1      34.402 -16.465 -20.111  0.00  0.00    +0.158 HD
ATOM     31  H   UNL     1      35.252 -17.526 -19.082  0.00  0.00    +0.158 HD
ENDBRANCH  21  29
ENDBRANCH   5  21
TORSDOF 5
ENDMDL
