MODEL 1
REMARK VINA RESULT:     -12.6      0.000      0.000
REMARK  Name = 204109
REMARK  5 active torsions:
REMARK  status: ('A' for Active; 'I' for Inactive)
REMARK    1  A    between atoms: C_1  and  C_20
REMARK    2  A    between atoms: C_9  and  O_11
REMARK    3  A    between atoms: O_11  and  C_12
REMARK    4  A    between atoms: C_12  and  C_14
REMARK    5  A    between atoms: C_20  and  C_25
REMARK                            x       y       z     vdW  Elec       q    Type
REMARK                         _______ _______ _______ _____ _____    ______ ____
ROOT
ATOM      1  C   UNL     1      34.965 -18.544 -20.955  0.00  0.00    -0.021 C 
ATOM      2  C   UNL     1      33.530 -20.065 -19.710  0.00  0.00    -0.000 C 
ATOM      3  C   UNL     1      33.694 -19.027 -20.642  0.00  0.00    -0.004 C 
ATOM      4  C   UNL     1      34.672 -20.621 -19.087  0.00  0.00    +0.003 C 
ATOM      5  C   UNL     1      36.088 -19.092 -20.342  0.00  0.00    -0.004 C 
ATOM      6  C   UNL     1      35.944 -20.125 -19.414  0.00  0.00    -0.000 C 
ATOM      7  C   UNL     1      34.509 -21.660 -18.156  0.00  0.00    +0.037 C 
ATOM      8  C   UNL     1      32.258 -20.563 -19.383  0.00  0.00    +0.003 C 
ATOM      9  C   UNL     1      33.237 -22.142 -17.843  0.00  0.00    +0.139 C 
ATOM     10  C   UNL     1      32.114 -21.595 -18.456  0.00  0.00    +0.037 C 
ENDROOT
BRANCH   9  11
ATOM     11  O   UNL     1      33.095 -23.150 -16.939  0.00  0.00    -0.471 OA
BRANCH  11  12
ATOM     12  C   UNL     1      33.209 -22.806 -15.559  0.00  0.00    +0.234 C 
BRANCH  12  14
ATOM     13  F   UNL     1      33.266 -24.388 -13.218  0.00  0.00    -0.204 F 
ATOM     14  C   UNL     1      31.980 -23.162 -14.793  0.00  0.00    +0.049 C 
ATOM     15  C   UNL     1      32.074 -23.947 -13.644  0.00  0.00    +0.140 C 
ATOM     16  C   UNL     1      30.735 -22.708 -15.229  0.00  0.00    +0.002 C 
ATOM     17  C   UNL     1      30.922 -24.278 -12.929  0.00  0.00    +0.029 C 
ATOM     18  C   UNL     1      29.583 -23.040 -14.514  0.00  0.00    -0.000 C 
ATOM     19  C   UNL     1      29.677 -23.823 -13.365  0.00  0.00    +0.002 C 
ENDBRANCH  12  14
ENDBRANCH  11  12
ENDBRANCH   9  11
BRANCH   1  20
ATOM     20  C   UNL     1      35.120 -17.441 -21.946  0.00  0.00    +0.047 C 
BRANCH  20  25
ATOM     21  S   UNL     1      33.520 -16.989 -24.150  0.00  0.00    -0.048 S 
ATOM     22  O   UNL     1      33.908 -14.880 -20.942  0.00  0.00    -0.274 OA
ATOM     23  O   UNL     1      33.056 -14.768 -25.478  0.00  0.00    -0.263 OA
ATOM     24  N   UNL     1      33.451 -14.622 -23.193  0.00  0.00    -0.246 N 
ATOM     25  C   UNL     1      33.779 -16.835 -22.356  0.00  0.00    +0.137 C 
ATOM     26  C   UNL     1      33.728 -15.354 -22.057  0.00  0.00    +0.239 C 
ATOM     27  C   UNL     1      33.300 -15.269 -24.391  0.00  0.00    +0.279 C 
ATOM     28  H   UNL     1      33.362 -13.643 -23.144  0.00  0.00    +0.158 HD
ENDBRANCH  20  25
ENDBRANCH   1  20
TORSDOF 5
ENDMDL
MODEL 2
REMARK VINA RESULT:     -12.3      4.671      9.828
REMARK  Name = 204109
REMARK  5 active torsions:
REMARK  status: ('A' for Active; 'I' for Inactive)
REMARK    1  A    between atoms: C_1  and  C_20
REMARK    2  A    between atoms: C_9  and  O_11
REMARK    3  A    between atoms: O_11  and  C_12
REMARK    4  A    between atoms: C_12  and  C_14
REMARK    5  A    between atoms: C_20  and  C_25
REMARK                            x       y       z     vdW  Elec       q    Type
REMARK                         _______ _______ _______ _____ _____    ______ ____
ROOT
ATOM      1  C   UNL     1      32.925 -22.041 -17.949  0.00  0.00    -0.021 C 
ATOM      2  C   UNL     1      34.534 -20.615 -19.090  0.00  0.00    -0.000 C 
ATOM      3  C   UNL     1      34.243 -21.642 -18.177  0.00  0.00    -0.004 C 
ATOM      4  C   UNL     1      33.472 -19.984 -19.781  0.00  0.00    +0.003 C 
ATOM      5  C   UNL     1      31.882 -21.420 -18.630  0.00  0.00    -0.004 C 
ATOM      6  C   UNL     1      32.152 -20.398 -19.541  0.00  0.00    -0.000 C 
ATOM      7  C   UNL     1      33.763 -18.957 -20.695  0.00  0.00    +0.037 C 
ATOM      8  C   UNL     1      35.853 -20.200 -19.332  0.00  0.00    +0.003 C 
ATOM      9  C   UNL     1      35.081 -18.558 -20.922  0.00  0.00    +0.139 C 
ATOM     10  C   UNL     1      36.124 -19.179 -20.242  0.00  0.00    +0.037 C 
ENDROOT
BRANCH   9  11
ATOM     11  O   UNL     1      35.347 -17.561 -21.811  0.00  0.00    -0.471 OA
BRANCH  11  12
ATOM     12  C   UNL     1      34.284 -17.159 -22.673  0.00  0.00    +0.234 C 
BRANCH  12  14
ATOM     13  F   UNL     1      33.581 -15.388 -24.760  0.00  0.00    -0.204 F 
ATOM     14  C   UNL     1      33.878 -15.744 -22.431  0.00  0.00    +0.049 C 
ATOM     15  C   UNL     1      33.542 -14.920 -23.505  0.00  0.00    +0.140 C 
ATOM     16  C   UNL     1      33.835 -15.247 -21.130  0.00  0.00    +0.002 C 
ATOM     17  C   UNL     1      33.162 -13.597 -23.276  0.00  0.00    +0.029 C 
ATOM     18  C   UNL     1      33.456 -13.924 -20.900  0.00  0.00    -0.000 C 
ATOM     19  C   UNL     1      33.119 -13.099 -21.973  0.00  0.00    +0.002 C 
ENDBRANCH  12  14
ENDBRANCH  11  12
ENDBRANCH   9  11
BRANCH   1  20
ATOM     20  C   UNL     1      32.635 -23.133 -16.976  0.00  0.00    +0.047 C 
BRANCH  20  25
ATOM     21  S   UNL     1      33.027 -23.477 -14.265  0.00  0.00    -0.048 S 
ATOM     22  O   UNL     1      29.838 -22.400 -16.154  0.00  0.00    -0.274 OA
ATOM     23  O   UNL     1      31.496 -24.631 -12.466  0.00  0.00    -0.263 OA
ATOM     24  N   UNL     1      30.474 -23.543 -14.247  0.00  0.00    -0.246 N 
ATOM     25  C   UNL     1      32.187 -22.598 -15.618  0.00  0.00    +0.137 C 
ATOM     26  C   UNL     1      30.707 -22.820 -15.398  0.00  0.00    +0.239 C 
ATOM     27  C   UNL     1      31.536 -23.983 -13.501  0.00  0.00    +0.279 C 
ATOM     28  H   UNL     1      29.552 -23.741 -13.964  0.00  0.00    +0.158 HD
ENDBRANCH  20  25
ENDBRANCH   1  20
TORSDOF 5
ENDMDL
MODEL 3
REMARK VINA RESULT:     -12.2      1.323      2.305
REMARK  Name = 204109
REMARK  5 active torsions:
REMARK  status: ('A' for Active; 'I' for Inactive)
REMARK    1  A    between atoms: C_1  and  C_20
REMARK    2  A    between atoms: C_9  and  O_11
REMARK    3  A    between atoms: O_11  and  C_12
REMARK    4  A    between atoms: C_12  and  C_14
REMARK    5  A    between atoms: C_20  and  C_25
REMARK                            x       y       z     vdW  Elec       q    Type
REMARK                         _______ _______ _______ _____ _____    ______ ____
ROOT
ATOM      1  C   UNL     1      34.173 -20.045 -20.091  0.00  0.00    -0.021 C 
ATOM      2  C   UNL     1      34.491 -21.296 -18.029  0.00  0.00    -0.000 C 
ATOM      3  C   UNL     1      35.009 -20.531 -19.086  0.00  0.00    -0.004 C 
ATOM      4  C   UNL     1      33.104 -21.572 -17.991  0.00  0.00    +0.003 C 
ATOM      5  C   UNL     1      32.809 -20.317 -20.054  0.00  0.00    -0.004 C 
ATOM      6  C   UNL     1      32.275 -21.075 -19.010  0.00  0.00    -0.000 C 
ATOM      7  C   UNL     1      32.585 -22.337 -16.933  0.00  0.00    +0.037 C 
ATOM      8  C   UNL     1      35.318 -21.793 -17.009  0.00  0.00    +0.003 C 
ATOM      9  C   UNL     1      33.422 -22.823 -15.928  0.00  0.00    +0.139 C 
ATOM     10  C   UNL     1      34.786 -22.550 -15.966  0.00  0.00    +0.037 C 
ENDROOT
BRANCH   9  11
ATOM     11  O   UNL     1      32.904 -23.562 -14.909  0.00  0.00    -0.471 OA
BRANCH  11  12
ATOM     12  C   UNL     1      31.991 -22.908 -14.030  0.00  0.00    +0.234 C 
BRANCH  12  14
ATOM     13  F   UNL     1      31.024 -25.218 -12.720  0.00  0.00    -0.204 F 
ATOM     14  C   UNL     1      30.598 -23.411 -14.201  0.00  0.00    +0.049 C 
ATOM     15  C   UNL     1      30.180 -24.558 -13.526  0.00  0.00    +0.140 C 
ATOM     16  C   UNL     1      29.712 -22.733 -15.038  0.00  0.00    +0.002 C 
ATOM     17  C   UNL     1      28.876 -25.027 -13.688  0.00  0.00    +0.029 C 
ATOM     18  C   UNL     1      28.408 -23.201 -15.200  0.00  0.00    -0.000 C 
ATOM     19  C   UNL     1      27.990 -24.348 -14.525  0.00  0.00    +0.002 C 
ENDBRANCH  12  14
ENDBRANCH  11  12
ENDBRANCH   9  11
BRANCH   1  20
ATOM     20  C   UNL     1      34.741 -19.234 -21.207  0.00  0.00    +0.047 C 
BRANCH  20  25
ATOM     21  S   UNL     1      33.686 -18.211 -23.544  0.00  0.00    -0.048 S 
ATOM     22  O   UNL     1      34.375 -16.429 -20.191  0.00  0.00    -0.274 OA
ATOM     23  O   UNL     1      34.190 -15.946 -24.780  0.00  0.00    -0.263 OA
ATOM     24  N   UNL     1      34.321 -15.987 -22.460  0.00  0.00    -0.246 N 
ATOM     25  C   UNL     1      33.755 -18.190 -21.726  0.00  0.00    +0.137 C 
ATOM     26  C   UNL     1      34.184 -16.790 -21.347  0.00  0.00    +0.239 C 
ATOM     27  C   UNL     1      34.107 -16.520 -23.704  0.00  0.00    +0.279 C 
ATOM     28  H   UNL     1      34.572 -15.041 -22.362  0.00  0.00    +0.158 HD
ENDBRANCH  20  25
ENDBRANCH   1  20
TORSDOF 5
ENDMDL
MODEL 4
REMARK VINA RESULT:     -12.1      1.766      2.654
REMARK  Name = 204109
REMARK  5 active torsions:
REMARK  status: ('A' for Active; 'I' for Inactive)
REMARK    1  A    between atoms: C_1  and  C_20
REMARK    2  A    between atoms: C_9  and  O_11
REMARK    3  A    between atoms: O_11  and  C_12
REMARK    4  A    between atoms: C_12  and  C_14
REMARK    5  A    between atoms: C_20  and  C_25
REMARK                            x       y       z     vdW  Elec       q    Type
REMARK                         _______ _______ _______ _____ _____    ______ ____
ROOT
ATOM      1  C   UNL     1      34.986 -18.591 -20.959  0.00  0.00    -0.021 C 
ATOM      2  C   UNL     1      33.564 -20.094 -19.678  0.00  0.00    -0.000 C 
ATOM      3  C   UNL     1      33.719 -19.075 -20.632  0.00  0.00    -0.004 C 
ATOM      4  C   UNL     1      34.712 -20.629 -19.046  0.00  0.00    +0.003 C 
ATOM      5  C   UNL     1      36.114 -19.118 -20.337  0.00  0.00    -0.004 C 
ATOM      6  C   UNL     1      35.980 -20.131 -19.387  0.00  0.00    -0.000 C 
ATOM      7  C   UNL     1      34.559 -21.648 -18.092  0.00  0.00    +0.037 C 
ATOM      8  C   UNL     1      32.297 -20.593 -19.336  0.00  0.00    +0.003 C 
ATOM      9  C   UNL     1      33.291 -22.132 -17.765  0.00  0.00    +0.139 C 
ATOM     10  C   UNL     1      32.163 -21.606 -18.386  0.00  0.00    +0.037 C 
ENDROOT
BRANCH   9  11
ATOM     11  O   UNL     1      33.158 -23.121 -16.838  0.00  0.00    -0.471 OA
BRANCH  11  12
ATOM     12  C   UNL     1      33.341 -22.759 -15.471  0.00  0.00    +0.234 C 
BRANCH  12  14
ATOM     13  F   UNL     1      35.856 -21.495 -15.215  0.00  0.00    -0.204 F 
ATOM     14  C   UNL     1      34.528 -23.434 -14.872  0.00  0.00    +0.049 C 
ATOM     15  C   UNL     1      35.743 -22.755 -14.774  0.00  0.00    +0.140 C 
ATOM     16  C   UNL     1      34.422 -24.745 -14.410  0.00  0.00    +0.002 C 
ATOM     17  C   UNL     1      36.852 -23.389 -14.212  0.00  0.00    +0.029 C 
ATOM     18  C   UNL     1      35.532 -25.379 -13.849  0.00  0.00    -0.000 C 
ATOM     19  C   UNL     1      36.746 -24.701 -13.749  0.00  0.00    +0.002 C 
ENDBRANCH  12  14
ENDBRANCH  11  12
ENDBRANCH   9  11
BRANCH   1  20
ATOM     20  C   UNL     1      35.131 -17.509 -21.974  0.00  0.00    +0.047 C 
BRANCH  20  25
ATOM     21  S   UNL     1      33.501 -17.041 -24.154  0.00  0.00    -0.048 S 
ATOM     22  O   UNL     1      33.952 -14.941 -20.947  0.00  0.00    -0.274 OA
ATOM     23  O   UNL     1      33.033 -14.814 -25.470  0.00  0.00    -0.263 OA
ATOM     24  N   UNL     1      33.463 -14.676 -23.191  0.00  0.00    -0.246 N 
ATOM     25  C   UNL     1      33.788 -16.893 -22.363  0.00  0.00    +0.137 C 
ATOM     26  C   UNL     1      33.752 -15.412 -22.061  0.00  0.00    +0.239 C 
ATOM     27  C   UNL     1      33.289 -15.319 -24.388  0.00  0.00    +0.279 C 
ATOM     28  H   UNL     1      33.382 -13.696 -23.138  0.00  0.00    +0.158 HD
ENDBRANCH  20  25
ENDBRANCH   1  20
TORSDOF 5
ENDMDL
MODEL 5
REMARK VINA RESULT:     -12.1      4.594      9.694
REMARK  Name = 204109
REMARK  5 active torsions:
REMARK  status: ('A' for Active; 'I' for Inactive)
REMARK    1  A    between atoms: C_1  and  C_20
REMARK    2  A    between atoms: C_9  and  O_11
REMARK    3  A    between atoms: O_11  and  C_12
REMARK    4  A    between atoms: C_12  and  C_14
REMARK    5  A    between atoms: C_20  and  C_25
REMARK                            x       y       z     vdW  Elec       q    Type
REMARK                         _______ _______ _______ _____ _____    ______ ____
ROOT
ATOM      1  C   UNL     1      32.836 -22.538 -17.022  0.00  0.00    -0.021 C 
ATOM      2  C   UNL     1      32.821 -20.975 -18.886  0.00  0.00    -0.000 C 
ATOM      3  C   UNL     1      32.140 -21.817 -17.992  0.00  0.00    -0.004 C 
ATOM      4  C   UNL     1      34.228 -20.863 -18.795  0.00  0.00    +0.003 C 
ATOM      5  C   UNL     1      34.220 -22.428 -16.932  0.00  0.00    -0.004 C 
ATOM      6  C   UNL     1      34.914 -21.595 -17.812  0.00  0.00    -0.000 C 
ATOM      7  C   UNL     1      34.910 -20.021 -19.689  0.00  0.00    +0.037 C 
ATOM      8  C   UNL     1      32.136 -20.242 -19.869  0.00  0.00    +0.003 C 
ATOM      9  C   UNL     1      34.213 -19.300 -20.660  0.00  0.00    +0.139 C 
ATOM     10  C   UNL     1      32.829 -19.410 -20.749  0.00  0.00    +0.037 C 
ENDROOT
BRANCH   9  11
ATOM     11  O   UNL     1      34.887 -18.488 -21.519  0.00  0.00    -0.471 OA
BRANCH  11  12
ATOM     12  C   UNL     1      34.982 -17.108 -21.169  0.00  0.00    +0.234 C 
BRANCH  12  14
ATOM     13  F   UNL     1      33.941 -14.589 -20.424  0.00  0.00    -0.204 F 
ATOM     14  C   UNL     1      34.211 -16.242 -22.106  0.00  0.00    +0.049 C 
ATOM     15  C   UNL     1      33.722 -15.008 -21.678  0.00  0.00    +0.140 C 
ATOM     16  C   UNL     1      33.977 -16.669 -23.413  0.00  0.00    +0.002 C 
ATOM     17  C   UNL     1      33.001 -14.200 -22.557  0.00  0.00    +0.029 C 
ATOM     18  C   UNL     1      33.255 -15.862 -24.293  0.00  0.00    -0.000 C 
ATOM     19  C   UNL     1      32.767 -14.627 -23.865  0.00  0.00    +0.002 C 
ENDBRANCH  12  14
ENDBRANCH  11  12
ENDBRANCH   9  11
BRANCH   1  20
ATOM     20  C   UNL     1      32.096 -23.427 -16.080  0.00  0.00    +0.047 C 
BRANCH  20  25
ATOM     21  S   UNL     1      31.801 -23.352 -13.336  0.00  0.00    -0.048 S 
ATOM     22  O   UNL     1      29.284 -22.365 -16.090  0.00  0.00    -0.274 OA
ATOM     23  O   UNL     1      29.773 -24.081 -11.831  0.00  0.00    -0.263 OA
ATOM     24  N   UNL     1      29.324 -23.226 -13.944  0.00  0.00    -0.246 N 
ATOM     25  C   UNL     1      31.405 -22.646 -14.965  0.00  0.00    +0.137 C 
ATOM     26  C   UNL     1      29.900 -22.719 -15.091  0.00  0.00    +0.239 C 
ATOM     27  C   UNL     1      30.126 -23.615 -12.904  0.00  0.00    +0.279 C 
ATOM     28  H   UNL     1      28.345 -23.307 -13.874  0.00  0.00    +0.158 HD
ENDBRANCH  20  25
ENDBRANCH   1  20
TORSDOF 5
ENDMDL
MODEL 6
REMARK VINA RESULT:     -12.0      1.076      1.789
REMARK  Name = 204109
REMARK  5 active torsions:
REMARK  status: ('A' for Active; 'I' for Inactive)
REMARK    1  A    between atoms: C_1  and  C_20
REMARK    2  A    between atoms: C_9  and  O_11
REMARK    3  A    between atoms: O_11  and  C_12
REMARK    4  A    between atoms: C_12  and  C_14
REMARK    5  A    between atoms: C_20  and  C_25
REMARK                            x       y       z     vdW  Elec       q    Type
REMARK                         _______ _______ _______ _____ _____    ______ ____
ROOT
ATOM      1  C   UNL     1      34.962 -18.453 -20.971  0.00  0.00    -0.021 C 
ATOM      2  C   UNL     1      33.539 -20.015 -19.764  0.00  0.00    -0.000 C 
ATOM      3  C   UNL     1      33.695 -18.955 -20.672  0.00  0.00    -0.004 C 
ATOM      4  C   UNL     1      34.685 -20.574 -19.151  0.00  0.00    +0.003 C 
ATOM      5  C   UNL     1      36.088 -19.003 -20.367  0.00  0.00    -0.004 C 
ATOM      6  C   UNL     1      35.953 -20.058 -19.463  0.00  0.00    -0.000 C 
ATOM      7  C   UNL     1      34.530 -21.635 -18.243  0.00  0.00    +0.037 C 
ATOM      8  C   UNL     1      32.271 -20.533 -19.452  0.00  0.00    +0.003 C 
ATOM      9  C   UNL     1      33.262 -22.136 -17.944  0.00  0.00    +0.139 C 
ATOM     10  C   UNL     1      32.136 -21.586 -18.548  0.00  0.00    +0.037 C 
ENDROOT
BRANCH   9  11
ATOM     11  O   UNL     1      33.128 -23.165 -17.063  0.00  0.00    -0.471 OA
BRANCH  11  12
ATOM     12  C   UNL     1      32.361 -22.917 -15.887  0.00  0.00    +0.234 C 
BRANCH  12  14
ATOM     13  F   UNL     1      31.292 -24.167 -13.588  0.00  0.00    -0.204 F 
ATOM     14  C   UNL     1      33.156 -23.145 -14.646  0.00  0.00    +0.049 C 
ATOM     15  C   UNL     1      32.570 -23.768 -13.544  0.00  0.00    +0.140 C 
ATOM     16  C   UNL     1      34.487 -22.733 -14.589  0.00  0.00    +0.002 C 
ATOM     17  C   UNL     1      33.317 -23.980 -12.384  0.00  0.00    +0.029 C 
ATOM     18  C   UNL     1      35.234 -22.944 -13.429  0.00  0.00    -0.000 C 
ATOM     19  C   UNL     1      34.649 -23.568 -12.327  0.00  0.00    +0.002 C 
ENDBRANCH  12  14
ENDBRANCH  11  12
ENDBRANCH   9  11
BRANCH   1  20
ATOM     20  C   UNL     1      35.108 -17.326 -21.937  0.00  0.00    +0.047 C 
BRANCH  20  25
ATOM     21  S   UNL     1      33.483 -16.947 -24.136  0.00  0.00    -0.048 S 
ATOM     22  O   UNL     1      33.902 -14.738 -20.999  0.00  0.00    -0.274 OA
ATOM     23  O   UNL     1      32.998 -14.770 -25.528  0.00  0.00    -0.263 OA
ATOM     24  N   UNL     1      33.418 -14.551 -23.252  0.00  0.00    -0.246 N 
ATOM     25  C   UNL     1      33.761 -16.737 -22.350  0.00  0.00    +0.137 C 
ATOM     26  C   UNL     1      33.710 -15.247 -22.098  0.00  0.00    +0.239 C 
ATOM     27  C   UNL     1      33.256 -15.236 -24.428  0.00  0.00    +0.279 C 
ATOM     28  H   UNL     1      33.328 -13.571 -23.232  0.00  0.00    +0.158 HD
ENDBRANCH  20  25
ENDBRANCH   1  20
TORSDOF 5
ENDMDL
MODEL 7
REMARK VINA RESULT:     -11.9      4.972     10.110
REMARK  Name = 204109
REMARK  5 active torsions:
REMARK  status: ('A' for Active; 'I' for Inactive)
REMARK    1  A    between atoms: C_1  and  C_20
REMARK    2  A    between atoms: C_9  and  O_11
REMARK    3  A    between atoms: O_11  and  C_12
REMARK    4  A    between atoms: C_12  and  C_14
REMARK    5  A    between atoms: C_20  and  C_25
REMARK                            x       y       z     vdW  Elec       q    Type
REMARK                         _______ _______ _______ _____ _____    ______ ____
ROOT
ATOM      1  C   UNL     1      33.632 -23.175 -15.723  0.00  0.00    -0.021 C 
ATOM      2  C   UNL     1      34.233 -21.763 -17.612  0.00  0.00    -0.000 C 
ATOM      3  C   UNL     1      34.600 -22.538 -16.500  0.00  0.00    -0.004 C 
ATOM      4  C   UNL     1      32.863 -21.632 -17.940  0.00  0.00    +0.003 C 
ATOM      5  C   UNL     1      32.285 -23.046 -16.047  0.00  0.00    -0.004 C 
ATOM      6  C   UNL     1      31.901 -22.280 -17.149  0.00  0.00    -0.000 C 
ATOM      7  C   UNL     1      32.494 -20.858 -19.052  0.00  0.00    +0.037 C 
ATOM      8  C   UNL     1      35.194 -21.115 -18.404  0.00  0.00    +0.003 C 
ATOM      9  C   UNL     1      33.464 -20.220 -19.829  0.00  0.00    +0.139 C 
ATOM     10  C   UNL     1      34.811 -20.350 -19.505  0.00  0.00    +0.037 C 
ENDROOT
BRANCH   9  11
ATOM     11  O   UNL     1      33.092 -19.473 -20.904  0.00  0.00    -0.471 OA
BRANCH  11  12
ATOM     12  C   UNL     1      34.105 -19.152 -21.854  0.00  0.00    +0.234 C 
BRANCH  12  14
ATOM     13  F   UNL     1      34.584 -16.871 -20.256  0.00  0.00    -0.204 F 
ATOM     14  C   UNL     1      33.965 -17.760 -22.369  0.00  0.00    +0.049 C 
ATOM     15  C   UNL     1      34.216 -16.675 -21.530  0.00  0.00    +0.140 C 
ATOM     16  C   UNL     1      33.581 -17.544 -23.693  0.00  0.00    +0.002 C 
ATOM     17  C   UNL     1      34.083 -15.373 -22.015  0.00  0.00    +0.029 C 
ATOM     18  C   UNL     1      33.448 -16.243 -24.178  0.00  0.00    -0.000 C 
ATOM     19  C   UNL     1      33.700 -15.157 -23.339  0.00  0.00    +0.002 C 
ENDBRANCH  12  14
ENDBRANCH  11  12
ENDBRANCH   9  11
BRANCH   1  20
ATOM     20  C   UNL     1      34.041 -23.994 -14.546  0.00  0.00    +0.047 C 
BRANCH  20  25
ATOM     21  S   UNL     1      36.061 -23.175 -12.852  0.00  0.00    -0.048 S 
ATOM     22  O   UNL     1      32.338 -23.830 -12.074  0.00  0.00    -0.274 OA
ATOM     23  O   UNL     1      36.644 -23.956 -10.410  0.00  0.00    -0.263 OA
ATOM     24  N   UNL     1      34.413 -23.948 -11.060  0.00  0.00    -0.246 N 
ATOM     25  C   UNL     1      34.300 -23.141 -13.306  0.00  0.00    +0.137 C 
ATOM     26  C   UNL     1      33.553 -23.673 -12.104  0.00  0.00    +0.239 C 
ATOM     27  C   UNL     1      35.759 -23.759 -11.229  0.00  0.00    +0.279 C 
ATOM     28  H   UNL     1      34.062 -24.279 -10.202  0.00  0.00    +0.158 HD
ENDBRANCH  20  25
ENDBRANCH   1  20
TORSDOF 5
ENDMDL
MODEL 8
REMARK VINA RESULT:     -11.6      5.377     10.183
REMARK  Name = 204109
REMARK  5 active torsions:
REMARK  status: ('A' for Active; 'I' for Inactive)
REMARK    1  A    between atoms: C_1  and  C_20
REMARK    2  A    between atoms: C_9  and  O_11
REMARK    3  A    between atoms: O_11  and  C_12
REMARK    4  A    between atoms: C_12  and  C_14
REMARK    5  A    between atoms: C_20  and  C_25
REMARK                            x       y       z     vdW  Elec       q    Type
REMARK                         _______ _______ _______ _____ _____    ______ ____
ROOT
ATOM      1  C   UNL     1      35.514 -22.901 -15.085  0.00  0.00    -0.021 C 
ATOM      2  C   UNL     1      34.089 -22.146 -16.907  0.00  0.00    -0.000 C 
ATOM      3  C   UNL     1      34.276 -22.885 -15.728  0.00  0.00    -0.004 C 
ATOM      4  C   UNL     1      35.174 -21.412 -17.442  0.00  0.00    +0.003 C 
ATOM      5  C   UNL     1      36.581 -22.179 -15.612  0.00  0.00    -0.004 C 
ATOM      6  C   UNL     1      36.414 -21.438 -16.782  0.00  0.00    -0.000 C 
ATOM      7  C   UNL     1      34.988 -20.673 -18.621  0.00  0.00    +0.037 C 
ATOM      8  C   UNL     1      32.850 -22.119 -17.567  0.00  0.00    +0.003 C 
ATOM      9  C   UNL     1      33.749 -20.658 -19.264  0.00  0.00    +0.139 C 
ATOM     10  C   UNL     1      32.682 -21.379 -18.737  0.00  0.00    +0.037 C 
ENDROOT
BRANCH   9  11
ATOM     11  O   UNL     1      33.583 -19.935 -20.406  0.00  0.00    -0.471 OA
BRANCH  11  12
ATOM     12  C   UNL     1      34.709 -19.198 -20.878  0.00  0.00    +0.234 C 
BRANCH  12  14
ATOM     13  F   UNL     1      33.838 -19.709 -23.518  0.00  0.00    -0.204 F 
ATOM     14  C   UNL     1      34.309 -18.115 -21.822  0.00  0.00    +0.049 C 
ATOM     15  C   UNL     1      33.888 -18.432 -23.113  0.00  0.00    +0.140 C 
ATOM     16  C   UNL     1      34.358 -16.783 -21.411  0.00  0.00    +0.002 C 
ATOM     17  C   UNL     1      33.514 -17.416 -23.994  0.00  0.00    +0.029 C 
ATOM     18  C   UNL     1      33.985 -15.767 -22.292  0.00  0.00    -0.000 C 
ATOM     19  C   UNL     1      33.563 -16.084 -23.583  0.00  0.00    +0.002 C 
ENDBRANCH  12  14
ENDBRANCH  11  12
ENDBRANCH   9  11
BRANCH   1  20
ATOM     20  C   UNL     1      35.694 -23.691 -13.833  0.00  0.00    +0.047 C 
BRANCH  20  25
ATOM     21  S   UNL     1      36.188 -22.849 -11.251  0.00  0.00    -0.048 S 
ATOM     22  O   UNL     1      32.937 -24.259 -12.779  0.00  0.00    -0.274 OA
ATOM     23  O   UNL     1      35.506 -23.936  -8.956  0.00  0.00    -0.263 OA
ATOM     24  N   UNL     1      34.073 -24.196 -10.767  0.00  0.00    -0.246 N 
ATOM     25  C   UNL     1      35.017 -23.038 -12.631  0.00  0.00    +0.137 C 
ATOM     26  C   UNL     1      33.889 -23.894 -12.100  0.00  0.00    +0.239 C 
ATOM     27  C   UNL     1      35.198 -23.752 -10.124  0.00  0.00    +0.279 C 
ATOM     28  H   UNL     1      33.401 -24.728 -10.281  0.00  0.00    +0.158 HD
ENDBRANCH  20  25
ENDBRANCH   1  20
TORSDOF 5
ENDMDL
MODEL 9
REMARK VINA RESULT:     -11.5      2.877      3.985
REMARK  Name = 204109
REMARK  5 active torsions:
REMARK  status: ('A' for Active; 'I' for Inactive)
REMARK    1  A    between atoms: C_1  and  C_20
REMARK    2  A    between atoms: C_9  and  O_11
REMARK    3  A    between atoms: O_11  and  C_12
REMARK    4  A    between atoms: C_12  and  C_14
REMARK    5  A    between atoms: C_20  and  C_25
REMARK                            x       y       z     vdW  Elec       q    Type
REMARK                         _______ _______ _______ _____ _____    ______ ____
ROOT
ATOM      1  C   UNL     1      33.398 -20.314 -19.720  0.00  0.00    -0.021 C 
ATOM      2  C   UNL     1      32.674 -21.643 -17.814  0.00  0.00    -0.000 C 
ATOM      3  C   UNL     1      32.377 -20.872 -18.950  0.00  0.00    -0.004 C 
ATOM      4  C   UNL     1      34.026 -21.851 -17.454  0.00  0.00    +0.003 C 
ATOM      5  C   UNL     1      34.728 -20.519 -19.365  0.00  0.00    -0.004 C 
ATOM      6  C   UNL     1      35.042 -21.283 -18.240  0.00  0.00    -0.000 C 
ATOM      7  C   UNL     1      34.324 -22.622 -16.319  0.00  0.00    +0.037 C 
ATOM      8  C   UNL     1      31.658 -22.211 -17.028  0.00  0.00    +0.003 C 
ATOM      9  C   UNL     1      33.302 -23.179 -15.549  0.00  0.00    +0.139 C 
ATOM     10  C   UNL     1      31.972 -22.974 -15.904  0.00  0.00    +0.037 C 
ENDROOT
BRANCH   9  11
ATOM     11  O   UNL     1      33.605 -23.925 -14.451  0.00  0.00    -0.471 OA
BRANCH  11  12
ATOM     12  C   UNL     1      34.373 -23.293 -13.428  0.00  0.00    +0.234 C 
BRANCH  12  14
ATOM     13  F   UNL     1      34.659 -24.798 -11.053  0.00  0.00    -0.204 F 
ATOM     14  C   UNL     1      35.607 -24.064 -13.103  0.00  0.00    +0.049 C 
ATOM     15  C   UNL     1      35.687 -24.788 -11.913  0.00  0.00    +0.140 C 
ATOM     16  C   UNL     1      36.683 -24.060 -13.990  0.00  0.00    +0.002 C 
ATOM     17  C   UNL     1      36.843 -25.509 -11.611  0.00  0.00    +0.029 C 
ATOM     18  C   UNL     1      37.839 -24.780 -13.689  0.00  0.00    -0.000 C 
ATOM     19  C   UNL     1      37.919 -25.505 -12.500  0.00  0.00    +0.002 C 
ENDBRANCH  12  14
ENDBRANCH  11  12
ENDBRANCH   9  11
BRANCH   1  20
ATOM     20  C   UNL     1      33.065 -19.499 -20.923  0.00  0.00    +0.047 C 
BRANCH  20  25
ATOM     21  S   UNL     1      34.394 -17.083 -20.776  0.00  0.00    -0.048 S 
ATOM     22  O   UNL     1      34.040 -19.498 -23.766  0.00  0.00    -0.274 OA
ATOM     23  O   UNL     1      34.463 -15.083 -22.481  0.00  0.00    -0.263 OA
ATOM     24  N   UNL     1      34.260 -17.240 -23.322  0.00  0.00    -0.246 N 
ATOM     25  C   UNL     1      34.280 -18.758 -21.478  0.00  0.00    +0.137 C 
ATOM     26  C   UNL     1      34.176 -18.572 -22.975  0.00  0.00    +0.239 C 
ATOM     27  C   UNL     1      34.380 -16.294 -22.339  0.00  0.00    +0.279 C 
ATOM     28  H   UNL     1      34.232 -16.971 -24.269  0.00  0.00    +0.158 HD
ENDBRANCH  20  25
ENDBRANCH   1  20
TORSDOF 5
ENDMDL
