MODEL 1
REMARK VINA RESULT:     -11.6      0.000      0.000
REMARK  Name = 115368
REMARK  5 active torsions:
REMARK  status: ('A' for Active; 'I' for Inactive)
REMARK    1  A    between atoms: N_2  and  C_17
REMARK    2  A    between atoms: C_17  and  C_18
REMARK    3  A    between atoms: C_18  and  C_19
REMARK    4  A    between atoms: C_19  and  C_20
REMARK    5  A    between atoms: C_20  and  N_23
REMARK                            x       y       z     vdW  Elec       q    Type
REMARK                         _______ _______ _______ _____ _____    ______ ____
ROOT
ATOM      1  S   UNL     1      32.812 -15.281 -24.773  0.00  0.00    +0.014 S 
ATOM      2  N   UNL     1      35.097 -19.740 -20.447  0.00  0.00    +0.389 N 
ATOM      3  N   UNL     1      34.233 -17.665 -22.213  0.00  0.00    -0.297 N 
ATOM      4  N   UNL     1      33.394 -16.739 -24.245  0.00  0.00    -0.194 NA
ATOM      5  C   UNL     1      35.547 -18.356 -20.252  0.00  0.00    -0.055 C 
ATOM      6  C   UNL     1      33.743 -19.757 -21.018  0.00  0.00    -0.055 C 
ATOM      7  C   UNL     1      35.550 -17.581 -21.573  0.00  0.00    +0.069 C 
ATOM      8  C   UNL     1      33.716 -19.031 -22.363  0.00  0.00    +0.069 C 
ATOM      9  C   UNL     1      33.717 -16.626 -22.955  0.00  0.00    +0.140 A 
ATOM     10  C   UNL     1      33.507 -15.344 -22.339  0.00  0.00    +0.040 A 
ATOM     11  C   UNL     1      32.980 -14.452 -23.275  0.00  0.00    +0.050 A 
ATOM     12  C   UNL     1      33.734 -14.882 -21.023  0.00  0.00    +0.003 C 
ATOM     13  C   UNL     1      32.674 -13.122 -22.950  0.00  0.00    +0.008 C 
ATOM     14  C   UNL     1      33.431 -13.559 -20.689  0.00  0.00    +0.000 C 
ATOM     15  C   UNL     1      32.909 -12.692 -21.642  0.00  0.00    +0.001 C 
ATOM     16  H   UNL     1      35.731 -20.200 -21.100  0.00  0.00    -0.080 HD
ENDROOT
BRANCH   2  17
ATOM     17  C   UNL     1      35.131 -20.475 -19.183  0.00  0.00    -0.077 C 
BRANCH  17  18
ATOM     18  C   UNL     1      33.807 -21.200 -18.954  0.00  0.00    -0.021 C 
BRANCH  18  19
ATOM     19  C   UNL     1      33.853 -22.046 -17.677  0.00  0.00    +0.020 C 
BRANCH  19  20
ATOM     20  C   UNL     1      32.632 -22.946 -17.525  0.00  0.00    +0.101 C 
BRANCH  20  23
ATOM     21  O   UNL     1      33.739 -23.917 -14.959  0.00  0.00    -0.274 OA
ATOM     22  O   UNL     1      30.033 -21.821 -16.763  0.00  0.00    -0.274 OA
ATOM     23  N   UNL     1      32.050 -22.870 -16.200  0.00  0.00    -0.230 N 
ATOM     24  C   UNL     1      31.831 -22.848 -13.891  0.00  0.00    +0.086 C 
ATOM     25  C   UNL     1      30.448 -22.649 -14.521  0.00  0.00    +0.086 C 
ATOM     26  C   UNL     1      31.887 -23.742 -12.659  0.00  0.00    +0.010 C 
ATOM     27  C   UNL     1      29.542 -23.885 -14.479  0.00  0.00    +0.010 C 
ATOM     28  C   UNL     1      31.006 -24.980 -12.768  0.00  0.00    +0.001 C 
ATOM     29  C   UNL     1      29.579 -24.599 -13.136  0.00  0.00    +0.001 C 
ATOM     30  C   UNL     1      32.679 -23.319 -15.054  0.00  0.00    +0.231 C 
ATOM     31  C   UNL     1      30.790 -22.354 -15.964  0.00  0.00    +0.231 C 
ENDBRANCH  20  23
ENDBRANCH  19  20
ENDBRANCH  18  19
ENDBRANCH  17  18
ENDBRANCH   2  17
TORSDOF 5
ENDMDL
MODEL 2
REMARK VINA RESULT:     -11.3      1.921      2.578
REMARK  Name = 115368
REMARK  5 active torsions:
REMARK  status: ('A' for Active; 'I' for Inactive)
REMARK    1  A    between atoms: N_2  and  C_17
REMARK    2  A    between atoms: C_17  and  C_18
REMARK    3  A    between atoms: C_18  and  C_19
REMARK    4  A    between atoms: C_19  and  C_20
REMARK    5  A    between atoms: C_20  and  N_23
REMARK                            x       y       z     vdW  Elec       q    Type
REMARK                         _______ _______ _______ _____ _____    ______ ____
ROOT
ATOM      1  S   UNL     1      33.057 -14.317 -25.184  0.00  0.00    +0.014 S 
ATOM      2  N   UNL     1      34.358 -19.305 -21.031  0.00  0.00    +0.389 N 
ATOM      3  N   UNL     1      33.887 -17.017 -22.678  0.00  0.00    -0.297 N 
ATOM      4  N   UNL     1      33.532 -15.834 -24.720  0.00  0.00    -0.194 NA
ATOM      5  C   UNL     1      34.715 -17.960 -20.564  0.00  0.00    -0.055 C 
ATOM      6  C   UNL     1      33.179 -19.241 -21.906  0.00  0.00    -0.055 C 
ATOM      7  C   UNL     1      35.013 -17.024 -21.738  0.00  0.00    +0.069 C 
ATOM      8  C   UNL     1      33.454 -18.349 -23.117  0.00  0.00    +0.069 C 
ATOM      9  C   UNL     1      33.538 -15.889 -23.386  0.00  0.00    +0.140 A 
ATOM     10  C   UNL     1      33.156 -14.694 -22.682  0.00  0.00    +0.040 A 
ATOM     11  C   UNL     1      32.845 -13.687 -23.598  0.00  0.00    +0.050 A 
ATOM     12  C   UNL     1      33.053 -14.405 -21.303  0.00  0.00    +0.003 C 
ATOM     13  C   UNL     1      32.438 -12.407 -23.191  0.00  0.00    +0.008 C 
ATOM     14  C   UNL     1      32.648 -13.134 -20.888  0.00  0.00    +0.000 C 
ATOM     15  C   UNL     1      32.345 -12.148 -21.822  0.00  0.00    +0.001 C 
ATOM     16  H   UNL     1      35.140 -19.683 -21.567  0.00  0.00    -0.080 HD
ENDROOT
BRANCH   2  17
ATOM     17  C   UNL     1      34.109 -20.195 -19.897  0.00  0.00    -0.077 C 
BRANCH  17  18
ATOM     18  C   UNL     1      32.615 -20.252 -19.585  0.00  0.00    -0.021 C 
BRANCH  18  19
ATOM     19  C   UNL     1      32.324 -21.251 -18.460  0.00  0.00    +0.020 C 
BRANCH  19  20
ATOM     20  C   UNL     1      33.459 -22.249 -18.254  0.00  0.00    +0.101 C 
BRANCH  20  23
ATOM     21  O   UNL     1      36.060 -21.631 -16.985  0.00  0.00    -0.274 OA
ATOM     22  O   UNL     1      31.826 -23.220 -16.020  0.00  0.00    -0.274 OA
ATOM     23  N   UNL     1      33.840 -22.371 -16.860  0.00  0.00    -0.230 N 
ATOM     24  C   UNL     1      34.973 -22.087 -14.856  0.00  0.00    +0.086 C 
ATOM     25  C   UNL     1      33.812 -23.064 -14.635  0.00  0.00    +0.086 C 
ATOM     26  C   UNL     1      36.276 -22.420 -14.141  0.00  0.00    +0.010 C 
ATOM     27  C   UNL     1      34.225 -24.535 -14.526  0.00  0.00    +0.010 C 
ATOM     28  C   UNL     1      36.621 -23.903 -14.170  0.00  0.00    +0.001 C 
ATOM     29  C   UNL     1      35.458 -24.740 -13.658  0.00  0.00    +0.001 C 
ATOM     30  C   UNL     1      35.079 -22.008 -16.364  0.00  0.00    +0.231 C 
ATOM     31  C   UNL     1      32.996 -22.886 -15.896  0.00  0.00    +0.231 C 
ENDBRANCH  20  23
ENDBRANCH  19  20
ENDBRANCH  18  19
ENDBRANCH  17  18
ENDBRANCH   2  17
TORSDOF 5
ENDMDL
MODEL 3
REMARK VINA RESULT:     -10.7      4.577     10.932
REMARK  Name = 115368
REMARK  5 active torsions:
REMARK  status: ('A' for Active; 'I' for Inactive)
REMARK    1  A    between atoms: N_2  and  C_17
REMARK    2  A    between atoms: C_17  and  C_18
REMARK    3  A    between atoms: C_18  and  C_19
REMARK    4  A    between atoms: C_19  and  C_20
REMARK    5  A    between atoms: C_20  and  N_23
REMARK                            x       y       z     vdW  Elec       q    Type
REMARK                         _______ _______ _______ _____ _____    ______ ____
ROOT
ATOM      1  S   UNL     1      34.827 -24.330 -11.294  0.00  0.00    +0.014 S 
ATOM      2  N   UNL     1      33.947 -21.662 -17.288  0.00  0.00    +0.389 N 
ATOM      3  N   UNL     1      34.538 -22.761 -14.717  0.00  0.00    -0.297 N 
ATOM      4  N   UNL     1      34.075 -23.452 -12.481  0.00  0.00    -0.194 NA
ATOM      5  C   UNL     1      35.324 -21.679 -16.781  0.00  0.00    -0.055 C 
ATOM      6  C   UNL     1      33.206 -22.825 -16.782  0.00  0.00    -0.055 C 
ATOM      7  C   UNL     1      35.353 -21.664 -15.250  0.00  0.00    +0.069 C 
ATOM      8  C   UNL     1      33.173 -22.820 -15.253  0.00  0.00    +0.069 C 
ATOM      9  C   UNL     1      34.871 -23.415 -13.551  0.00  0.00    +0.140 A 
ATOM     10  C   UNL     1      36.132 -24.099 -13.452  0.00  0.00    +0.040 A 
ATOM     11  C   UNL     1      36.252 -24.685 -12.190  0.00  0.00    +0.050 A 
ATOM     12  C   UNL     1      37.193 -24.258 -14.371  0.00  0.00    +0.003 C 
ATOM     13  C   UNL     1      37.386 -25.420 -11.812  0.00  0.00    +0.008 C 
ATOM     14  C   UNL     1      38.326 -24.989 -14.004  0.00  0.00    +0.000 C 
ATOM     15  C   UNL     1      38.420 -25.562 -12.740  0.00  0.00    +0.001 C 
ATOM     16  H   UNL     1      33.488 -20.814 -16.956  0.00  0.00    -0.080 HD
ENDROOT
BRANCH   2  17
ATOM     17  C   UNL     1      33.938 -21.643 -18.751  0.00  0.00    -0.077 C 
BRANCH  17  18
ATOM     18  C   UNL     1      35.290 -21.172 -19.285  0.00  0.00    -0.021 C 
BRANCH  18  19
ATOM     19  C   UNL     1      35.207 -19.733 -19.805  0.00  0.00    +0.020 C 
BRANCH  19  20
ATOM     20  C   UNL     1      33.944 -19.476 -20.621  0.00  0.00    +0.101 C 
BRANCH  20  23
ATOM     21  O   UNL     1      34.237 -16.557 -20.239  0.00  0.00    -0.274 OA
ATOM     22  O   UNL     1      34.084 -19.799 -23.532  0.00  0.00    -0.274 OA
ATOM     23  N   UNL     1      34.134 -18.446 -21.622  0.00  0.00    -0.230 N 
ATOM     24  C   UNL     1      34.688 -16.430 -22.627  0.00  0.00    +0.086 C 
ATOM     25  C   UNL     1      34.133 -17.380 -23.695  0.00  0.00    +0.086 C 
ATOM     26  C   UNL     1      34.262 -14.971 -22.737  0.00  0.00    +0.010 C 
ATOM     27  C   UNL     1      32.699 -17.074 -24.140  0.00  0.00    +0.010 C 
ATOM     28  C   UNL     1      32.795 -14.795 -23.106  0.00  0.00    +0.001 C 
ATOM     29  C   UNL     1      32.452 -15.589 -24.359  0.00  0.00    +0.001 C 
ATOM     30  C   UNL     1      34.306 -17.106 -21.327  0.00  0.00    +0.231 C 
ATOM     31  C   UNL     1      34.139 -18.711 -22.978  0.00  0.00    +0.231 C 
ENDBRANCH  20  23
ENDBRANCH  19  20
ENDBRANCH  18  19
ENDBRANCH  17  18
ENDBRANCH   2  17
TORSDOF 5
ENDMDL
MODEL 4
REMARK VINA RESULT:     -10.7      4.350     10.371
REMARK  Name = 115368
REMARK  5 active torsions:
REMARK  status: ('A' for Active; 'I' for Inactive)
REMARK    1  A    between atoms: N_2  and  C_17
REMARK    2  A    between atoms: C_17  and  C_18
REMARK    3  A    between atoms: C_18  and  C_19
REMARK    4  A    between atoms: C_19  and  C_20
REMARK    5  A    between atoms: C_20  and  N_23
REMARK                            x       y       z     vdW  Elec       q    Type
REMARK                         _______ _______ _______ _____ _____    ______ ____
ROOT
ATOM      1  S   UNL     1      36.075 -20.538 -18.762  0.00  0.00    +0.014 S 
ATOM      2  N   UNL     1      33.698 -16.744 -23.637  0.00  0.00    +0.389 N 
ATOM      3  N   UNL     1      34.574 -18.531 -21.586  0.00  0.00    -0.297 N 
ATOM      4  N   UNL     1      36.122 -19.496 -20.049  0.00  0.00    -0.194 NA
ATOM      5  C   UNL     1      33.006 -18.018 -23.410  0.00  0.00    -0.055 C 
ATOM      6  C   UNL     1      34.235 -16.226 -22.371  0.00  0.00    -0.055 C 
ATOM      7  C   UNL     1      33.948 -19.061 -22.802  0.00  0.00    +0.069 C 
ATOM      8  C   UNL     1      35.218 -17.223 -21.756  0.00  0.00    +0.069 C 
ATOM      9  C   UNL     1      34.882 -19.339 -20.515  0.00  0.00    +0.140 A 
ATOM     10  C   UNL     1      33.836 -20.064 -19.844  0.00  0.00    +0.040 A 
ATOM     11  C   UNL     1      34.377 -20.810 -18.796  0.00  0.00    +0.050 A 
ATOM     12  C   UNL     1      32.442 -20.130 -20.068  0.00  0.00    +0.003 C 
ATOM     13  C   UNL     1      33.585 -21.618 -17.966  0.00  0.00    +0.008 C 
ATOM     14  C   UNL     1      31.644 -20.931 -19.246  0.00  0.00    +0.000 C 
ATOM     15  C   UNL     1      32.210 -21.665 -18.210  0.00  0.00    +0.001 C 
ATOM     16  H   UNL     1      34.474 -16.903 -24.279  0.00  0.00    -0.080 HD
ENDROOT
BRANCH   2  17
ATOM     17  C   UNL     1      32.794 -15.769 -24.248  0.00  0.00    -0.077 C 
BRANCH  17  18
ATOM     18  C   UNL     1      33.299 -14.349 -24.003  0.00  0.00    -0.021 C 
BRANCH  18  19
ATOM     19  C   UNL     1      32.249 -13.509 -23.267  0.00  0.00    +0.020 C 
BRANCH  19  20
ATOM     20  C   UNL     1      32.818 -12.804 -22.040  0.00  0.00    +0.101 C 
BRANCH  20  23
ATOM     21  O   UNL     1      32.414  -9.940 -22.667  0.00  0.00    -0.274 OA
ATOM     22  O   UNL     1      30.879 -13.311 -19.899  0.00  0.00    -0.274 OA
ATOM     23  N   UNL     1      31.876 -11.871 -21.453  0.00  0.00    -0.230 N 
ATOM     24  C   UNL     1      30.514 -10.019 -21.149  0.00  0.00    +0.086 C 
ATOM     25  C   UNL     1      30.380 -10.938 -19.929  0.00  0.00    +0.086 C 
ATOM     26  C   UNL     1      30.546  -8.523 -20.863  0.00  0.00    +0.010 C 
ATOM     27  C   UNL     1      31.120 -10.453 -18.678  0.00  0.00    +0.010 C 
ATOM     28  C   UNL     1      31.379  -8.157 -19.642  0.00  0.00    +0.001 C 
ATOM     29  C   UNL     1      30.943  -8.963 -18.426  0.00  0.00    +0.001 C 
ATOM     30  C   UNL     1      31.740 -10.556 -21.856  0.00  0.00    +0.231 C 
ATOM     31  C   UNL     1      31.035 -12.212 -20.411  0.00  0.00    +0.231 C 
ENDBRANCH  20  23
ENDBRANCH  19  20
ENDBRANCH  18  19
ENDBRANCH  17  18
ENDBRANCH   2  17
TORSDOF 5
ENDMDL
MODEL 5
REMARK VINA RESULT:     -10.6      3.263      5.799
REMARK  Name = 115368
REMARK  5 active torsions:
REMARK  status: ('A' for Active; 'I' for Inactive)
REMARK    1  A    between atoms: N_2  and  C_17
REMARK    2  A    between atoms: C_17  and  C_18
REMARK    3  A    between atoms: C_18  and  C_19
REMARK    4  A    between atoms: C_19  and  C_20
REMARK    5  A    between atoms: C_20  and  N_23
REMARK                            x       y       z     vdW  Elec       q    Type
REMARK                         _______ _______ _______ _____ _____    ______ ____
ROOT
ATOM      1  S   UNL     1      31.045  -9.070 -21.555  0.00  0.00    +0.014 S 
ATOM      2  N   UNL     1      33.394 -15.255 -21.793  0.00  0.00    +0.389 N 
ATOM      3  N   UNL     1      32.415 -12.572 -21.905  0.00  0.00    -0.297 N 
ATOM      4  N   UNL     1      31.130 -10.687 -21.207  0.00  0.00    -0.194 NA
ATOM      5  C   UNL     1      33.414 -14.503 -23.054  0.00  0.00    -0.055 C 
ATOM      6  C   UNL     1      33.577 -14.342 -20.656  0.00  0.00    -0.055 C 
ATOM      7  C   UNL     1      32.314 -13.438 -23.084  0.00  0.00    +0.069 C 
ATOM      8  C   UNL     1      32.468 -13.289 -20.626  0.00  0.00    +0.069 C 
ATOM      9  C   UNL     1      32.089 -11.235 -21.956  0.00  0.00    +0.140 A 
ATOM     10  C   UNL     1      32.798 -10.360 -22.850  0.00  0.00    +0.040 A 
ATOM     11  C   UNL     1      32.302  -9.060 -22.730  0.00  0.00    +0.050 A 
ATOM     12  C   UNL     1      33.847 -10.598 -23.766  0.00  0.00    +0.003 C 
ATOM     13  C   UNL     1      32.810  -7.993 -23.487  0.00  0.00    +0.008 C 
ATOM     14  C   UNL     1      34.360  -9.542 -24.524  0.00  0.00    +0.000 C 
ATOM     15  C   UNL     1      33.847  -8.257 -24.385  0.00  0.00    +0.001 C 
ATOM     16  H   UNL     1      32.487 -15.712 -21.700  0.00  0.00    -0.080 HD
ENDROOT
BRANCH   2  17
ATOM     17  C   UNL     1      34.429 -16.289 -21.794  0.00  0.00    -0.077 C 
BRANCH  17  18
ATOM     18  C   UNL     1      34.072 -17.397 -22.783  0.00  0.00    -0.021 C 
BRANCH  18  19
ATOM     19  C   UNL     1      33.659 -18.678 -22.052  0.00  0.00    +0.020 C 
BRANCH  19  20
ATOM     20  C   UNL     1      33.776 -18.552 -20.536  0.00  0.00    +0.101 C 
BRANCH  20  23
ATOM     21  O   UNL     1      31.892 -20.532 -19.401  0.00  0.00    -0.274 OA
ATOM     22  O   UNL     1      36.406 -19.743 -20.023  0.00  0.00    -0.274 OA
ATOM     23  N   UNL     1      34.069 -19.820 -19.898  0.00  0.00    -0.230 N 
ATOM     24  C   UNL     1      33.827 -21.969 -19.058  0.00  0.00    +0.086 C 
ATOM     25  C   UNL     1      35.260 -21.492 -18.794  0.00  0.00    +0.086 C 
ATOM     26  C   UNL     1      33.167 -22.768 -17.941  0.00  0.00    +0.010 C 
ATOM     27  C   UNL     1      35.542 -21.083 -17.345  0.00  0.00    +0.010 C 
ATOM     28  C   UNL     1      33.455 -22.216 -16.551  0.00  0.00    +0.001 C 
ATOM     29  C   UNL     1      34.953 -22.052 -16.331  0.00  0.00    +0.001 C 
ATOM     30  C   UNL     1      33.102 -20.695 -19.440  0.00  0.00    +0.231 C 
ATOM     31  C   UNL     1      35.358 -20.262 -19.668  0.00  0.00    +0.231 C 
ENDBRANCH  20  23
ENDBRANCH  19  20
ENDBRANCH  18  19
ENDBRANCH  17  18
ENDBRANCH   2  17
TORSDOF 5
ENDMDL
MODEL 6
REMARK VINA RESULT:     -10.6      3.103      5.605
REMARK  Name = 115368
REMARK  5 active torsions:
REMARK  status: ('A' for Active; 'I' for Inactive)
REMARK    1  A    between atoms: N_2  and  C_17
REMARK    2  A    between atoms: C_17  and  C_18
REMARK    3  A    between atoms: C_18  and  C_19
REMARK    4  A    between atoms: C_19  and  C_20
REMARK    5  A    between atoms: C_20  and  N_23
REMARK                            x       y       z     vdW  Elec       q    Type
REMARK                         _______ _______ _______ _____ _____    ______ ____
ROOT
ATOM      1  S   UNL     1      32.300  -9.021 -22.923  0.00  0.00    +0.014 S 
ATOM      2  N   UNL     1      33.615 -15.467 -23.659  0.00  0.00    +0.389 N 
ATOM      3  N   UNL     1      33.059 -12.715 -23.125  0.00  0.00    -0.297 N 
ATOM      4  N   UNL     1      32.990 -10.374 -23.583  0.00  0.00    -0.194 NA
ATOM      5  C   UNL     1      33.490 -14.983 -22.279  0.00  0.00    -0.055 C 
ATOM      6  C   UNL     1      32.738 -14.693 -24.548  0.00  0.00    -0.055 C 
ATOM      7  C   UNL     1      33.854 -13.499 -22.174  0.00  0.00    +0.069 C 
ATOM      8  C   UNL     1      33.103 -13.209 -24.507  0.00  0.00    +0.069 C 
ATOM      9  C   UNL     1      32.648 -11.431 -22.844  0.00  0.00    +0.140 A 
ATOM     10  C   UNL     1      31.808 -11.185 -21.703  0.00  0.00    +0.040 A 
ATOM     11  C   UNL     1      31.518  -9.822 -21.616  0.00  0.00    +0.050 A 
ATOM     12  C   UNL     1      31.268 -12.051 -20.726  0.00  0.00    +0.003 C 
ATOM     13  C   UNL     1      30.714  -9.291 -20.596  0.00  0.00    +0.008 C 
ATOM     14  C   UNL     1      30.465 -11.532 -19.706  0.00  0.00    +0.000 C 
ATOM     15  C   UNL     1      30.194 -10.170 -19.642  0.00  0.00    +0.001 C 
ATOM     16  H   UNL     1      34.581 -15.341 -23.963  0.00  0.00    -0.080 HD
ENDROOT
BRANCH   2  17
ATOM     17  C   UNL     1      33.296 -16.893 -23.735  0.00  0.00    -0.077 C 
BRANCH  17  18
ATOM     18  C   UNL     1      34.242 -17.697 -22.846  0.00  0.00    -0.021 C 
BRANCH  18  19
ATOM     19  C   UNL     1      33.477 -18.746 -22.032  0.00  0.00    +0.020 C 
BRANCH  19  20
ATOM     20  C   UNL     1      33.682 -18.586 -20.529  0.00  0.00    +0.101 C 
BRANCH  20  23
ATOM     21  O   UNL     1      31.905 -20.609 -19.302  0.00  0.00    -0.274 OA
ATOM     22  O   UNL     1      36.366 -19.683 -20.092  0.00  0.00    -0.274 OA
ATOM     23  N   UNL     1      34.038 -19.834 -19.884  0.00  0.00    -0.230 N 
ATOM     24  C   UNL     1      33.896 -21.976 -19.007  0.00  0.00    +0.086 C 
ATOM     25  C   UNL     1      35.321 -21.450 -18.800  0.00  0.00    +0.086 C 
ATOM     26  C   UNL     1      33.302 -22.780 -17.856  0.00  0.00    +0.010 C 
ATOM     27  C   UNL     1      35.639 -21.010 -17.367  0.00  0.00    +0.010 C 
ATOM     28  C   UNL     1      33.619 -22.198 -16.485  0.00  0.00    +0.001 C 
ATOM     29  C   UNL     1      35.117 -21.983 -16.320  0.00  0.00    +0.001 C 
ATOM     30  C   UNL     1      33.117 -20.733 -19.381  0.00  0.00    +0.231 C 
ATOM     31  C   UNL     1      35.348 -20.231 -19.694  0.00  0.00    +0.231 C 
ENDBRANCH  20  23
ENDBRANCH  19  20
ENDBRANCH  18  19
ENDBRANCH  17  18
ENDBRANCH   2  17
TORSDOF 5
ENDMDL
MODEL 7
REMARK VINA RESULT:     -10.6      0.863      1.870
REMARK  Name = 115368
REMARK  5 active torsions:
REMARK  status: ('A' for Active; 'I' for Inactive)
REMARK    1  A    between atoms: N_2  and  C_17
REMARK    2  A    between atoms: C_17  and  C_18
REMARK    3  A    between atoms: C_18  and  C_19
REMARK    4  A    between atoms: C_19  and  C_20
REMARK    5  A    between atoms: C_20  and  N_23
REMARK                            x       y       z     vdW  Elec       q    Type
REMARK                         _______ _______ _______ _____ _____    ______ ____
ROOT
ATOM      1  S   UNL     1      32.759 -14.646 -24.769  0.00  0.00    +0.014 S 
ATOM      2  N   UNL     1      34.869 -19.404 -20.679  0.00  0.00    +0.389 N 
ATOM      3  N   UNL     1      34.065 -17.207 -22.320  0.00  0.00    -0.297 N 
ATOM      4  N   UNL     1      33.356 -16.126 -24.326  0.00  0.00    -0.194 NA
ATOM      5  C   UNL     1      35.243 -18.030 -20.325  0.00  0.00    -0.055 C 
ATOM      6  C   UNL     1      33.567 -19.415 -21.362  0.00  0.00    -0.055 C 
ATOM      7  C   UNL     1      35.321 -17.137 -21.567  0.00  0.00    +0.069 C 
ATOM      8  C   UNL     1      33.620 -18.569 -22.635  0.00  0.00    +0.069 C 
ATOM      9  C   UNL     1      33.569 -16.121 -23.008  0.00  0.00    +0.140 A 
ATOM     10  C   UNL     1      33.256 -14.910 -22.300  0.00  0.00    +0.040 A 
ATOM     11  C   UNL     1      32.770 -13.953 -23.195  0.00  0.00    +0.050 A 
ATOM     12  C   UNL     1      33.356 -14.564 -20.934  0.00  0.00    +0.003 C 
ATOM     13  C   UNL     1      32.384 -12.670 -22.780  0.00  0.00    +0.008 C 
ATOM     14  C   UNL     1      32.973 -13.288 -20.511  0.00  0.00    +0.000 C 
ATOM     15  C   UNL     1      32.494 -12.354 -21.423  0.00  0.00    +0.001 C 
ATOM     16  H   UNL     1      35.572 -19.781 -21.315  0.00  0.00    -0.080 HD
ENDROOT
BRANCH   2  17
ATOM     17  C   UNL     1      34.831 -20.251 -19.487  0.00  0.00    -0.077 C 
BRANCH  17  18
ATOM     18  C   UNL     1      33.429 -20.826 -19.288  0.00  0.00    -0.021 C 
BRANCH  18  19
ATOM     19  C   UNL     1      33.483 -22.176 -18.566  0.00  0.00    +0.020 C 
BRANCH  19  20
ATOM     20  C   UNL     1      33.837 -22.037 -17.089  0.00  0.00    +0.101 C 
BRANCH  20  23
ATOM     21  O   UNL     1      30.883 -21.897 -17.009  0.00  0.00    -0.274 OA
ATOM     22  O   UNL     1      34.485 -23.963 -14.974  0.00  0.00    -0.274 OA
ATOM     23  N   UNL     1      32.919 -22.759 -16.231  0.00  0.00    -0.230 N 
ATOM     24  C   UNL     1      30.979 -23.723 -15.402  0.00  0.00    +0.086 C 
ATOM     25  C   UNL     1      32.124 -23.991 -14.419  0.00  0.00    +0.086 C 
ATOM     26  C   UNL     1      29.626 -23.391 -14.785  0.00  0.00    +0.010 C 
ATOM     27  C   UNL     1      32.096 -23.128 -13.154  0.00  0.00    +0.010 C 
ATOM     28  C   UNL     1      29.722 -22.460 -13.583  0.00  0.00    +0.001 C 
ATOM     29  C   UNL     1      30.704 -23.002 -12.554  0.00  0.00    +0.001 C 
ATOM     30  C   UNL     1      31.543 -22.650 -16.309  0.00  0.00    +0.231 C 
ATOM     31  C   UNL     1      33.342 -23.614 -15.232  0.00  0.00    +0.231 C 
ENDBRANCH  20  23
ENDBRANCH  19  20
ENDBRANCH  18  19
ENDBRANCH  17  18
ENDBRANCH   2  17
TORSDOF 5
ENDMDL
MODEL 8
REMARK VINA RESULT:     -10.5      5.094     11.993
REMARK  Name = 115368
REMARK  5 active torsions:
REMARK  status: ('A' for Active; 'I' for Inactive)
REMARK    1  A    between atoms: N_2  and  C_17
REMARK    2  A    between atoms: C_17  and  C_18
REMARK    3  A    between atoms: C_18  and  C_19
REMARK    4  A    between atoms: C_19  and  C_20
REMARK    5  A    between atoms: C_20  and  N_23
REMARK                            x       y       z     vdW  Elec       q    Type
REMARK                         _______ _______ _______ _____ _____    ______ ____
ROOT
ATOM      1  S   UNL     1      36.165 -20.136 -19.122  0.00  0.00    +0.014 S 
ATOM      2  N   UNL     1      33.627 -16.233 -23.827  0.00  0.00    +0.389 N 
ATOM      3  N   UNL     1      34.576 -18.069 -21.854  0.00  0.00    -0.297 N 
ATOM      4  N   UNL     1      36.168 -19.046 -20.369  0.00  0.00    -0.194 NA
ATOM      5  C   UNL     1      32.974 -17.534 -23.642  0.00  0.00    -0.055 C 
ATOM      6  C   UNL     1      34.163 -15.748 -22.548  0.00  0.00    -0.055 C 
ATOM      7  C   UNL     1      33.952 -18.572 -23.083  0.00  0.00    +0.069 C 
ATOM      8  C   UNL     1      35.181 -16.738 -21.981  0.00  0.00    +0.069 C 
ATOM      9  C   UNL     1      34.918 -18.908 -20.817  0.00  0.00    +0.140 A 
ATOM     10  C   UNL     1      33.901 -19.687 -20.164  0.00  0.00    +0.040 A 
ATOM     11  C   UNL     1      34.475 -20.456 -19.149  0.00  0.00    +0.050 A 
ATOM     12  C   UNL     1      32.508 -19.785 -20.376  0.00  0.00    +0.003 C 
ATOM     13  C   UNL     1      33.715 -21.317 -18.343  0.00  0.00    +0.008 C 
ATOM     14  C   UNL     1      31.742 -20.638 -19.577  0.00  0.00    +0.000 C 
ATOM     15  C   UNL     1      32.340 -21.394 -18.574  0.00  0.00    +0.001 C 
ATOM     16  H   UNL     1      34.400 -16.346 -24.483  0.00  0.00    -0.080 HD
ENDROOT
BRANCH   2  17
ATOM     17  C   UNL     1      32.689 -15.263 -24.392  0.00  0.00    -0.077 C 
BRANCH  17  18
ATOM     18  C   UNL     1      32.453 -14.117 -23.410  0.00  0.00    -0.021 C 
BRANCH  18  19
ATOM     19  C   UNL     1      32.808 -12.767 -24.040  0.00  0.00    +0.020 C 
BRANCH  19  20
ATOM     20  C   UNL     1      33.427 -11.797 -23.038  0.00  0.00    +0.101 C 
BRANCH  20  23
ATOM     21  O   UNL     1      34.581  -9.780 -24.870  0.00  0.00    -0.274 OA
ATOM     22  O   UNL     1      31.235 -10.354 -21.730  0.00  0.00    -0.274 OA
ATOM     23  N   UNL     1      33.005 -10.428 -23.261  0.00  0.00    -0.230 N 
ATOM     24  C   UNL     1      32.714  -8.348 -24.246  0.00  0.00    +0.086 C 
ATOM     25  C   UNL     1      31.986  -8.364 -22.896  0.00  0.00    +0.086 C 
ATOM     26  C   UNL     1      33.447  -7.060 -24.600  0.00  0.00    +0.010 C 
ATOM     27  C   UNL     1      32.702  -7.604 -21.775  0.00  0.00    +0.010 C 
ATOM     28  C   UNL     1      34.187  -6.441 -23.422  0.00  0.00    +0.001 C 
ATOM     29  C   UNL     1      33.256  -6.262 -22.230  0.00  0.00    +0.001 C 
ATOM     30  C   UNL     1      33.592  -9.580 -24.181  0.00  0.00    +0.231 C 
ATOM     31  C   UNL     1      31.979  -9.836 -22.550  0.00  0.00    +0.231 C 
ENDBRANCH  20  23
ENDBRANCH  19  20
ENDBRANCH  18  19
ENDBRANCH  17  18
ENDBRANCH   2  17
TORSDOF 5
ENDMDL
MODEL 9
REMARK VINA RESULT:     -10.4      2.100      3.114
REMARK  Name = 115368
REMARK  5 active torsions:
REMARK  status: ('A' for Active; 'I' for Inactive)
REMARK    1  A    between atoms: N_2  and  C_17
REMARK    2  A    between atoms: C_17  and  C_18
REMARK    3  A    between atoms: C_18  and  C_19
REMARK    4  A    between atoms: C_19  and  C_20
REMARK    5  A    between atoms: C_20  and  N_23
REMARK                            x       y       z     vdW  Elec       q    Type
REMARK                         _______ _______ _______ _____ _____    ______ ____
ROOT
ATOM      1  S   UNL     1      33.165 -14.559 -25.136  0.00  0.00    +0.014 S 
ATOM      2  N   UNL     1      34.342 -19.460 -20.846  0.00  0.00    +0.389 N 
ATOM      3  N   UNL     1      33.933 -17.209 -22.559  0.00  0.00    -0.297 N 
ATOM      4  N   UNL     1      33.586 -16.078 -24.631  0.00  0.00    -0.194 NA
ATOM      5  C   UNL     1      34.764 -18.118 -20.430  0.00  0.00    -0.055 C 
ATOM      6  C   UNL     1      33.149 -19.374 -21.700  0.00  0.00    -0.055 C 
ATOM      7  C   UNL     1      35.076 -17.233 -21.640  0.00  0.00    +0.069 C 
ATOM      8  C   UNL     1      33.437 -18.535 -22.945  0.00  0.00    +0.069 C 
ATOM      9  C   UNL     1      33.616 -16.090 -23.297  0.00  0.00    +0.140 A 
ATOM     10  C   UNL     1      33.299 -14.859 -22.625  0.00  0.00    +0.040 A 
ATOM     11  C   UNL     1      33.011 -13.869 -23.567  0.00  0.00    +0.050 A 
ATOM     12  C   UNL     1      33.236 -14.521 -21.255  0.00  0.00    +0.003 C 
ATOM     13  C   UNL     1      32.666 -12.561 -23.196  0.00  0.00    +0.008 C 
ATOM     14  C   UNL     1      32.893 -13.221 -20.875  0.00  0.00    +0.000 C 
ATOM     15  C   UNL     1      32.612 -12.254 -21.834  0.00  0.00    +0.001 C 
ATOM     16  H   UNL     1      35.097 -19.888 -21.384  0.00  0.00    -0.080 HD
ENDROOT
BRANCH   2  17
ATOM     17  C   UNL     1      34.080 -20.302 -19.679  0.00  0.00    -0.077 C 
BRANCH  17  18
ATOM     18  C   UNL     1      35.366 -20.523 -18.884  0.00  0.00    -0.021 C 
BRANCH  18  19
ATOM     19  C   UNL     1      35.197 -21.654 -17.864  0.00  0.00    +0.020 C 
BRANCH  19  20
ATOM     20  C   UNL     1      35.857 -21.339 -16.525  0.00  0.00    +0.101 C 
BRANCH  20  23
ATOM     21  O   UNL     1      33.317 -22.480 -15.526  0.00  0.00    -0.274 OA
ATOM     22  O   UNL     1      37.902 -22.822 -15.034  0.00  0.00    -0.274 OA
ATOM     23  N   UNL     1      35.658 -22.393 -15.550  0.00  0.00    -0.230 N 
ATOM     24  C   UNL     1      34.678 -24.104 -14.329  0.00  0.00    +0.086 C 
ATOM     25  C   UNL     1      36.095 -23.865 -13.796  0.00  0.00    +0.086 C 
ATOM     26  C   UNL     1      33.606 -24.389 -13.284  0.00  0.00    +0.010 C 
ATOM     27  C   UNL     1      36.160 -23.109 -12.465  0.00  0.00    +0.010 C 
ATOM     28  C   UNL     1      33.727 -23.520 -12.040  0.00  0.00    +0.001 C 
ATOM     29  C   UNL     1      35.131 -23.599 -11.457  0.00  0.00    +0.001 C 
ATOM     30  C   UNL     1      34.418 -22.884 -15.187  0.00  0.00    +0.231 C 
ATOM     31  C   UNL     1      36.702 -22.994 -14.873  0.00  0.00    +0.231 C 
ENDBRANCH  20  23
ENDBRANCH  19  20
ENDBRANCH  18  19
ENDBRANCH  17  18
ENDBRANCH   2  17
TORSDOF 5
ENDMDL
