MODEL 1
REMARK VINA RESULT:     -11.9      0.000      0.000
REMARK  Name = 93184
REMARK  8 active torsions:
REMARK  status: ('A' for Active; 'I' for Inactive)
REMARK    1  A    between atoms: C_1  and  C_2
REMARK    2  A    between atoms: C_1  and  C_10
REMARK    3  A    between atoms: C_1  and  C_27
REMARK    4  A    between atoms: N_9  and  CA_18
REMARK    5  A    between atoms: CA_17  and  C_23
REMARK    6  A    between atoms: C_23  and  O_24
REMARK    7  A    between atoms: C_27  and  O_28
REMARK    8  A    between atoms: O_28  and  C_35
REMARK                            x       y       z     vdW  Elec       q    Type
REMARK                         _______ _______ _______ _____ _____    ______ ____
ROOT
ATOM      1  C   UNL     1      31.679 -23.153 -16.035  0.00  0.00    +0.198 C 
ENDROOT
BRANCH   1   2
ATOM      2  C   UNL     1      30.249 -23.253 -15.532  0.00  0.00    -0.003 C 
ATOM      3  C   UNL     1      29.857 -24.391 -14.854  0.00  0.00    -0.003 C 
ATOM      4  C   UNL     1      29.381 -22.204 -15.766  0.00  0.00    -0.003 C 
ATOM      5  C   UNL     1      28.543 -24.483 -14.392  0.00  0.00    -0.000 C 
ATOM      6  C   UNL     1      28.069 -22.296 -15.304  0.00  0.00    -0.000 C 
ATOM      7  C   UNL     1      27.649 -23.436 -14.617  0.00  0.00    -0.000 C 
ENDBRANCH   1   2
BRANCH   1  10
ATOM      8  O   UNL     1      32.170 -22.460 -13.764  0.00  0.00    -0.274 OA
ATOM      9  N   UNL     1      33.952 -22.750 -15.221  0.00  0.00    -0.296 N 
ATOM     10  C   UNL     1      32.597 -22.746 -14.882  0.00  0.00    +0.237 C 
ATOM     11  H   UNL     1      34.205 -22.992 -16.140  0.00  0.00    +0.150 HD
BRANCH   9  18
ATOM     12  S   UNL     1      34.608 -25.101 -13.359  0.00  0.00    -0.118 S 
ATOM     13  O   UNL     1      37.081 -22.362 -15.767  0.00  0.00    -0.273 OA
ATOM     14  N   UNL     1      36.664 -23.580 -13.788  0.00  0.00    -0.260 N 
ATOM     15  C   UNL     1      35.342 -23.435 -13.172  0.00  0.00    +0.151 C 
ATOM     16  C   UNL     1      36.287 -25.898 -13.231  0.00  0.00    +0.068 C 
ATOM     17  CA  UNL     1      37.217 -24.907 -13.965  0.00  0.00    +0.184 C 
ATOM     18  CA  UNL     1      35.015 -22.410 -14.266  0.00  0.00    +0.178 C 
ATOM     19  C   UNL     1      36.440 -22.682 -14.791  0.00  0.00    +0.247 C 
ATOM     20  C   UNL     1      36.607 -26.088 -11.742  0.00  0.00    +0.013 C 
ATOM     21  C   UNL     1      36.249 -27.254 -13.937  0.00  0.00    +0.013 C 
BRANCH  17  23
ATOM     22  OXT UNL     1      39.004 -24.269 -12.472  0.00  0.00    -0.248 OA
ATOM     23  C   UNL     1      38.628 -24.868 -13.468  0.00  0.00    +0.333 C 
BRANCH  23  24
ATOM     24  O   UNL     1      39.440 -25.589 -14.279  0.00  0.00    -0.479 OA
ATOM     25  H   UNL     1      39.527 -26.513 -14.153  0.00  0.00    +0.295 HD
ENDBRANCH  23  24
ENDBRANCH  17  23
ENDBRANCH   9  18
ENDBRANCH   1  10
BRANCH   1  27
ATOM     26  O   UNL     1      31.156 -21.222 -17.430  0.00  0.00    -0.249 OA
ATOM     27  C   UNL     1      31.802 -22.247 -17.253  0.00  0.00    +0.334 C 
BRANCH  27  28
ATOM     28  O   UNL     1      32.792 -22.749 -18.097  0.00  0.00    -0.424 OA
BRANCH  28  35
ATOM     29  C   UNL     1      34.897 -18.435 -21.624  0.00  0.00    +0.009 C 
ATOM     30  C   UNL     1      33.504 -18.892 -21.168  0.00  0.00    +0.026 C 
ATOM     31  C   UNL     1      35.845 -18.645 -20.433  0.00  0.00    +0.026 C 
ATOM     32  C   UNL     1      33.858 -19.937 -20.157  0.00  0.00    -0.023 C 
ATOM     33  C   UNL     1      35.188 -19.797 -19.741  0.00  0.00    -0.026 C 
ATOM     34  C   UNL     1      33.040 -20.914 -19.616  0.00  0.00    +0.033 C 
ATOM     35  C   UNL     1      33.577 -21.767 -18.650  0.00  0.00    +0.148 C 
ATOM     36  C   UNL     1      35.724 -20.630 -18.775  0.00  0.00    -0.001 C 
ATOM     37  C   UNL     1      34.910 -21.626 -18.232  0.00  0.00    +0.037 C 
ENDBRANCH  28  35
ENDBRANCH  27  28
ENDBRANCH   1  27
TORSDOF 8
ENDMDL
MODEL 2
REMARK VINA RESULT:     -10.3      2.016      6.476
REMARK  Name = 93184
REMARK  8 active torsions:
REMARK  status: ('A' for Active; 'I' for Inactive)
REMARK    1  A    between atoms: C_1  and  C_2
REMARK    2  A    between atoms: C_1  and  C_10
REMARK    3  A    between atoms: C_1  and  C_27
REMARK    4  A    between atoms: N_9  and  CA_18
REMARK    5  A    between atoms: CA_17  and  C_23
REMARK    6  A    between atoms: C_23  and  O_24
REMARK    7  A    between atoms: C_27  and  O_28
REMARK    8  A    between atoms: O_28  and  C_35
REMARK                            x       y       z     vdW  Elec       q    Type
REMARK                         _______ _______ _______ _____ _____    ______ ____
ROOT
ATOM      1  C   UNL     1      35.699 -22.587 -14.758  0.00  0.00    +0.198 C 
ENDROOT
BRANCH   1   2
ATOM      2  C   UNL     1      36.847 -23.396 -14.180  0.00  0.00    -0.003 C 
ATOM      3  C   UNL     1      37.948 -23.657 -14.974  0.00  0.00    -0.003 C 
ATOM      4  C   UNL     1      36.760 -23.849 -12.878  0.00  0.00    -0.003 C 
ATOM      5  C   UNL     1      39.003 -24.401 -14.443  0.00  0.00    -0.000 C 
ATOM      6  C   UNL     1      37.814 -24.592 -12.348  0.00  0.00    -0.000 C 
ATOM      7  C   UNL     1      38.935 -24.869 -13.130  0.00  0.00    -0.000 C 
ENDBRANCH   1   2
BRANCH   1  10
ATOM      8  O   UNL     1      34.644 -24.752 -15.040  0.00  0.00    -0.274 OA
ATOM      9  N   UNL     1      33.447 -22.869 -15.674  0.00  0.00    -0.296 N 
ATOM     10  C   UNL     1      34.566 -23.531 -15.167  0.00  0.00    +0.237 C 
ATOM     11  H   UNL     1      33.471 -21.888 -15.741  0.00  0.00    +0.150 HD
BRANCH   9  18
ATOM     12  S   UNL     1      31.800 -23.892 -13.293  0.00  0.00    -0.118 S 
ATOM     13  O   UNL     1      30.776 -21.648 -16.945  0.00  0.00    -0.273 OA
ATOM     14  N   UNL     1      30.319 -23.322 -15.345  0.00  0.00    -0.260 N 
ATOM     15  C   UNL     1      31.392 -24.272 -15.036  0.00  0.00    +0.151 C 
ATOM     16  C   UNL     1      30.038 -23.394 -12.948  0.00  0.00    +0.068 C 
ATOM     17  CA  UNL     1      29.592 -22.702 -14.255  0.00  0.00    +0.184 C 
ATOM     18  CA  UNL     1      32.233 -23.572 -16.111  0.00  0.00    +0.178 C 
ATOM     19  C   UNL     1      31.012 -22.651 -16.310  0.00  0.00    +0.247 C 
ATOM     20  C   UNL     1      29.249 -24.664 -12.598  0.00  0.00    +0.013 C 
ATOM     21  C   UNL     1      30.018 -22.422 -11.768  0.00  0.00    +0.013 C 
BRANCH  17  23
ATOM     22  OXT UNL     1      27.581 -23.830 -14.971  0.00  0.00    -0.248 OA
ATOM     23  C   UNL     1      28.136 -22.816 -14.573  0.00  0.00    +0.333 C 
BRANCH  23  24
ATOM     24  O   UNL     1      27.506 -21.634 -14.365  0.00  0.00    -0.479 OA
ATOM     25  H   UNL     1      26.619 -21.623 -14.063  0.00  0.00    +0.295 HD
ENDBRANCH  23  24
ENDBRANCH  17  23
ENDBRANCH   9  18
ENDBRANCH   1  10
BRANCH   1  27
ATOM     26  O   UNL     1      36.664 -20.564 -15.722  0.00  0.00    -0.249 OA
ATOM     27  C   UNL     1      36.151 -21.664 -15.883  0.00  0.00    +0.334 C 
BRANCH  27  28
ATOM     28  O   UNL     1      35.928 -22.294 -17.107  0.00  0.00    -0.424 OA
BRANCH  28  35
ATOM     29  C   UNL     1      35.000 -17.850 -20.964  0.00  0.00    +0.009 C 
ATOM     30  C   UNL     1      36.225 -18.639 -20.479  0.00  0.00    +0.026 C 
ATOM     31  C   UNL     1      33.827 -18.841 -21.016  0.00  0.00    +0.026 C 
ATOM     32  C   UNL     1      35.576 -19.691 -19.635  0.00  0.00    -0.023 C 
ATOM     33  C   UNL     1      34.215 -19.805 -19.941  0.00  0.00    -0.026 C 
ATOM     34  C   UNL     1      36.169 -20.517 -18.695  0.00  0.00    +0.033 C 
ATOM     35  C   UNL     1      35.371 -21.463 -18.048  0.00  0.00    +0.148 C 
ATOM     36  C   UNL     1      33.419 -20.748 -19.312  0.00  0.00    -0.001 C 
ATOM     37  C   UNL     1      34.005 -21.577 -18.354  0.00  0.00    +0.037 C 
ENDBRANCH  28  35
ENDBRANCH  27  28
ENDBRANCH   1  27
TORSDOF 8
ENDMDL
MODEL 3
REMARK VINA RESULT:      -9.9      1.269      5.228
REMARK  Name = 93184
REMARK  8 active torsions:
REMARK  status: ('A' for Active; 'I' for Inactive)
REMARK    1  A    between atoms: C_1  and  C_2
REMARK    2  A    between atoms: C_1  and  C_10
REMARK    3  A    between atoms: C_1  and  C_27
REMARK    4  A    between atoms: N_9  and  CA_18
REMARK    5  A    between atoms: CA_17  and  C_23
REMARK    6  A    between atoms: C_23  and  O_24
REMARK    7  A    between atoms: C_27  and  O_28
REMARK    8  A    between atoms: O_28  and  C_35
REMARK                            x       y       z     vdW  Elec       q    Type
REMARK                         _______ _______ _______ _____ _____    ______ ____
ROOT
ATOM      1  C   UNL     1      33.433 -21.778 -17.256  0.00  0.00    +0.198 C 
ENDROOT
BRANCH   1   2
ATOM      2  C   UNL     1      33.463 -20.995 -18.557  0.00  0.00    -0.003 C 
ATOM      3  C   UNL     1      34.681 -20.748 -19.161  0.00  0.00    -0.003 C 
ATOM      4  C   UNL     1      32.273 -20.552 -19.101  0.00  0.00    -0.003 C 
ATOM      5  C   UNL     1      34.709 -20.028 -20.357  0.00  0.00    -0.000 C 
ATOM      6  C   UNL     1      32.301 -19.833 -20.295  0.00  0.00    -0.000 C 
ATOM      7  C   UNL     1      33.519 -19.571 -20.924  0.00  0.00    -0.000 C 
ENDBRANCH   1   2
BRANCH   1  10
ATOM      8  O   UNL     1      35.774 -21.166 -17.101  0.00  0.00    -0.274 OA
ATOM      9  N   UNL     1      34.769 -22.099 -15.231  0.00  0.00    -0.296 N 
ATOM     10  C   UNL     1      34.784 -21.645 -16.550  0.00  0.00    +0.237 C 
ATOM     11  H   UNL     1      33.932 -22.468 -14.869  0.00  0.00    +0.150 HD
BRANCH   9  18
ATOM     12  S   UNL     1      34.823 -24.452 -13.259  0.00  0.00    -0.118 S 
ATOM     13  O   UNL     1      37.827 -22.695 -15.962  0.00  0.00    -0.273 OA
ATOM     14  N   UNL     1      37.204 -23.640 -13.891  0.00  0.00    -0.260 N 
ATOM     15  C   UNL     1      36.030 -23.077 -13.217  0.00  0.00    +0.151 C 
ATOM     16  C   UNL     1      36.194 -25.710 -13.167  0.00  0.00    +0.068 C 
ATOM     17  CA  UNL     1      37.324 -25.079 -14.010  0.00  0.00    +0.184 C 
ATOM     18  CA  UNL     1      35.949 -22.052 -14.356  0.00  0.00    +0.178 C 
ATOM     19  C   UNL     1      37.189 -22.763 -14.936  0.00  0.00    +0.247 C 
ATOM     20  C   UNL     1      36.544 -25.920 -11.687  0.00  0.00    +0.013 C 
ATOM     21  C   UNL     1      35.706 -27.023 -13.783  0.00  0.00    +0.013 C 
BRANCH  17  23
ATOM     22  OXT UNL     1      39.265 -26.504 -13.840  0.00  0.00    -0.248 OA
ATOM     23  C   UNL     1      38.713 -25.443 -13.590  0.00  0.00    +0.333 C 
BRANCH  23  24
ATOM     24  O   UNL     1      39.281 -24.433 -12.888  0.00  0.00    -0.479 OA
ATOM     25  H   UNL     1      40.190 -24.470 -12.666  0.00  0.00    +0.295 HD
ENDBRANCH  23  24
ENDBRANCH  17  23
ENDBRANCH   9  18
ENDBRANCH   1  10
BRANCH   1  27
ATOM     26  O   UNL     1      32.922 -23.784 -18.546  0.00  0.00    -0.249 OA
ATOM     27  C   UNL     1      32.999 -23.223 -17.460  0.00  0.00    +0.334 C 
BRANCH  27  28
ATOM     28  O   UNL     1      32.754 -23.806 -16.216  0.00  0.00    -0.424 OA
BRANCH  28  35
ATOM     29  C   UNL     1      27.147 -22.036 -15.259  0.00  0.00    +0.009 C 
ATOM     30  C   UNL     1      27.829 -23.059 -16.180  0.00  0.00    +0.026 C 
ATOM     31  C   UNL     1      27.926 -22.045 -13.934  0.00  0.00    +0.026 C 
ATOM     32  C   UNL     1      29.239 -23.004 -15.680  0.00  0.00    -0.023 C 
ATOM     33  C   UNL     1      29.293 -22.428 -14.405  0.00  0.00    -0.026 C 
ATOM     34  C   UNL     1      30.383 -23.476 -16.301  0.00  0.00    +0.033 C 
ATOM     35  C   UNL     1      31.600 -23.352 -15.626  0.00  0.00    +0.148 C 
ATOM     36  C   UNL     1      30.493 -22.313 -13.725  0.00  0.00    -0.001 C 
ATOM     37  C   UNL     1      31.654 -22.775 -14.347  0.00  0.00    +0.037 C 
ENDBRANCH  28  35
ENDBRANCH  27  28
ENDBRANCH   1  27
TORSDOF 8
ENDMDL
MODEL 4
REMARK VINA RESULT:      -9.6     13.650     18.607
REMARK  Name = 93184
REMARK  8 active torsions:
REMARK  status: ('A' for Active; 'I' for Inactive)
REMARK    1  A    between atoms: C_1  and  C_2
REMARK    2  A    between atoms: C_1  and  C_10
REMARK    3  A    between atoms: C_1  and  C_27
REMARK    4  A    between atoms: N_9  and  CA_18
REMARK    5  A    between atoms: CA_17  and  C_23
REMARK    6  A    between atoms: C_23  and  O_24
REMARK    7  A    between atoms: C_27  and  O_28
REMARK    8  A    between atoms: O_28  and  C_35
REMARK                            x       y       z     vdW  Elec       q    Type
REMARK                         _______ _______ _______ _____ _____    ______ ____
ROOT
ATOM      1  C   UNL     1      32.318  -7.927 -22.155  0.00  0.00    +0.198 C 
ENDROOT
BRANCH   1   2
ATOM      2  C   UNL     1      31.534  -8.649 -21.072  0.00  0.00    -0.003 C 
ATOM      3  C   UNL     1      31.686  -8.251 -19.758  0.00  0.00    -0.003 C 
ATOM      4  C   UNL     1      30.691  -9.683 -21.431  0.00  0.00    -0.003 C 
ATOM      5  C   UNL     1      30.966  -8.915 -18.763  0.00  0.00    -0.000 C 
ATOM      6  C   UNL     1      29.972 -10.346 -20.437  0.00  0.00    -0.000 C 
ATOM      7  C   UNL     1      30.109  -9.962 -19.103  0.00  0.00    -0.000 C 
ENDBRANCH   1   2
BRANCH   1  10
ATOM      8  O   UNL     1      30.792  -6.098 -21.703  0.00  0.00    -0.274 OA
ATOM      9  N   UNL     1      32.260  -5.873 -23.484  0.00  0.00    -0.296 N 
ATOM     10  C   UNL     1      31.694  -6.553 -22.404  0.00  0.00    +0.237 C 
ATOM     11  H   UNL     1      32.979  -6.313 -23.992  0.00  0.00    +0.150 HD
BRANCH   9  18
ATOM     12  S   UNL     1      33.639  -4.981 -26.078  0.00  0.00    -0.118 S 
ATOM     13  O   UNL     1      29.449  -4.960 -24.712  0.00  0.00    -0.273 OA
ATOM     14  N   UNL     1      31.275  -3.946 -25.811  0.00  0.00    -0.260 N 
ATOM     15  C   UNL     1      32.551  -3.889 -25.090  0.00  0.00    +0.151 C 
ATOM     16  C   UNL     1      32.733  -4.532 -27.643  0.00  0.00    +0.068 C 
ATOM     17  CA  UNL     1      31.264  -4.395 -27.188  0.00  0.00    +0.184 C 
ATOM     18  CA  UNL     1      31.830  -4.530 -23.896  0.00  0.00    +0.178 C 
ATOM     19  C   UNL     1      30.574  -4.520 -24.791  0.00  0.00    +0.247 C 
ATOM     20  C   UNL     1      33.353  -3.239 -28.192  0.00  0.00    +0.013 C 
ATOM     21  C   UNL     1      32.900  -5.665 -28.657  0.00  0.00    +0.013 C 
BRANCH  17  23
ATOM     22  OXT UNL     1      29.993  -3.611 -29.085  0.00  0.00    -0.248 OA
ATOM     23  C   UNL     1      30.443  -3.417 -27.966  0.00  0.00    +0.333 C 
BRANCH  23  24
ATOM     24  O   UNL     1      30.265  -2.273 -27.260  0.00  0.00    -0.479 OA
ATOM     25  H   UNL     1      30.442  -2.259 -26.340  0.00  0.00    +0.295 HD
ENDBRANCH  23  24
ENDBRANCH  17  23
ENDBRANCH   9  18
ENDBRANCH   1  10
BRANCH   1  27
ATOM     26  O   UNL     1      31.759  -8.651 -24.416  0.00  0.00    -0.249 OA
ATOM     27  C   UNL     1      32.462  -8.763 -23.420  0.00  0.00    +0.334 C 
BRANCH  27  28
ATOM     28  O   UNL     1      33.543  -9.631 -23.271  0.00  0.00    -0.424 OA
BRANCH  28  35
ATOM     29  C   UNL     1      33.079 -15.549 -23.777  0.00  0.00    +0.009 C 
ATOM     30  C   UNL     1      32.980 -14.539 -22.624  0.00  0.00    +0.026 C 
ATOM     31  C   UNL     1      32.473 -14.869 -25.015  0.00  0.00    +0.026 C 
ATOM     32  C   UNL     1      33.051 -13.242 -23.369  0.00  0.00    -0.023 C 
ATOM     33  C   UNL     1      32.763 -13.431 -24.726  0.00  0.00    -0.026 C 
ATOM     34  C   UNL     1      33.309 -11.980 -22.861  0.00  0.00    +0.033 C 
ATOM     35  C   UNL     1      33.287 -10.896 -23.742  0.00  0.00    +0.148 C 
ATOM     36  C   UNL     1      32.727 -12.360 -25.603  0.00  0.00    -0.001 C 
ATOM     37  C   UNL     1      32.998 -11.085 -25.103  0.00  0.00    +0.037 C 
ENDBRANCH  28  35
ENDBRANCH  27  28
ENDBRANCH   1  27
TORSDOF 8
ENDMDL
MODEL 5
REMARK VINA RESULT:      -9.6     13.471     18.622
REMARK  Name = 93184
REMARK  8 active torsions:
REMARK  status: ('A' for Active; 'I' for Inactive)
REMARK    1  A    between atoms: C_1  and  C_2
REMARK    2  A    between atoms: C_1  and  C_10
REMARK    3  A    between atoms: C_1  and  C_27
REMARK    4  A    between atoms: N_9  and  CA_18
REMARK    5  A    between atoms: CA_17  and  C_23
REMARK    6  A    between atoms: C_23  and  O_24
REMARK    7  A    between atoms: C_27  and  O_28
REMARK    8  A    between atoms: O_28  and  C_35
REMARK                            x       y       z     vdW  Elec       q    Type
REMARK                         _______ _______ _______ _____ _____    ______ ____
ROOT
ATOM      1  C   UNL     1      30.949  -8.499 -22.140  0.00  0.00    +0.198 C 
ENDROOT
BRANCH   1   2
ATOM      2  C   UNL     1      32.299  -8.659 -22.818  0.00  0.00    -0.003 C 
ATOM      3  C   UNL     1      32.460  -9.656 -23.761  0.00  0.00    -0.003 C 
ATOM      4  C   UNL     1      33.328  -7.804 -22.474  0.00  0.00    -0.003 C 
ATOM      5  C   UNL     1      33.700  -9.804 -24.384  0.00  0.00    -0.000 C 
ATOM      6  C   UNL     1      34.567  -7.952 -23.096  0.00  0.00    -0.000 C 
ATOM      7  C   UNL     1      34.754  -8.951 -24.051  0.00  0.00    -0.000 C 
ENDBRANCH   1   2
BRANCH   1  10
ATOM      8  O   UNL     1      30.075  -6.491 -21.100  0.00  0.00    -0.274 OA
ATOM      9  N   UNL     1      30.876  -6.329 -23.270  0.00  0.00    -0.296 N 
ATOM     10  C   UNL     1      30.576  -7.016 -22.093  0.00  0.00    +0.237 C 
ATOM     11  H   UNL     1      31.277  -6.829 -24.017  0.00  0.00    +0.150 HD
BRANCH   9  18
ATOM     12  S   UNL     1      33.177  -4.934 -24.751  0.00  0.00    -0.118 S 
ATOM     13  O   UNL     1      28.796  -4.889 -25.229  0.00  0.00    -0.273 OA
ATOM     14  N   UNL     1      30.887  -3.795 -25.188  0.00  0.00    -0.260 N 
ATOM     15  C   UNL     1      31.753  -4.037 -24.030  0.00  0.00    +0.151 C 
ATOM     16  C   UNL     1      32.983  -4.024 -26.365  0.00  0.00    +0.068 C 
ATOM     17  CA  UNL     1      31.453  -3.878 -26.519  0.00  0.00    +0.184 C 
ATOM     18  CA  UNL     1      30.622  -4.893 -23.444  0.00  0.00    +0.178 C 
ATOM     19  C   UNL     1      29.843  -4.545 -24.729  0.00  0.00    +0.247 C 
ATOM     20  C   UNL     1      33.742  -2.695 -26.250  0.00  0.00    +0.013 C 
ATOM     21  C   UNL     1      33.578  -4.874 -27.488  0.00  0.00    +0.013 C 
BRANCH  17  23
ATOM     22  OXT UNL     1      31.152  -2.484 -28.467  0.00  0.00    -0.248 OA
ATOM     23  C   UNL     1      31.000  -2.666 -27.268  0.00  0.00    +0.333 C 
BRANCH  23  24
ATOM     24  O   UNL     1      30.396  -1.786 -26.433  0.00  0.00    -0.479 OA
ATOM     25  H   UNL     1      30.352  -1.965 -25.515  0.00  0.00    +0.295 HD
ENDBRANCH  23  24
ENDBRANCH  17  23
ENDBRANCH   9  18
ENDBRANCH   1  10
BRANCH   1  27
ATOM     26  O   UNL     1      31.398  -8.725 -19.753  0.00  0.00    -0.249 OA
ATOM     27  C   UNL     1      30.902  -9.177 -20.778  0.00  0.00    +0.334 C 
BRANCH  27  28
ATOM     28  O   UNL     1      30.169 -10.359 -20.882  0.00  0.00    -0.424 OA
BRANCH  28  35
ATOM     29  C   UNL     1      33.802 -14.946 -22.000  0.00  0.00    +0.009 C 
ATOM     30  C   UNL     1      33.663 -13.508 -22.522  0.00  0.00    +0.026 C 
ATOM     31  C   UNL     1      33.451 -14.910 -20.505  0.00  0.00    +0.026 C 
ATOM     32  C   UNL     1      32.611 -12.968 -21.606  0.00  0.00    -0.023 C 
ATOM     33  C   UNL     1      32.491 -13.764 -20.461  0.00  0.00    -0.026 C 
ATOM     34  C   UNL     1      31.848 -11.823 -21.764  0.00  0.00    +0.033 C 
ATOM     35  C   UNL     1      30.943 -11.487 -20.754  0.00  0.00    +0.148 C 
ATOM     36  C   UNL     1      31.605 -13.431 -19.450  0.00  0.00    -0.001 C 
ATOM     37  C   UNL     1      30.823 -12.285 -19.605  0.00  0.00    +0.037 C 
ENDBRANCH  28  35
ENDBRANCH  27  28
ENDBRANCH   1  27
TORSDOF 8
ENDMDL
MODEL 6
REMARK VINA RESULT:      -9.5     11.772     16.535
REMARK  Name = 93184
REMARK  8 active torsions:
REMARK  status: ('A' for Active; 'I' for Inactive)
REMARK    1  A    between atoms: C_1  and  C_2
REMARK    2  A    between atoms: C_1  and  C_10
REMARK    3  A    between atoms: C_1  and  C_27
REMARK    4  A    between atoms: N_9  and  CA_18
REMARK    5  A    between atoms: CA_17  and  C_23
REMARK    6  A    between atoms: C_23  and  O_24
REMARK    7  A    between atoms: C_27  and  O_28
REMARK    8  A    between atoms: O_28  and  C_35
REMARK                            x       y       z     vdW  Elec       q    Type
REMARK                         _______ _______ _______ _____ _____    ______ ____
ROOT
ATOM      1  C   UNL     1      32.281 -12.331 -23.019  0.00  0.00    +0.198 C 
ENDROOT
BRANCH   1   2
ATOM      2  C   UNL     1      32.822 -13.737 -23.216  0.00  0.00    -0.003 C 
ATOM      3  C   UNL     1      32.367 -14.485 -24.285  0.00  0.00    -0.003 C 
ATOM      4  C   UNL     1      33.752 -14.230 -22.321  0.00  0.00    -0.003 C 
ATOM      5  C   UNL     1      32.863 -15.777 -24.466  0.00  0.00    -0.000 C 
ATOM      6  C   UNL     1      34.247 -15.521 -22.503  0.00  0.00    -0.000 C 
ATOM      7  C   UNL     1      33.803 -16.295 -23.575  0.00  0.00    -0.000 C 
ENDBRANCH   1   2
BRANCH   1  10
ATOM      8  O   UNL     1      33.741 -11.611 -24.815  0.00  0.00    -0.274 OA
ATOM      9  N   UNL     1      33.261 -10.091 -23.131  0.00  0.00    -0.296 N 
ATOM     10  C   UNL     1      33.174 -11.334 -23.760  0.00  0.00    +0.237 C 
ATOM     11  H   UNL     1      32.773  -9.956 -22.286  0.00  0.00    +0.150 HD
BRANCH   9  18
ATOM     12  S   UNL     1      31.677  -8.487 -25.216  0.00  0.00    -0.118 S 
ATOM     13  O   UNL     1      34.085  -7.348 -21.705  0.00  0.00    -0.273 OA
ATOM     14  N   UNL     1      33.394  -7.021 -23.938  0.00  0.00    -0.260 N 
ATOM     15  C   UNL     1      33.441  -8.179 -24.836  0.00  0.00    +0.151 C 
ATOM     16  C   UNL     1      31.287  -6.672 -25.064  0.00  0.00    +0.068 C 
ATOM     17  CA  UNL     1      32.202  -6.197 -23.914  0.00  0.00    +0.184 C 
ATOM     18  CA  UNL     1      34.047  -8.975 -23.672  0.00  0.00    +0.178 C 
ATOM     19  C   UNL     1      33.924  -7.669 -22.861  0.00  0.00    +0.247 C 
ATOM     20  C   UNL     1      31.574  -6.013 -26.420  0.00  0.00    +0.013 C 
ATOM     21  C   UNL     1      29.809  -6.510 -24.703  0.00  0.00    +0.013 C 
BRANCH  17  23
ATOM     22  OXT UNL     1      31.966  -3.805 -23.692  0.00  0.00    -0.248 OA
ATOM     23  C   UNL     1      32.647  -4.772 -23.998  0.00  0.00    +0.333 C 
BRANCH  23  24
ATOM     24  O   UNL     1      33.916  -4.695 -24.468  0.00  0.00    -0.479 OA
ATOM     25  H   UNL     1      34.330  -3.860 -24.565  0.00  0.00    +0.295 HD
ENDBRANCH  23  24
ENDBRANCH  17  23
ENDBRANCH   9  18
ENDBRANCH   1  10
BRANCH   1  27
ATOM     26  O   UNL     1      32.936 -12.125 -20.677  0.00  0.00    -0.249 OA
ATOM     27  C   UNL     1      32.085 -11.989 -21.548  0.00  0.00    +0.334 C 
BRANCH  27  28
ATOM     28  O   UNL     1      30.809 -11.455 -21.370  0.00  0.00    -0.424 OA
BRANCH  28  35
ATOM     29  C   UNL     1      31.211  -5.795 -19.556  0.00  0.00    +0.009 C 
ATOM     30  C   UNL     1      30.788  -6.500 -20.853  0.00  0.00    +0.026 C 
ATOM     31  C   UNL     1      30.741  -6.684 -18.394  0.00  0.00    +0.026 C 
ATOM     32  C   UNL     1      30.814  -7.934 -20.425  0.00  0.00    -0.023 C 
ATOM     33  C   UNL     1      30.788  -8.038 -19.029  0.00  0.00    -0.026 C 
ATOM     34  C   UNL     1      30.816  -9.064 -21.225  0.00  0.00    +0.033 C 
ATOM     35  C   UNL     1      30.803 -10.315 -20.604  0.00  0.00    +0.148 C 
ATOM     36  C   UNL     1      30.762  -9.274 -18.406  0.00  0.00    -0.001 C 
ATOM     37  C   UNL     1      30.776 -10.419 -19.204  0.00  0.00    +0.037 C 
ENDBRANCH  28  35
ENDBRANCH  27  28
ENDBRANCH   1  27
TORSDOF 8
ENDMDL
MODEL 7
REMARK VINA RESULT:      -9.2      1.804      2.411
REMARK  Name = 93184
REMARK  8 active torsions:
REMARK  status: ('A' for Active; 'I' for Inactive)
REMARK    1  A    between atoms: C_1  and  C_2
REMARK    2  A    between atoms: C_1  and  C_10
REMARK    3  A    between atoms: C_1  and  C_27
REMARK    4  A    between atoms: N_9  and  CA_18
REMARK    5  A    between atoms: CA_17  and  C_23
REMARK    6  A    between atoms: C_23  and  O_24
REMARK    7  A    between atoms: C_27  and  O_28
REMARK    8  A    between atoms: O_28  and  C_35
REMARK                            x       y       z     vdW  Elec       q    Type
REMARK                         _______ _______ _______ _____ _____    ______ ____
ROOT
ATOM      1  C   UNL     1      31.350 -23.510 -15.795  0.00  0.00    +0.198 C 
ENDROOT
BRANCH   1   2
ATOM      2  C   UNL     1      29.904 -23.259 -15.402  0.00  0.00    -0.003 C 
ATOM      3  C   UNL     1      28.933 -24.146 -15.824  0.00  0.00    -0.003 C 
ATOM      4  C   UNL     1      29.601 -22.152 -14.633  0.00  0.00    -0.003 C 
ATOM      5  C   UNL     1      27.604 -23.916 -15.463  0.00  0.00    -0.000 C 
ATOM      6  C   UNL     1      28.273 -21.922 -14.273  0.00  0.00    -0.000 C 
ATOM      7  C   UNL     1      27.275 -22.804 -14.688  0.00  0.00    -0.000 C 
ENDBRANCH   1   2
BRANCH   1  10
ATOM      8  O   UNL     1      32.831 -22.530 -14.144  0.00  0.00    -0.274 OA
ATOM      9  N   UNL     1      32.245 -24.760 -13.891  0.00  0.00    -0.296 N 
ATOM     10  C   UNL     1      32.224 -23.524 -14.539  0.00  0.00    +0.237 C 
ATOM     11  H   UNL     1      31.729 -25.503 -14.278  0.00  0.00    +0.150 HD
BRANCH   9  18
ATOM     12  S   UNL     1      35.271 -24.838 -14.405  0.00  0.00    -0.118 S 
ATOM     13  O   UNL     1      32.755 -22.771 -11.436  0.00  0.00    -0.273 OA
ATOM     14  N   UNL     1      34.697 -23.975 -12.027  0.00  0.00    -0.260 N 
ATOM     15  C   UNL     1      34.516 -25.220 -12.782  0.00  0.00    +0.151 C 
ATOM     16  C   UNL     1      36.498 -23.686 -13.608  0.00  0.00    +0.068 C 
ATOM     17  CA  UNL     1      35.689 -23.019 -12.474  0.00  0.00    +0.184 C 
ATOM     18  CA  UNL     1      33.002 -25.001 -12.655  0.00  0.00    +0.178 C 
ATOM     19  C   UNL     1      33.365 -23.717 -11.881  0.00  0.00    +0.247 C 
ATOM     20  C   UNL     1      37.691 -24.525 -13.130  0.00  0.00    +0.013 C 
ATOM     21  C   UNL     1      36.960 -22.658 -14.643  0.00  0.00    +0.013 C 
BRANCH  17  23
ATOM     22  OXT UNL     1      37.284 -21.691 -11.242  0.00  0.00    -0.248 OA
ATOM     23  C   UNL     1      36.484 -22.614 -11.274  0.00  0.00    +0.333 C 
BRANCH  23  24
ATOM     24  O   UNL     1      36.200 -23.415 -10.219  0.00  0.00    -0.479 OA
ATOM     25  H   UNL     1      35.359 -23.368  -9.808  0.00  0.00    +0.295 HD
ENDBRANCH  23  24
ENDBRANCH  17  23
ENDBRANCH   9  18
ENDBRANCH   1  10
BRANCH   1  27
ATOM     26  O   UNL     1      31.188 -21.593 -17.294  0.00  0.00    -0.249 OA
ATOM     27  C   UNL     1      31.837 -22.535 -16.858  0.00  0.00    +0.334 C 
BRANCH  27  28
ATOM     28  O   UNL     1      33.147 -22.862 -17.211  0.00  0.00    -0.424 OA
BRANCH  28  35
ATOM     29  C   UNL     1      34.283 -18.925 -21.535  0.00  0.00    +0.009 C 
ATOM     30  C   UNL     1      33.024 -19.411 -20.802  0.00  0.00    +0.026 C 
ATOM     31  C   UNL     1      35.419 -18.908 -20.501  0.00  0.00    +0.026 C 
ATOM     32  C   UNL     1      33.624 -20.285 -19.745  0.00  0.00    -0.023 C 
ATOM     33  C   UNL     1      34.984 -19.999 -19.575  0.00  0.00    -0.026 C 
ATOM     34  C   UNL     1      32.989 -21.234 -18.962  0.00  0.00    +0.033 C 
ATOM     35  C   UNL     1      33.745 -21.911 -18.002  0.00  0.00    +0.148 C 
ATOM     36  C   UNL     1      35.737 -20.657 -18.617  0.00  0.00    -0.001 C 
ATOM     37  C   UNL     1      35.109 -21.625 -17.831  0.00  0.00    +0.037 C 
ENDBRANCH  28  35
ENDBRANCH  27  28
ENDBRANCH   1  27
TORSDOF 8
ENDMDL
MODEL 8
REMARK VINA RESULT:      -9.1     12.725     17.416
REMARK  Name = 93184
REMARK  8 active torsions:
REMARK  status: ('A' for Active; 'I' for Inactive)
REMARK    1  A    between atoms: C_1  and  C_2
REMARK    2  A    between atoms: C_1  and  C_10
REMARK    3  A    between atoms: C_1  and  C_27
REMARK    4  A    between atoms: N_9  and  CA_18
REMARK    5  A    between atoms: CA_17  and  C_23
REMARK    6  A    between atoms: C_23  and  O_24
REMARK    7  A    between atoms: C_27  and  O_28
REMARK    8  A    between atoms: O_28  and  C_35
REMARK                            x       y       z     vdW  Elec       q    Type
REMARK                         _______ _______ _______ _____ _____    ______ ____
ROOT
ATOM      1  C   UNL     1      31.781  -9.491 -20.939  0.00  0.00    +0.198 C 
ENDROOT
BRANCH   1   2
ATOM      2  C   UNL     1      31.585  -8.165 -20.223  0.00  0.00    -0.003 C 
ATOM      3  C   UNL     1      30.839  -8.137 -19.060  0.00  0.00    -0.003 C 
ATOM      4  C   UNL     1      32.157  -7.025 -20.754  0.00  0.00    -0.003 C 
ATOM      5  C   UNL     1      30.658  -6.919 -18.403  0.00  0.00    -0.000 C 
ATOM      6  C   UNL     1      31.976  -5.809 -20.097  0.00  0.00    -0.000 C 
ATOM      7  C   UNL     1      31.226  -5.755 -18.921  0.00  0.00    -0.000 C 
ENDBRANCH   1   2
BRANCH   1  10
ATOM      8  O   UNL     1      33.008  -9.858 -22.997  0.00  0.00    -0.274 OA
ATOM      9  N   UNL     1      31.354  -8.233 -22.994  0.00  0.00    -0.296 N 
ATOM     10  C   UNL     1      32.132  -9.230 -22.405  0.00  0.00    +0.237 C 
ATOM     11  H   UNL     1      30.674  -7.781 -22.445  0.00  0.00    +0.150 HD
BRANCH   9  18
ATOM     12  S   UNL     1      29.957  -5.559 -23.565  0.00  0.00    -0.118 S 
ATOM     13  O   UNL     1      33.962  -7.145 -24.496  0.00  0.00    -0.273 OA
ATOM     14  N   UNL     1      32.022  -5.939 -25.089  0.00  0.00    -0.260 N 
ATOM     15  C   UNL     1      30.727  -6.590 -24.867  0.00  0.00    +0.151 C 
ATOM     16  C   UNL     1      30.827  -4.039 -24.200  0.00  0.00    +0.068 C 
ATOM     17  CA  UNL     1      32.205  -4.569 -24.652  0.00  0.00    +0.184 C 
ATOM     18  CA  UNL     1      31.503  -7.828 -24.399  0.00  0.00    +0.178 C 
ATOM     19  C   UNL     1      32.775  -7.002 -24.681  0.00  0.00    +0.247 C 
ATOM     20  C   UNL     1      29.973  -3.443 -25.328  0.00  0.00    +0.013 C 
ATOM     21  C   UNL     1      30.965  -3.031 -23.057  0.00  0.00    +0.013 C 
BRANCH  17  23
ATOM     22  OXT UNL     1      33.344  -2.717 -25.701  0.00  0.00    -0.248 OA
ATOM     23  C   UNL     1      32.836  -3.825 -25.786  0.00  0.00    +0.333 C 
BRANCH  23  24
ATOM     24  O   UNL     1      32.766  -4.547 -26.931  0.00  0.00    -0.479 OA
ATOM     25  H   UNL     1      33.401  -4.416 -27.607  0.00  0.00    +0.295 HD
ENDBRANCH  23  24
ENDBRANCH  17  23
ENDBRANCH   9  18
ENDBRANCH   1  10
BRANCH   1  27
ATOM     26  O   UNL     1      29.501 -10.282 -21.297  0.00  0.00    -0.249 OA
ATOM     27  C   UNL     1      30.592 -10.426 -20.760  0.00  0.00    +0.334 C 
BRANCH  27  28
ATOM     28  O   UNL     1      30.966 -11.485 -19.932  0.00  0.00    -0.424 OA
BRANCH  28  35
ATOM     29  C   UNL     1      33.114 -15.281 -23.990  0.00  0.00    +0.009 C 
ATOM     30  C   UNL     1      32.417 -13.913 -24.033  0.00  0.00    +0.026 C 
ATOM     31  C   UNL     1      34.016 -15.280 -22.746  0.00  0.00    +0.026 C 
ATOM     32  C   UNL     1      32.360 -13.571 -22.577  0.00  0.00    -0.023 C 
ATOM     33  C   UNL     1      33.268 -14.348 -21.847  0.00  0.00    -0.026 C 
ATOM     34  C   UNL     1      31.585 -12.606 -21.957  0.00  0.00    +0.033 C 
ATOM     35  C   UNL     1      31.723 -12.432 -20.578  0.00  0.00    +0.148 C 
ATOM     36  C   UNL     1      33.420 -14.173 -20.482  0.00  0.00    -0.001 C 
ATOM     37  C   UNL     1      32.634 -13.210 -19.846  0.00  0.00    +0.037 C 
ENDBRANCH  28  35
ENDBRANCH  27  28
ENDBRANCH   1  27
TORSDOF 8
ENDMDL
MODEL 9
REMARK VINA RESULT:      -9.0      1.501      2.555
REMARK  Name = 93184
REMARK  8 active torsions:
REMARK  status: ('A' for Active; 'I' for Inactive)
REMARK    1  A    between atoms: C_1  and  C_2
REMARK    2  A    between atoms: C_1  and  C_10
REMARK    3  A    between atoms: C_1  and  C_27
REMARK    4  A    between atoms: N_9  and  CA_18
REMARK    5  A    between atoms: CA_17  and  C_23
REMARK    6  A    between atoms: C_23  and  O_24
REMARK    7  A    between atoms: C_27  and  O_28
REMARK    8  A    between atoms: O_28  and  C_35
REMARK                            x       y       z     vdW  Elec       q    Type
REMARK                         _______ _______ _______ _____ _____    ______ ____
ROOT
ATOM      1  C   UNL     1      33.648 -22.120 -17.754  0.00  0.00    +0.198 C 
ENDROOT
BRANCH   1   2
ATOM      2  C   UNL     1      32.421 -22.429 -16.913  0.00  0.00    -0.003 C 
ATOM      3  C   UNL     1      31.220 -21.827 -17.236  0.00  0.00    -0.003 C 
ATOM      4  C   UNL     1      32.540 -23.302 -15.850  0.00  0.00    -0.003 C 
ATOM      5  C   UNL     1      30.093 -22.110 -16.463  0.00  0.00    -0.000 C 
ATOM      6  C   UNL     1      31.414 -23.585 -15.078  0.00  0.00    -0.000 C 
ATOM      7  C   UNL     1      30.190 -22.989 -15.384  0.00  0.00    -0.000 C 
ENDBRANCH   1   2
BRANCH   1  10
ATOM      8  O   UNL     1      35.667 -20.918 -17.154  0.00  0.00    -0.274 OA
ATOM      9  N   UNL     1      34.794 -22.413 -15.611  0.00  0.00    -0.296 N 
ATOM     10  C   UNL     1      34.813 -21.744 -16.836  0.00  0.00    +0.237 C 
ATOM     11  H   UNL     1      34.072 -23.059 -15.440  0.00  0.00    +0.150 HD
BRANCH   9  18
ATOM     12  S   UNL     1      34.778 -24.665 -13.524  0.00  0.00    -0.118 S 
ATOM     13  O   UNL     1      37.976 -22.681 -15.818  0.00  0.00    -0.273 OA
ATOM     14  N   UNL     1      37.129 -23.610 -13.819  0.00  0.00    -0.260 N 
ATOM     15  C   UNL     1      35.808 -23.159 -13.372  0.00  0.00    +0.151 C 
ATOM     16  C   UNL     1      36.243 -25.752 -13.147  0.00  0.00    +0.068 C 
ATOM     17  CA  UNL     1      37.421 -25.029 -13.836  0.00  0.00    +0.184 C 
ATOM     18  CA  UNL     1      35.803 -22.196 -14.567  0.00  0.00    +0.178 C 
ATOM     19  C   UNL     1      37.190 -22.782 -14.903  0.00  0.00    +0.247 C 
ATOM     20  C   UNL     1      36.368 -25.862 -11.621  0.00  0.00    +0.013 C 
ATOM     21  C   UNL     1      36.005 -27.135 -13.756  0.00  0.00    +0.013 C 
BRANCH  17  23
ATOM     22  OXT UNL     1      39.503 -26.160 -13.375  0.00  0.00    -0.248 OA
ATOM     23  C   UNL     1      38.753 -25.214 -13.184  0.00  0.00    +0.333 C 
BRANCH  23  24
ATOM     24  O   UNL     1      39.021 -24.187 -12.341  0.00  0.00    -0.479 OA
ATOM     25  H   UNL     1      39.839 -24.155 -11.885  0.00  0.00    +0.295 HD
ENDBRANCH  23  24
ENDBRANCH  17  23
ENDBRANCH   9  18
ENDBRANCH   1  10
BRANCH   1  27
ATOM     26  O   UNL     1      32.328 -20.433 -18.923  0.00  0.00    -0.249 OA
ATOM     27  C   UNL     1      33.365 -21.078 -18.828  0.00  0.00    +0.334 C 
BRANCH  27  28
ATOM     28  O   UNL     1      34.489 -20.949 -19.645  0.00  0.00    -0.424 OA
BRANCH  28  35
ATOM     29  C   UNL     1      33.743 -17.051 -24.088  0.00  0.00    +0.009 C 
ATOM     30  C   UNL     1      32.995 -18.295 -23.588  0.00  0.00    +0.026 C 
ATOM     31  C   UNL     1      34.282 -16.328 -22.843  0.00  0.00    +0.026 C 
ATOM     32  C   UNL     1      33.739 -18.592 -22.324  0.00  0.00    -0.023 C 
ATOM     33  C   UNL     1      34.470 -17.475 -21.902  0.00  0.00    -0.026 C 
ATOM     34  C   UNL     1      33.728 -19.761 -21.581  0.00  0.00    +0.033 C 
ATOM     35  C   UNL     1      34.476 -19.803 -20.403  0.00  0.00    +0.148 C 
ATOM     36  C   UNL     1      35.203 -17.504 -20.728  0.00  0.00    -0.001 C 
ATOM     37  C   UNL     1      35.208 -18.682 -19.979  0.00  0.00    +0.037 C 
ENDBRANCH  28  35
ENDBRANCH  27  28
ENDBRANCH   1  27
TORSDOF 8
ENDMDL
