MODEL 1
REMARK VINA RESULT:     -12.1      0.000      0.000
REMARK  Name = 24752833
REMARK  4 active torsions:
REMARK  status: ('A' for Active; 'I' for Inactive)
REMARK    1  A    between atoms: C_1  and  N_8
REMARK    2  A    between atoms: C_2  and  N_23
REMARK    3  A    between atoms: C_9  and  C_14
REMARK    4  A    between atoms: C_24  and  C_28
REMARK                            x       y       z     vdW  Elec       q    Type
REMARK                         _______ _______ _______ _____ _____    ______ ____
ROOT
ATOM      1  C   UNL     1      30.491 -22.888 -14.570  0.00  0.00    +0.090 C 
ATOM      2  C   UNL     1      30.062 -22.998 -16.044  0.00  0.00    +0.090 C 
ATOM      3  C   UNL     1      29.545 -23.673 -13.655  0.00  0.00    +0.021 C 
ATOM      4  C   UNL     1      28.592 -22.613 -16.235  0.00  0.00    +0.021 C 
ATOM      5  C   UNL     1      28.088 -23.272 -13.857  0.00  0.00    +0.002 C 
ATOM      6  C   UNL     1      27.670 -23.410 -15.316  0.00  0.00    +0.002 C 
ENDROOT
BRANCH   1   8
ATOM      7  O   UNL     1      31.868 -23.215 -12.072  0.00  0.00    -0.267 OA
ATOM      8  N   UNL     1      31.849 -23.352 -14.386  0.00  0.00    -0.298 N 
ATOM      9  C   UNL     1      32.427 -23.477 -13.133  0.00  0.00    +0.282 C 
ATOM     10  H   UNL     1      32.382 -23.588 -15.180  0.00  0.00    +0.150 HD
BRANCH   9  14
ATOM     11  S   UNL     1      34.855 -23.693 -14.481  0.00  0.00    -0.074 S 
ATOM     12  N   UNL     1      38.203 -25.695 -13.354  0.00  0.00    +0.387 N 
ATOM     13  N   UNL     1      34.377 -24.557 -12.081  0.00  0.00    -0.399 NA
ATOM     14  C   UNL     1      33.838 -23.942 -13.114  0.00  0.00    +0.210 C 
ATOM     15  C   UNL     1      35.688 -24.849 -12.387  0.00  0.00    +0.093 C 
ATOM     16  C   UNL     1      36.113 -24.463 -13.640  0.00  0.00    +0.082 C 
ATOM     17  C   UNL     1      36.589 -25.564 -11.445  0.00  0.00    +0.032 C 
ATOM     18  C   UNL     1      37.499 -24.666 -14.157  0.00  0.00    -0.059 C 
ATOM     19  C   UNL     1      38.062 -25.449 -11.901  0.00  0.00    -0.070 C 
ATOM     20  C   UNL     1      39.614 -25.754 -13.733  0.00  0.00    -0.101 C 
ATOM     21  H   UNL     1      37.770 -26.597 -13.552  0.00  0.00    -0.080 HD
ENDBRANCH   9  14
ENDBRANCH   1   8
BRANCH   2  23
ATOM     22  O   UNL     1      32.517 -23.777 -17.314  0.00  0.00    -0.269 OA
ATOM     23  N   UNL     1      30.898 -22.174 -16.890  0.00  0.00    -0.300 N 
ATOM     24  C   UNL     1      32.069 -22.643 -17.459  0.00  0.00    +0.259 C 
ATOM     25  H   UNL     1      30.622 -21.246 -17.069  0.00  0.00    +0.150 HD
BRANCH  24  28
ATOM     26 CL   UNL     1      35.035 -17.249 -22.125  0.00  0.00    -0.082 Cl
ATOM     27  N   UNL     1      34.189 -21.533 -18.244  0.00  0.00    -0.309 N 
ATOM     28  C   UNL     1      32.827 -21.664 -18.282  0.00  0.00    +0.102 C 
ATOM     29  C   UNL     1      32.337 -20.752 -19.188  0.00  0.00    +0.020 C 
ATOM     30  C   UNL     1      34.595 -20.546 -19.113  0.00  0.00    +0.048 C 
ATOM     31  C   UNL     1      33.445 -20.036 -19.723  0.00  0.00    +0.016 C 
ATOM     32  C   UNL     1      35.878 -20.069 -19.404  0.00  0.00    +0.015 C 
ATOM     33  C   UNL     1      33.581 -19.001 -20.669  0.00  0.00    +0.013 C 
ATOM     34  C   UNL     1      34.859 -18.515 -20.970  0.00  0.00    +0.058 C 
ATOM     35  C   UNL     1      35.988 -19.042 -20.346  0.00  0.00    +0.013 C 
ATOM     36  H   UNL     1      34.790 -22.066 -17.677  0.00  0.00    +0.152 HD
ENDBRANCH  24  28
ENDBRANCH   2  23
TORSDOF 4
ENDMDL
MODEL 2
REMARK VINA RESULT:     -11.3      2.960      7.541
REMARK  Name = 24752833
REMARK  4 active torsions:
REMARK  status: ('A' for Active; 'I' for Inactive)
REMARK    1  A    between atoms: C_1  and  N_8
REMARK    2  A    between atoms: C_2  and  N_23
REMARK    3  A    between atoms: C_9  and  C_14
REMARK    4  A    between atoms: C_24  and  C_28
REMARK                            x       y       z     vdW  Elec       q    Type
REMARK                         _______ _______ _______ _____ _____    ______ ____
ROOT
ATOM      1  C   UNL     1      30.633 -23.104 -15.747  0.00  0.00    +0.090 C 
ATOM      2  C   UNL     1      31.205 -23.017 -14.320  0.00  0.00    +0.090 C 
ATOM      3  C   UNL     1      29.142 -22.750 -15.772  0.00  0.00    +0.021 C 
ATOM      4  C   UNL     1      30.378 -23.843 -13.330  0.00  0.00    +0.021 C 
ATOM      5  C   UNL     1      28.337 -23.586 -14.783  0.00  0.00    +0.002 C 
ATOM      6  C   UNL     1      28.899 -23.469 -13.371  0.00  0.00    +0.002 C 
ENDROOT
BRANCH   1   8
ATOM      7  O   UNL     1      32.747 -23.876 -17.529  0.00  0.00    -0.267 OA
ATOM      8  N   UNL     1      31.358 -22.240 -16.653  0.00  0.00    -0.298 N 
ATOM      9  C   UNL     1      32.367 -22.710 -17.478  0.00  0.00    +0.282 C 
ATOM     10  H   UNL     1      31.125 -21.284 -16.685  0.00  0.00    +0.150 HD
BRANCH   9  14
ATOM     11  S   UNL     1      32.095 -20.641 -19.324  0.00  0.00    -0.074 S 
ATOM     12  N   UNL     1      35.002 -18.682 -21.372  0.00  0.00    +0.387 N 
ATOM     13  N   UNL     1      34.339 -21.538 -18.379  0.00  0.00    -0.399 NA
ATOM     14  C   UNL     1      33.032 -21.692 -18.332  0.00  0.00    +0.210 C 
ATOM     15  C   UNL     1      34.623 -20.517 -19.259  0.00  0.00    +0.093 C 
ATOM     16  C   UNL     1      33.537 -19.925 -19.865  0.00  0.00    +0.082 C 
ATOM     17  C   UNL     1      36.014 -20.091 -19.567  0.00  0.00    +0.032 C 
ATOM     18  C   UNL     1      33.626 -18.790 -20.830  0.00  0.00    -0.059 C 
ATOM     19  C   UNL     1      36.020 -18.728 -20.299  0.00  0.00    -0.070 C 
ATOM     20  C   UNL     1      35.140 -17.460 -22.163  0.00  0.00    -0.101 C 
ATOM     21  H   UNL     1      35.163 -19.487 -21.978  0.00  0.00    -0.080 HD
ENDBRANCH   9  14
ENDBRANCH   1   8
BRANCH   2  23
ATOM     22  O   UNL     1      32.815 -23.439 -11.981  0.00  0.00    -0.269 OA
ATOM     23  N   UNL     1      32.584 -23.450 -14.287  0.00  0.00    -0.300 N 
ATOM     24  C   UNL     1      33.279 -23.625 -13.103  0.00  0.00    +0.259 C 
ATOM     25  H   UNL     1      33.046 -23.627 -15.139  0.00  0.00    +0.150 HD
BRANCH  24  28
ATOM     26 CL   UNL     1      40.440 -26.518 -13.000  0.00  0.00    -0.082 Cl
ATOM     27  N   UNL     1      35.560 -23.524 -14.163  0.00  0.00    -0.309 N 
ATOM     28  C   UNL     1      34.697 -24.048 -13.240  0.00  0.00    +0.102 C 
ATOM     29  C   UNL     1      35.379 -24.995 -12.511  0.00  0.00    +0.020 C 
ATOM     30  C   UNL     1      36.797 -24.116 -14.047  0.00  0.00    +0.048 C 
ATOM     31  C   UNL     1      36.710 -25.049 -13.010  0.00  0.00    +0.016 C 
ATOM     32  C   UNL     1      37.975 -23.900 -14.771  0.00  0.00    +0.015 C 
ATOM     33  C   UNL     1      37.853 -25.804 -12.680  0.00  0.00    +0.013 C 
ATOM     34  C   UNL     1      39.038 -25.598 -13.396  0.00  0.00    +0.058 C 
ATOM     35  C   UNL     1      39.096 -24.661 -14.426  0.00  0.00    +0.013 C 
ATOM     36  H   UNL     1      35.330 -22.824 -14.816  0.00  0.00    +0.152 HD
ENDBRANCH  24  28
ENDBRANCH   2  23
TORSDOF 4
ENDMDL
MODEL 3
REMARK VINA RESULT:      -9.7     13.613     18.366
REMARK  Name = 24752833
REMARK  4 active torsions:
REMARK  status: ('A' for Active; 'I' for Inactive)
REMARK    1  A    between atoms: C_1  and  N_8
REMARK    2  A    between atoms: C_2  and  N_23
REMARK    3  A    between atoms: C_9  and  C_14
REMARK    4  A    between atoms: C_24  and  C_28
REMARK                            x       y       z     vdW  Elec       q    Type
REMARK                         _______ _______ _______ _____ _____    ______ ____
ROOT
ATOM      1  C   UNL     1      31.049  -6.308 -22.027  0.00  0.00    +0.090 C 
ATOM      2  C   UNL     1      31.756  -7.298 -21.085  0.00  0.00    +0.090 C 
ATOM      3  C   UNL     1      30.841  -4.948 -21.352  0.00  0.00    +0.021 C 
ATOM      4  C   UNL     1      31.039  -7.404 -19.736  0.00  0.00    +0.021 C 
ATOM      5  C   UNL     1      30.122  -5.075 -20.014  0.00  0.00    +0.002 C 
ATOM      6  C   UNL     1      30.848  -6.039 -19.082  0.00  0.00    +0.002 C 
ENDROOT
BRANCH   1   8
ATOM      7  O   UNL     1      29.973  -6.268 -24.689  0.00  0.00    -0.267 OA
ATOM      8  N   UNL     1      31.792  -6.137 -23.257  0.00  0.00    -0.298 N 
ATOM      9  C   UNL     1      31.178  -6.132 -24.499  0.00  0.00    +0.282 C 
ATOM     10  H   UNL     1      32.768  -6.019 -23.209  0.00  0.00    +0.150 HD
BRANCH   9  14
ATOM     11  S   UNL     1      33.759  -5.655 -25.433  0.00  0.00    -0.074 S 
ATOM     12  N   UNL     1      34.996  -5.058 -29.254  0.00  0.00    +0.387 N 
ATOM     13  N   UNL     1      31.667  -6.057 -26.914  0.00  0.00    -0.399 NA
ATOM     14  C   UNL     1      32.083  -5.971 -25.667  0.00  0.00    +0.210 C 
ATOM     15  C   UNL     1      32.748  -5.863 -27.745  0.00  0.00    +0.093 C 
ATOM     16  C   UNL     1      33.952  -5.626 -27.120  0.00  0.00    +0.082 C 
ATOM     17  C   UNL     1      32.629  -5.876 -29.227  0.00  0.00    +0.032 C 
ATOM     18  C   UNL     1      35.245  -5.413 -27.836  0.00  0.00    -0.059 C 
ATOM     19  C   UNL     1      34.024  -5.978 -29.888  0.00  0.00    -0.070 C 
ATOM     20  C   UNL     1      36.253  -5.041 -30.000  0.00  0.00    -0.101 C 
ATOM     21  H   UNL     1      34.586  -4.123 -29.275  0.00  0.00    -0.080 HD
ENDBRANCH   9  14
ENDBRANCH   1   8
BRANCH   2  23
ATOM     22  O   UNL     1      33.803  -8.201 -22.885  0.00  0.00    -0.269 OA
ATOM     23  N   UNL     1      31.859  -8.608 -21.690  0.00  0.00    -0.300 N 
ATOM     24  C   UNL     1      32.888  -8.950 -22.550  0.00  0.00    +0.259 C 
ATOM     25  H   UNL     1      31.171  -9.281 -21.482  0.00  0.00    +0.150 HD
BRANCH  24  28
ATOM     26 CL   UNL     1      32.642 -16.441 -24.413  0.00  0.00    -0.082 Cl
ATOM     27  N   UNL     1      32.775 -10.601 -24.447  0.00  0.00    -0.309 N 
ATOM     28  C   UNL     1      32.836 -10.326 -23.108  0.00  0.00    +0.102 C 
ATOM     29  C   UNL     1      32.836 -11.523 -22.429  0.00  0.00    +0.020 C 
ATOM     30  C   UNL     1      32.735 -11.962 -24.651  0.00  0.00    +0.048 C 
ATOM     31  C   UNL     1      32.773 -12.568 -23.393  0.00  0.00    +0.016 C 
ATOM     32  C   UNL     1      32.669 -12.696 -25.841  0.00  0.00    +0.015 C 
ATOM     33  C   UNL     1      32.744 -13.974 -23.316  0.00  0.00    +0.013 C 
ATOM     34  C   UNL     1      32.679 -14.722 -24.497  0.00  0.00    +0.058 C 
ATOM     35  C   UNL     1      32.642 -14.090 -25.739  0.00  0.00    +0.013 C 
ATOM     36  H   UNL     1      32.761  -9.924 -25.161  0.00  0.00    +0.152 HD
ENDBRANCH  24  28
ENDBRANCH   2  23
TORSDOF 4
ENDMDL
MODEL 4
REMARK VINA RESULT:      -9.5      3.019      8.257
REMARK  Name = 24752833
REMARK  4 active torsions:
REMARK  status: ('A' for Active; 'I' for Inactive)
REMARK    1  A    between atoms: C_1  and  N_8
REMARK    2  A    between atoms: C_2  and  N_23
REMARK    3  A    between atoms: C_9  and  C_14
REMARK    4  A    between atoms: C_24  and  C_28
REMARK                            x       y       z     vdW  Elec       q    Type
REMARK                         _______ _______ _______ _____ _____    ______ ____
ROOT
ATOM      1  C   UNL     1      36.638 -23.607 -14.482  0.00  0.00    +0.090 C 
ATOM      2  C   UNL     1      35.855 -24.932 -14.480  0.00  0.00    +0.090 C 
ATOM      3  C   UNL     1      38.141 -23.847 -14.304  0.00  0.00    +0.021 C 
ATOM      4  C   UNL     1      36.182 -25.778 -13.245  0.00  0.00    +0.021 C 
ATOM      5  C   UNL     1      38.445 -24.687 -13.067  0.00  0.00    +0.002 C 
ATOM      6  C   UNL     1      37.682 -26.007 -13.091  0.00  0.00    +0.002 C 
ENDROOT
BRANCH   1   8
ATOM      7  O   UNL     1      34.566 -21.673 -14.937  0.00  0.00    -0.267 OA
ATOM      8  N   UNL     1      36.402 -22.864 -15.701  0.00  0.00    -0.298 N 
ATOM      9  C   UNL     1      35.370 -21.947 -15.823  0.00  0.00    +0.282 C 
ATOM     10  H   UNL     1      36.996 -23.015 -16.472  0.00  0.00    +0.150 HD
BRANCH   9  14
ATOM     11  S   UNL     1      33.886 -21.605 -18.156  0.00  0.00    -0.074 S 
ATOM     12  N   UNL     1      34.897 -19.568 -21.520  0.00  0.00    +0.387 N 
ATOM     13  N   UNL     1      36.141 -20.440 -17.615  0.00  0.00    -0.399 NA
ATOM     14  C   UNL     1      35.245 -21.286 -17.147  0.00  0.00    +0.210 C 
ATOM     15  C   UNL     1      35.725 -20.012 -18.856  0.00  0.00    +0.093 C 
ATOM     16  C   UNL     1      34.537 -20.541 -19.308  0.00  0.00    +0.082 C 
ATOM     17  C   UNL     1      36.518 -19.060 -19.679  0.00  0.00    +0.032 C 
ATOM     18  C   UNL     1      33.902 -20.191 -20.613  0.00  0.00    -0.059 C 
ATOM     19  C   UNL     1      35.664 -18.499 -20.841  0.00  0.00    -0.070 C 
ATOM     20  C   UNL     1      34.237 -19.050 -22.717  0.00  0.00    -0.101 C 
ATOM     21  H   UNL     1      35.563 -20.290 -21.796  0.00  0.00    -0.080 HD
ENDBRANCH   9  14
ENDBRANCH   1   8
BRANCH   2  23
ATOM     22  O   UNL     1      34.184 -23.917 -12.377  0.00  0.00    -0.269 OA
ATOM     23  N   UNL     1      34.430 -24.693 -14.547  0.00  0.00    -0.300 N 
ATOM     24  C   UNL     1      33.709 -24.199 -13.474  0.00  0.00    +0.259 C 
ATOM     25  H   UNL     1      33.956 -24.888 -15.388  0.00  0.00    +0.150 HD
BRANCH  24  28
ATOM     26 CL   UNL     1      26.360 -22.319 -14.927  0.00  0.00    -0.082 Cl
ATOM     27  N   UNL     1      31.332 -25.030 -13.494  0.00  0.00    -0.309 N 
ATOM     28  C   UNL     1      32.249 -24.034 -13.696  0.00  0.00    +0.102 C 
ATOM     29  C   UNL     1      31.572 -22.915 -14.125  0.00  0.00    +0.020 C 
ATOM     30  C   UNL     1      30.066 -24.576 -13.785  0.00  0.00    +0.048 C 
ATOM     31  C   UNL     1      30.189 -23.243 -14.186  0.00  0.00    +0.016 C 
ATOM     32  C   UNL     1      28.833 -25.235 -13.726  0.00  0.00    +0.015 C 
ATOM     33  C   UNL     1      29.027 -22.533 -14.545  0.00  0.00    +0.013 C 
ATOM     34  C   UNL     1      27.786 -23.179 -14.489  0.00  0.00    +0.058 C 
ATOM     35  C   UNL     1      27.693 -24.510 -14.086  0.00  0.00    +0.013 C 
ATOM     36  H   UNL     1      31.547 -25.939 -13.185  0.00  0.00    +0.152 HD
ENDBRANCH  24  28
ENDBRANCH   2  23
TORSDOF 4
ENDMDL
MODEL 5
REMARK VINA RESULT:      -9.4     13.015     17.225
REMARK  Name = 24752833
REMARK  4 active torsions:
REMARK  status: ('A' for Active; 'I' for Inactive)
REMARK    1  A    between atoms: C_1  and  N_8
REMARK    2  A    between atoms: C_2  and  N_23
REMARK    3  A    between atoms: C_9  and  C_14
REMARK    4  A    between atoms: C_24  and  C_28
REMARK                            x       y       z     vdW  Elec       q    Type
REMARK                         _______ _______ _______ _____ _____    ______ ____
ROOT
ATOM      1  C   UNL     1      31.820  -7.127 -21.346  0.00  0.00    +0.090 C 
ATOM      2  C   UNL     1      31.205  -6.163 -22.376  0.00  0.00    +0.090 C 
ATOM      3  C   UNL     1      31.022  -7.129 -20.038  0.00  0.00    +0.021 C 
ATOM      4  C   UNL     1      31.014  -4.760 -21.792  0.00  0.00    +0.021 C 
ATOM      5  C   UNL     1      30.847  -5.723 -19.471  0.00  0.00    +0.002 C 
ATOM      6  C   UNL     1      30.214  -4.787 -20.494  0.00  0.00    +0.002 C 
ENDROOT
BRANCH   1   8
ATOM      7  O   UNL     1      33.904  -8.198 -23.005  0.00  0.00    -0.267 OA
ATOM      8  N   UNL     1      31.900  -8.472 -21.873  0.00  0.00    -0.298 N 
ATOM      9  C   UNL     1      32.952  -8.896 -22.669  0.00  0.00    +0.282 C 
ATOM     10  H   UNL     1      31.180  -9.110 -21.658  0.00  0.00    +0.150 HD
BRANCH   9  14
ATOM     11  S   UNL     1      32.815 -11.604 -22.029  0.00  0.00    -0.074 S 
ATOM     12  N   UNL     1      33.013 -14.804 -24.521  0.00  0.00    +0.387 N 
ATOM     13  N   UNL     1      32.847 -10.618 -24.430  0.00  0.00    -0.399 NA
ATOM     14  C   UNL     1      32.874 -10.299 -23.152  0.00  0.00    +0.210 C 
ATOM     15  C   UNL     1      32.772 -11.990 -24.532  0.00  0.00    +0.093 C 
ATOM     16  C   UNL     1      32.753 -12.682 -23.341  0.00  0.00    +0.082 C 
ATOM     17  C   UNL     1      32.744 -12.693 -25.842  0.00  0.00    +0.032 C 
ATOM     18  C   UNL     1      32.652 -14.167 -23.232  0.00  0.00    -0.059 C 
ATOM     19  C   UNL     1      32.315 -14.168 -25.662  0.00  0.00    -0.070 C 
ATOM     20  C   UNL     1      32.729 -16.237 -24.476  0.00  0.00    -0.101 C 
ATOM     21  H   UNL     1      34.015 -14.670 -24.666  0.00  0.00    -0.080 HD
ENDBRANCH   9  14
ENDBRANCH   1   8
BRANCH   2  23
ATOM     22  O   UNL     1      30.291  -6.358 -25.091  0.00  0.00    -0.269 OA
ATOM     23  N   UNL     1      32.019  -6.091 -23.570  0.00  0.00    -0.300 N 
ATOM     24  C   UNL     1      31.483  -6.196 -24.842  0.00  0.00    +0.259 C 
ATOM     25  H   UNL     1      32.991  -5.961 -23.474  0.00  0.00    +0.150 HD
BRANCH  24  28
ATOM     26 CL   UNL     1      37.305  -6.029 -29.914  0.00  0.00    -0.082 Cl
ATOM     27  N   UNL     1      32.100  -5.905 -27.265  0.00  0.00    -0.309 N 
ATOM     28  C   UNL     1      32.456  -6.127 -25.963  0.00  0.00    +0.102 C 
ATOM     29  C   UNL     1      33.824  -6.267 -25.915  0.00  0.00    +0.020 C 
ATOM     30  C   UNL     1      33.218  -5.897 -28.068  0.00  0.00    +0.048 C 
ATOM     31  C   UNL     1      34.320  -6.124 -27.241  0.00  0.00    +0.016 C 
ATOM     32  C   UNL     1      33.337  -5.710 -29.450  0.00  0.00    +0.015 C 
ATOM     33  C   UNL     1      35.605  -6.166 -27.818  0.00  0.00    +0.013 C 
ATOM     34  C   UNL     1      35.739  -5.979 -29.199  0.00  0.00    +0.058 C 
ATOM     35  C   UNL     1      34.621  -5.756 -30.000  0.00  0.00    +0.013 C 
ATOM     36  H   UNL     1      31.178  -5.769 -27.582  0.00  0.00    +0.152 HD
ENDBRANCH  24  28
ENDBRANCH   2  23
TORSDOF 4
ENDMDL
MODEL 6
REMARK VINA RESULT:      -9.3      2.036      6.193
REMARK  Name = 24752833
REMARK  4 active torsions:
REMARK  status: ('A' for Active; 'I' for Inactive)
REMARK    1  A    between atoms: C_1  and  N_8
REMARK    2  A    between atoms: C_2  and  N_23
REMARK    3  A    between atoms: C_9  and  C_14
REMARK    4  A    between atoms: C_24  and  C_28
REMARK                            x       y       z     vdW  Elec       q    Type
REMARK                         _______ _______ _______ _____ _____    ______ ____
ROOT
ATOM      1  C   UNL     1      36.023 -24.991 -14.491  0.00  0.00    +0.090 C 
ATOM      2  C   UNL     1      36.814 -23.673 -14.425  0.00  0.00    +0.090 C 
ATOM      3  C   UNL     1      36.299 -25.869 -13.266  0.00  0.00    +0.021 C 
ATOM      4  C   UNL     1      38.308 -23.923 -14.195  0.00  0.00    +0.021 C 
ATOM      5  C   UNL     1      37.791 -26.109 -13.057  0.00  0.00    +0.002 C 
ATOM      6  C   UNL     1      38.558 -24.795 -12.969  0.00  0.00    +0.002 C 
ENDROOT
BRANCH   1   8
ATOM      7  O   UNL     1      34.312 -23.874 -12.474  0.00  0.00    -0.267 OA
ATOM      8  N   UNL     1      34.602 -24.741 -14.604  0.00  0.00    -0.298 N 
ATOM      9  C   UNL     1      33.860 -24.195 -13.569  0.00  0.00    +0.282 C 
ATOM     10  H   UNL     1      34.146 -24.966 -15.448  0.00  0.00    +0.150 HD
BRANCH   9  14
ATOM     11  S   UNL     1      31.861 -22.830 -14.949  0.00  0.00    -0.074 S 
ATOM     12  N   UNL     1      27.835 -23.103 -14.491  0.00  0.00    +0.387 N 
ATOM     13  N   UNL     1      31.480 -24.754 -13.248  0.00  0.00    -0.399 NA
ATOM     14  C   UNL     1      32.408 -24.024 -13.834  0.00  0.00    +0.210 C 
ATOM     15  C   UNL     1      30.250 -24.345 -13.713  0.00  0.00    +0.093 C 
ATOM     16  C   UNL     1      30.265 -23.315 -14.628  0.00  0.00    +0.082 C 
ATOM     17  C   UNL     1      28.976 -24.949 -13.240  0.00  0.00    +0.032 C 
ATOM     18  C   UNL     1      29.045 -22.741 -15.269  0.00  0.00    -0.059 C 
ATOM     19  C   UNL     1      27.804 -24.547 -14.166  0.00  0.00    -0.070 C 
ATOM     20  C   UNL     1      26.629 -22.710 -15.218  0.00  0.00    -0.101 C 
ATOM     21  H   UNL     1      27.869 -22.594 -13.607  0.00  0.00    -0.080 HD
ENDBRANCH   9  14
ENDBRANCH   1   8
BRANCH   2  23
ATOM     22  O   UNL     1      34.944 -21.529 -14.810  0.00  0.00    -0.269 OA
ATOM     23  N   UNL     1      36.628 -22.895 -15.630  0.00  0.00    -0.300 N 
ATOM     24  C   UNL     1      35.695 -21.876 -15.719  0.00  0.00    +0.259 C 
ATOM     25  H   UNL     1      37.186 -23.097 -16.416  0.00  0.00    +0.150 HD
BRANCH  24  28
ATOM     26 CL   UNL     1      34.425 -18.990 -22.769  0.00  0.00    -0.082 Cl
ATOM     27  N   UNL     1      36.424 -20.154 -17.405  0.00  0.00    -0.309 N 
ATOM     28  C   UNL     1      35.609 -21.189 -17.034  0.00  0.00    +0.102 C 
ATOM     29  C   UNL     1      34.744 -21.442 -18.073  0.00  0.00    +0.020 C 
ATOM     30  C   UNL     1      36.102 -19.728 -18.674  0.00  0.00    +0.048 C 
ATOM     31  C   UNL     1      35.044 -20.525 -19.119  0.00  0.00    +0.016 C 
ATOM     32  C   UNL     1      36.659 -18.709 -19.453  0.00  0.00    +0.015 C 
ATOM     33  C   UNL     1      34.516 -20.295 -20.405  0.00  0.00    +0.013 C 
ATOM     34  C   UNL     1      35.064 -19.279 -21.197  0.00  0.00    +0.058 C 
ATOM     35  C   UNL     1      36.119 -18.499 -20.726  0.00  0.00    +0.013 C 
ATOM     36  H   UNL     1      37.136 -19.770 -16.846  0.00  0.00    +0.152 HD
ENDBRANCH  24  28
ENDBRANCH   2  23
TORSDOF 4
ENDMDL
