MODEL 1
REMARK VINA RESULT:     -12.1      0.000      0.000
REMARK  Name = 25151352
REMARK  5 active torsions:
REMARK  status: ('A' for Active; 'I' for Inactive)
REMARK    1  A    between atoms: N_1  and  C_21
REMARK    2  A    between atoms: C_3  and  C_9
REMARK    3  A    between atoms: C_9  and  C_13
REMARK    4  A    between atoms: C_21  and  C_23
REMARK    5  A    between atoms: C_27  and  C_31
REMARK                            x       y       z     vdW  Elec       q    Type
REMARK                         _______ _______ _______ _____ _____    ______ ____
ROOT
ATOM      1  N   UNL     1      32.612 -21.913 -17.908  0.00  0.00    -0.314 N 
ATOM      2  N   UNL     1      32.468 -20.276 -19.634  0.00  0.00    -0.230 NA
ATOM      3  C   UNL     1      34.494 -19.287 -20.506  0.00  0.00    +0.002 C 
ATOM      4  C   UNL     1      35.255 -20.061 -19.636  0.00  0.00    +0.000 C 
ATOM      5  C   UNL     1      33.117 -19.430 -20.466  0.00  0.00    +0.096 C 
ATOM      6  C   UNL     1      33.240 -21.010 -18.802  0.00  0.00    +0.129 C 
ATOM      7  C   UNL     1      34.624 -20.941 -18.764  0.00  0.00    +0.034 C 
ATOM      8  H   UNL     1      31.630 -21.979 -17.917  0.00  0.00    +0.149 HD
ENDROOT
BRANCH   3   9
ATOM      9  C   UNL     1      35.156 -18.316 -21.472  0.00  0.00    +0.056 C 
BRANCH   9  13
ATOM     10 CL   UNL     1      33.595 -12.667 -22.436  0.00  0.00    -0.081 Cl
ATOM     11  N   UNL     1      33.073 -18.043 -24.466  0.00  0.00    -0.297 N 
ATOM     12  N   UNL     1      32.497 -15.724 -24.768  0.00  0.00    -0.228 NA
ATOM     13  C   UNL     1      34.312 -17.928 -22.622  0.00  0.00    -0.000 C 
ATOM     14  C   UNL     1      33.878 -16.617 -22.949  0.00  0.00    +0.030 C 
ATOM     15  C   UNL     1      33.109 -16.722 -24.104  0.00  0.00    +0.132 C 
ATOM     16  C   UNL     1      33.801 -18.785 -23.573  0.00  0.00    +0.059 C 
ATOM     17  C   UNL     1      34.047 -15.335 -22.399  0.00  0.00    +0.015 C 
ATOM     18  C   UNL     1      33.434 -14.264 -23.047  0.00  0.00    +0.077 C 
ATOM     19  C   UNL     1      32.692 -14.513 -24.194  0.00  0.00    +0.112 C 
ATOM     20  H   UNL     1      32.599 -18.404 -25.249  0.00  0.00    +0.154 HD
ENDBRANCH   9  13
ENDBRANCH   3   9
BRANCH   1  21
ATOM     21  C   UNL     1      33.345 -22.729 -16.996  0.00  0.00    +0.117 C 
BRANCH  21  23
ATOM     22  N   UNL     1      30.263 -23.474 -14.933  0.00  0.00    -0.240 NA
ATOM     23  C   UNL     1      32.479 -23.130 -15.835  0.00  0.00    +0.017 C 
ATOM     24  C   UNL     1      33.040 -23.517 -14.622  0.00  0.00    +0.000 C 
ATOM     25  C   UNL     1      31.098 -23.126 -15.937  0.00  0.00    +0.096 C 
ATOM     26  C   UNL     1      32.213 -23.883 -13.565  0.00  0.00    +0.023 C 
ATOM     27  C   UNL     1      30.844 -23.845 -13.770  0.00  0.00    +0.153 C 
BRANCH  27  31
ATOM     28  F   UNL     1      29.741 -23.242 -11.735  0.00  0.00    -0.164 F 
ATOM     29  F   UNL     1      28.672 -24.570 -13.076  0.00  0.00    -0.164 F 
ATOM     30  F   UNL     1      30.382 -25.308 -11.953  0.00  0.00    -0.164 F 
ATOM     31  C   UNL     1      29.927 -24.231 -12.658  0.00  0.00    +0.435 C 
ENDBRANCH  27  31
ENDBRANCH  21  23
ENDBRANCH   1  21
TORSDOF 5
ENDMDL
MODEL 2
REMARK VINA RESULT:     -12.0      1.957      2.502
REMARK  Name = 25151352
REMARK  5 active torsions:
REMARK  status: ('A' for Active; 'I' for Inactive)
REMARK    1  A    between atoms: N_1  and  C_21
REMARK    2  A    between atoms: C_3  and  C_9
REMARK    3  A    between atoms: C_9  and  C_13
REMARK    4  A    between atoms: C_21  and  C_23
REMARK    5  A    between atoms: C_27  and  C_31
REMARK                            x       y       z     vdW  Elec       q    Type
REMARK                         _______ _______ _______ _____ _____    ______ ____
ROOT
ATOM      1  N   UNL     1      34.164 -21.648 -18.416  0.00  0.00    -0.314 N 
ATOM      2  N   UNL     1      35.550 -19.977 -19.399  0.00  0.00    -0.230 NA
ATOM      3  C   UNL     1      34.609 -18.463 -21.032  0.00  0.00    +0.002 C 
ATOM      4  C   UNL     1      33.372 -19.086 -20.908  0.00  0.00    +0.000 C 
ATOM      5  C   UNL     1      35.657 -18.942 -20.262  0.00  0.00    +0.096 C 
ATOM      6  C   UNL     1      34.332 -20.558 -19.306  0.00  0.00    +0.129 C 
ATOM      7  C   UNL     1      33.223 -20.154 -20.031  0.00  0.00    +0.034 C 
ATOM      8  H   UNL     1      34.938 -21.953 -17.891  0.00  0.00    +0.149 HD
ENDROOT
BRANCH   3   9
ATOM      9  C   UNL     1      34.804 -17.290 -21.982  0.00  0.00    +0.056 C 
BRANCH   9  13
ATOM     10 CL   UNL     1      32.592 -13.403 -25.890  0.00  0.00    -0.081 Cl
ATOM     11  N   UNL     1      33.337 -14.418 -20.258  0.00  0.00    -0.297 N 
ATOM     12  N   UNL     1      32.473 -12.908 -21.924  0.00  0.00    -0.228 NA
ATOM     13  C   UNL     1      34.152 -16.038 -21.547  0.00  0.00    -0.000 C 
ATOM     14  C   UNL     1      33.591 -15.040 -22.387  0.00  0.00    +0.030 C 
ATOM     15  C   UNL     1      33.091 -14.045 -21.553  0.00  0.00    +0.132 C 
ATOM     16  C   UNL     1      33.982 -15.627 -20.242  0.00  0.00    +0.059 C 
ATOM     17  C   UNL     1      33.444 -14.858 -23.772  0.00  0.00    +0.015 C 
ATOM     18  C   UNL     1      32.810 -13.697 -24.211  0.00  0.00    +0.077 C 
ATOM     19  C   UNL     1      32.359 -12.784 -23.267  0.00  0.00    +0.112 C 
ATOM     20  H   UNL     1      33.089 -13.897 -19.461  0.00  0.00    +0.154 HD
ENDBRANCH   9  13
ENDBRANCH   3   9
BRANCH   1  21
ATOM     21  C   UNL     1      32.917 -22.321 -18.252  0.00  0.00    +0.117 C 
BRANCH  21  23
ATOM     22  N   UNL     1      31.129 -23.111 -15.012  0.00  0.00    -0.240 NA
ATOM     23  C   UNL     1      32.687 -22.658 -16.804  0.00  0.00    +0.017 C 
ATOM     24  C   UNL     1      33.754 -22.826 -15.929  0.00  0.00    +0.000 C 
ATOM     25  C   UNL     1      31.405 -22.810 -16.301  0.00  0.00    +0.096 C 
ATOM     26  C   UNL     1      33.510 -23.136 -14.595  0.00  0.00    +0.023 C 
ATOM     27  C   UNL     1      32.191 -23.267 -14.191  0.00  0.00    +0.153 C 
BRANCH  27  31
ATOM     28  F   UNL     1      30.967 -22.775 -12.196  0.00  0.00    -0.164 F 
ATOM     29  F   UNL     1      31.403 -24.863 -12.592  0.00  0.00    -0.164 F 
ATOM     30  F   UNL     1      32.996 -23.521 -11.967  0.00  0.00    -0.164 F 
ATOM     31  C   UNL     1      31.893 -23.600 -12.767  0.00  0.00    +0.435 C 
ENDBRANCH  27  31
ENDBRANCH  21  23
ENDBRANCH   1  21
TORSDOF 5
ENDMDL
MODEL 3
REMARK VINA RESULT:     -11.8      7.847     12.592
REMARK  Name = 25151352
REMARK  5 active torsions:
REMARK  status: ('A' for Active; 'I' for Inactive)
REMARK    1  A    between atoms: N_1  and  C_21
REMARK    2  A    between atoms: C_3  and  C_9
REMARK    3  A    between atoms: C_9  and  C_13
REMARK    4  A    between atoms: C_21  and  C_23
REMARK    5  A    between atoms: C_27  and  C_31
REMARK                            x       y       z     vdW  Elec       q    Type
REMARK                         _______ _______ _______ _____ _____    ______ ____
ROOT
ATOM      1  N   UNL     1      33.521 -12.489 -22.715  0.00  0.00    -0.314 N 
ATOM      2  N   UNL     1      33.806 -14.485 -21.445  0.00  0.00    -0.230 NA
ATOM      3  C   UNL     1      33.750 -16.625 -22.567  0.00  0.00    +0.002 C 
ATOM      4  C   UNL     1      33.542 -15.989 -23.786  0.00  0.00    +0.000 C 
ATOM      5  C   UNL     1      33.876 -15.835 -21.436  0.00  0.00    +0.096 C 
ATOM      6  C   UNL     1      33.601 -13.902 -22.647  0.00  0.00    +0.129 C 
ATOM      7  C   UNL     1      33.464 -14.602 -23.835  0.00  0.00    +0.034 C 
ATOM      8  H   UNL     1      33.615 -11.971 -21.884  0.00  0.00    +0.149 HD
ENDROOT
BRANCH   3   9
ATOM      9  C   UNL     1      33.842 -18.142 -22.480  0.00  0.00    +0.056 C 
BRANCH   9  13
ATOM     10 CL   UNL     1      32.168 -21.905 -18.201  0.00  0.00    -0.081 Cl
ATOM     11  N   UNL     1      36.667 -18.974 -20.313  0.00  0.00    -0.297 N 
ATOM     12  N   UNL     1      35.887 -20.499 -18.619  0.00  0.00    -0.228 NA
ATOM     13  C   UNL     1      34.795 -18.640 -21.467  0.00  0.00    -0.000 C 
ATOM     14  C   UNL     1      34.508 -19.536 -20.404  0.00  0.00    +0.030 C 
ATOM     15  C   UNL     1      35.696 -19.724 -19.704  0.00  0.00    +0.132 C 
ATOM     16  C   UNL     1      36.131 -18.310 -21.386  0.00  0.00    +0.059 C 
ATOM     17  C   UNL     1      33.371 -20.220 -19.944  0.00  0.00    +0.015 C 
ATOM     18  C   UNL     1      33.513 -21.036 -18.823  0.00  0.00    +0.077 C 
ATOM     19  C   UNL     1      34.759 -21.132 -18.220  0.00  0.00    +0.112 C 
ATOM     20  H   UNL     1      37.607 -18.920 -20.025  0.00  0.00    +0.154 HD
ENDBRANCH   9  13
ENDBRANCH   3   9
BRANCH   1  21
ATOM     21  C   UNL     1      33.307 -11.788 -23.938  0.00  0.00    +0.117 C 
BRANCH  21  23
ATOM     22  N   UNL     1      32.176  -8.432 -22.607  0.00  0.00    -0.240 NA
ATOM     23  C   UNL     1      33.250 -10.306 -23.693  0.00  0.00    +0.017 C 
ATOM     24  C   UNL     1      34.167  -9.445 -24.288  0.00  0.00    +0.000 C 
ATOM     25  C   UNL     1      32.284  -9.754 -22.869  0.00  0.00    +0.096 C 
ATOM     26  C   UNL     1      34.089  -8.078 -24.043  0.00  0.00    +0.023 C 
ATOM     27  C   UNL     1      33.085  -7.626 -23.202  0.00  0.00    +0.153 C 
BRANCH  27  31
ATOM     28  F   UNL     1      32.774  -5.880 -21.596  0.00  0.00    -0.164 F 
ATOM     29  F   UNL     1      34.080  -5.451 -23.275  0.00  0.00    -0.164 F 
ATOM     30  F   UNL     1      31.930  -5.581 -23.578  0.00  0.00    -0.164 F 
ATOM     31  C   UNL     1      32.972  -6.166 -22.917  0.00  0.00    +0.435 C 
ENDBRANCH  27  31
ENDBRANCH  21  23
ENDBRANCH   1  21
TORSDOF 5
ENDMDL
MODEL 4
REMARK VINA RESULT:     -11.5      6.478     11.150
REMARK  Name = 25151352
REMARK  5 active torsions:
REMARK  status: ('A' for Active; 'I' for Inactive)
REMARK    1  A    between atoms: N_1  and  C_21
REMARK    2  A    between atoms: C_3  and  C_9
REMARK    3  A    between atoms: C_9  and  C_13
REMARK    4  A    between atoms: C_21  and  C_23
REMARK    5  A    between atoms: C_27  and  C_31
REMARK                            x       y       z     vdW  Elec       q    Type
REMARK                         _______ _______ _______ _____ _____    ______ ____
ROOT
ATOM      1  N   UNL     1      34.906 -17.245 -22.498  0.00  0.00    -0.314 N 
ATOM      2  N   UNL     1      36.112 -18.421 -20.812  0.00  0.00    -0.230 NA
ATOM      3  C   UNL     1      35.011 -20.178 -19.569  0.00  0.00    +0.002 C 
ATOM      4  C   UNL     1      33.842 -19.966 -20.292  0.00  0.00    +0.000 C 
ATOM      5  C   UNL     1      36.109 -19.386 -19.865  0.00  0.00    +0.096 C 
ATOM      6  C   UNL     1      34.958 -18.244 -21.493  0.00  0.00    +0.129 C 
ATOM      7  C   UNL     1      33.806 -18.982 -21.273  0.00  0.00    +0.034 C 
ATOM      8  H   UNL     1      35.711 -16.708 -22.671  0.00  0.00    +0.149 HD
ENDROOT
BRANCH   3   9
ATOM      9  C   UNL     1      35.081 -21.247 -18.489  0.00  0.00    +0.056 C 
BRANCH   9  13
ATOM     10 CL   UNL     1      34.494 -23.566 -13.053  0.00  0.00    -0.081 Cl
ATOM     11  N   UNL     1      31.587 -22.087 -17.813  0.00  0.00    -0.297 N 
ATOM     12  N   UNL     1      31.457 -23.015 -15.594  0.00  0.00    -0.228 NA
ATOM     13  C   UNL     1      33.767 -21.673 -17.964  0.00  0.00    -0.000 C 
ATOM     14  C   UNL     1      33.509 -22.238 -16.687  0.00  0.00    +0.030 C 
ATOM     15  C   UNL     1      32.141 -22.483 -16.624  0.00  0.00    +0.132 C 
ATOM     16  C   UNL     1      32.566 -21.592 -18.635  0.00  0.00    +0.059 C 
ATOM     17  C   UNL     1      34.279 -22.574 -15.562  0.00  0.00    +0.015 C 
ATOM     18  C   UNL     1      33.621 -23.128 -14.466  0.00  0.00    +0.077 C 
ATOM     19  C   UNL     1      32.248 -23.321 -14.539  0.00  0.00    +0.112 C 
ATOM     20  H   UNL     1      30.631 -22.146 -18.041  0.00  0.00    +0.154 HD
ENDBRANCH   9  13
ENDBRANCH   3   9
BRANCH   1  21
ATOM     21  C   UNL     1      33.732 -16.988 -23.266  0.00  0.00    +0.117 C 
BRANCH  21  23
ATOM     22  N   UNL     1      33.824 -13.268 -22.580  0.00  0.00    -0.240 NA
ATOM     23  C   UNL     1      33.531 -15.508 -23.441  0.00  0.00    +0.017 C 
ATOM     24  C   UNL     1      32.895 -14.999 -24.569  0.00  0.00    +0.000 C 
ATOM     25  C   UNL     1      33.973 -14.609 -22.485  0.00  0.00    +0.096 C 
ATOM     26  C   UNL     1      32.722 -13.626 -24.702  0.00  0.00    +0.023 C 
ATOM     27  C   UNL     1      33.201 -12.811 -23.689  0.00  0.00    +0.153 C 
BRANCH  27  31
ATOM     28  F   UNL     1      32.309 -10.786 -22.779  0.00  0.00    -0.164 F 
ATOM     29  F   UNL     1      34.215 -10.647 -23.806  0.00  0.00    -0.164 F 
ATOM     30  F   UNL     1      32.390 -10.961 -24.945  0.00  0.00    -0.164 F 
ATOM     31  C   UNL     1      33.034 -11.332 -23.800  0.00  0.00    +0.435 C 
ENDBRANCH  27  31
ENDBRANCH  21  23
ENDBRANCH   1  21
TORSDOF 5
ENDMDL
MODEL 5
REMARK VINA RESULT:     -11.5      7.555     11.780
REMARK  Name = 25151352
REMARK  5 active torsions:
REMARK  status: ('A' for Active; 'I' for Inactive)
REMARK    1  A    between atoms: N_1  and  C_21
REMARK    2  A    between atoms: C_3  and  C_9
REMARK    3  A    between atoms: C_9  and  C_13
REMARK    4  A    between atoms: C_21  and  C_23
REMARK    5  A    between atoms: C_27  and  C_31
REMARK                            x       y       z     vdW  Elec       q    Type
REMARK                         _______ _______ _______ _____ _____    ______ ____
ROOT
ATOM      1  N   UNL     1      33.302 -12.155 -24.643  0.00  0.00    -0.314 N 
ATOM      2  N   UNL     1      34.545 -10.124 -24.731  0.00  0.00    -0.230 NA
ATOM      3  C   UNL     1      33.953  -8.303 -23.256  0.00  0.00    +0.002 C 
ATOM      4  C   UNL     1      32.926  -9.067 -22.713  0.00  0.00    +0.000 C 
ATOM      5  C   UNL     1      34.728  -8.872 -24.253  0.00  0.00    +0.096 C 
ATOM      6  C   UNL     1      33.537 -10.836 -24.180  0.00  0.00    +0.129 C 
ATOM      7  C   UNL     1      32.707 -10.359 -23.178  0.00  0.00    +0.034 C 
ATOM      8  H   UNL     1      33.878 -12.516 -25.354  0.00  0.00    +0.149 HD
ENDROOT
BRANCH   3   9
ATOM      9  C   UNL     1      34.219  -6.887 -22.767  0.00  0.00    +0.056 C 
BRANCH   9  13
ATOM     10 CL   UNL     1      30.473  -6.111 -18.223  0.00  0.00    -0.081 Cl
ATOM     11  N   UNL     1      31.574  -4.525 -23.661  0.00  0.00    -0.297 N 
ATOM     12  N   UNL     1      30.115  -4.281 -21.760  0.00  0.00    -0.228 NA
ATOM     13  C   UNL     1      33.057  -5.979 -22.864  0.00  0.00    -0.000 C 
ATOM     14  C   UNL     1      32.100  -5.718 -21.848  0.00  0.00    +0.030 C 
ATOM     15  C   UNL     1      31.190  -4.807 -22.377  0.00  0.00    +0.132 C 
ATOM     16  C   UNL     1      32.708  -5.232 -23.968  0.00  0.00    +0.059 C 
ATOM     17  C   UNL     1      31.892  -6.147 -20.527  0.00  0.00    +0.015 C 
ATOM     18  C   UNL     1      30.793  -5.633 -19.842  0.00  0.00    +0.077 C 
ATOM     19  C   UNL     1      29.963  -4.730 -20.492  0.00  0.00    +0.112 C 
ATOM     20  H   UNL     1      31.108  -3.909 -24.270  0.00  0.00    +0.154 HD
ENDBRANCH   9  13
ENDBRANCH   3   9
BRANCH   1  21
ATOM     21  C   UNL     1      32.262 -12.980 -24.120  0.00  0.00    +0.117 C 
BRANCH  21  23
ATOM     22  N   UNL     1      33.133 -16.661 -24.197  0.00  0.00    -0.240 NA
ATOM     23  C   UNL     1      32.810 -14.317 -23.703  0.00  0.00    +0.017 C 
ATOM     24  C   UNL     1      33.478 -14.472 -22.492  0.00  0.00    +0.000 C 
ATOM     25  C   UNL     1      32.665 -15.432 -24.511  0.00  0.00    +0.096 C 
ATOM     26  C   UNL     1      33.973 -15.721 -22.134  0.00  0.00    +0.023 C 
ATOM     27  C   UNL     1      33.776 -16.774 -23.013  0.00  0.00    +0.153 C 
BRANCH  27  31
ATOM     28  F   UNL     1      34.054 -19.072 -23.616  0.00  0.00    -0.164 F 
ATOM     29  F   UNL     1      35.645 -18.161 -22.458  0.00  0.00    -0.164 F 
ATOM     30  F   UNL     1      33.741 -18.619 -21.513  0.00  0.00    -0.164 F 
ATOM     31  C   UNL     1      34.295 -18.128 -22.660  0.00  0.00    +0.435 C 
ENDBRANCH  27  31
ENDBRANCH  21  23
ENDBRANCH   1  21
TORSDOF 5
ENDMDL
MODEL 6
REMARK VINA RESULT:     -11.5      2.497      3.137
REMARK  Name = 25151352
REMARK  5 active torsions:
REMARK  status: ('A' for Active; 'I' for Inactive)
REMARK    1  A    between atoms: N_1  and  C_21
REMARK    2  A    between atoms: C_3  and  C_9
REMARK    3  A    between atoms: C_9  and  C_13
REMARK    4  A    between atoms: C_21  and  C_23
REMARK    5  A    between atoms: C_27  and  C_31
REMARK                            x       y       z     vdW  Elec       q    Type
REMARK                         _______ _______ _______ _____ _____    ______ ____
ROOT
ATOM      1  N   UNL     1      34.873 -21.418 -18.132  0.00  0.00    -0.314 N 
ATOM      2  N   UNL     1      35.894 -19.782 -19.533  0.00  0.00    -0.230 NA
ATOM      3  C   UNL     1      34.537 -18.563 -21.119  0.00  0.00    +0.002 C 
ATOM      4  C   UNL     1      33.409 -19.259 -20.700  0.00  0.00    +0.000 C 
ATOM      5  C   UNL     1      35.746 -18.858 -20.509  0.00  0.00    +0.096 C 
ATOM      6  C   UNL     1      34.775 -20.439 -19.153  0.00  0.00    +0.129 C 
ATOM      7  C   UNL     1      33.521 -20.217 -19.699  0.00  0.00    +0.034 C 
ATOM      8  H   UNL     1      35.754 -21.593 -17.729  0.00  0.00    +0.149 HD
ENDROOT
BRANCH   3   9
ATOM      9  C   UNL     1      34.446 -17.508 -22.212  0.00  0.00    +0.056 C 
BRANCH   9  13
ATOM     10 CL   UNL     1      32.490 -13.335 -25.958  0.00  0.00    -0.081 Cl
ATOM     11  N   UNL     1      33.583 -14.449 -20.403  0.00  0.00    -0.297 N 
ATOM     12  N   UNL     1      32.804 -12.827 -22.005  0.00  0.00    -0.228 NA
ATOM     13  C   UNL     1      34.029 -16.172 -21.738  0.00  0.00    -0.000 C 
ATOM     14  C   UNL     1      33.548 -15.102 -22.538  0.00  0.00    +0.030 C 
ATOM     15  C   UNL     1      33.279 -14.044 -21.676  0.00  0.00    +0.132 C 
ATOM     16  C   UNL     1      34.040 -15.741 -20.428  0.00  0.00    +0.059 C 
ATOM     17  C   UNL     1      33.305 -14.900 -23.906  0.00  0.00    +0.015 C 
ATOM     18  C   UNL     1      32.812 -13.658 -24.302  0.00  0.00    +0.077 C 
ATOM     19  C   UNL     1      32.589 -12.688 -23.334  0.00  0.00    +0.112 C 
ATOM     20  H   UNL     1      33.487 -13.897 -19.594  0.00  0.00    +0.154 HD
ENDBRANCH   9  13
ENDBRANCH   3   9
BRANCH   1  21
ATOM     21  C   UNL     1      33.747 -22.159 -17.667  0.00  0.00    +0.117 C 
BRANCH  21  23
ATOM     22  N   UNL     1      33.078 -23.665 -14.261  0.00  0.00    -0.240 NA
ATOM     23  C   UNL     1      33.957 -22.597 -16.244  0.00  0.00    +0.017 C 
ATOM     24  C   UNL     1      35.163 -22.362 -15.591  0.00  0.00    +0.000 C 
ATOM     25  C   UNL     1      32.955 -23.246 -15.540  0.00  0.00    +0.096 C 
ATOM     26  C   UNL     1      35.326 -22.778 -14.274  0.00  0.00    +0.023 C 
ATOM     27  C   UNL     1      34.264 -23.419 -13.660  0.00  0.00    +0.153 C 
BRANCH  27  31
ATOM     28  F   UNL     1      34.767 -22.886 -11.382  0.00  0.00    -0.164 F 
ATOM     29  F   UNL     1      33.258 -24.406 -11.726  0.00  0.00    -0.164 F 
ATOM     30  F   UNL     1      35.352 -24.852 -12.105  0.00  0.00    -0.164 F 
ATOM     31  C   UNL     1      34.405 -23.879 -12.247  0.00  0.00    +0.435 C 
ENDBRANCH  27  31
ENDBRANCH  21  23
ENDBRANCH   1  21
TORSDOF 5
ENDMDL
MODEL 7
REMARK VINA RESULT:     -11.4      3.258      5.552
REMARK  Name = 25151352
REMARK  5 active torsions:
REMARK  status: ('A' for Active; 'I' for Inactive)
REMARK    1  A    between atoms: N_1  and  C_21
REMARK    2  A    between atoms: C_3  and  C_9
REMARK    3  A    between atoms: C_9  and  C_13
REMARK    4  A    between atoms: C_21  and  C_23
REMARK    5  A    between atoms: C_27  and  C_31
REMARK                            x       y       z     vdW  Elec       q    Type
REMARK                         _______ _______ _______ _____ _____    ______ ____
ROOT
ATOM      1  N   UNL     1      34.291 -19.020 -21.991  0.00  0.00    -0.314 N 
ATOM      2  N   UNL     1      33.249 -17.654 -23.643  0.00  0.00    -0.230 NA
ATOM      3  C   UNL     1      33.477 -15.251 -23.515  0.00  0.00    +0.002 C 
ATOM      4  C   UNL     1      34.251 -15.378 -22.367  0.00  0.00    +0.000 C 
ATOM      5  C   UNL     1      33.004 -16.409 -24.111  0.00  0.00    +0.096 C 
ATOM      6  C   UNL     1      34.003 -17.738 -22.525  0.00  0.00    +0.129 C 
ATOM      7  C   UNL     1      34.523 -16.642 -21.856  0.00  0.00    +0.034 C 
ATOM      8  H   UNL     1      33.931 -19.813 -22.450  0.00  0.00    +0.149 HD
ENDROOT
BRANCH   3   9
ATOM      9  C   UNL     1      33.163 -13.882 -24.100  0.00  0.00    +0.056 C 
BRANCH   9  13
ATOM     10 CL   UNL     1      33.896  -8.017 -24.691  0.00  0.00    -0.081 Cl
ATOM     11  N   UNL     1      31.476 -12.089 -21.396  0.00  0.00    -0.297 N 
ATOM     12  N   UNL     1      31.832  -9.730 -21.726  0.00  0.00    -0.228 NA
ATOM     13  C   UNL     1      32.580 -12.925 -23.137  0.00  0.00    -0.000 C 
ATOM     14  C   UNL     1      32.690 -11.510 -23.178  0.00  0.00    +0.030 C 
ATOM     15  C   UNL     1      31.990 -11.020 -22.079  0.00  0.00    +0.132 C 
ATOM     16  C   UNL     1      31.828 -13.253 -22.030  0.00  0.00    +0.059 C 
ATOM     17  C   UNL     1      33.305 -10.573 -24.024  0.00  0.00    +0.015 C 
ATOM     18  C   UNL     1      33.172  -9.223 -23.704  0.00  0.00    +0.077 C 
ATOM     19  C   UNL     1      32.445  -8.872 -22.574  0.00  0.00    +0.112 C 
ATOM     20  H   UNL     1      30.935 -12.032 -20.576  0.00  0.00    +0.154 HD
ENDBRANCH   9  13
ENDBRANCH   3   9
BRANCH   1  21
ATOM     21  C   UNL     1      35.078 -19.205 -20.817  0.00  0.00    +0.117 C 
BRANCH  21  23
ATOM     22  N   UNL     1      34.501 -21.775 -18.101  0.00  0.00    -0.240 NA
ATOM     23  C   UNL     1      34.368 -20.104 -19.844  0.00  0.00    +0.017 C 
ATOM     24  C   UNL     1      32.979 -20.121 -19.764  0.00  0.00    +0.000 C 
ATOM     25  C   UNL     1      35.076 -20.943 -18.998  0.00  0.00    +0.096 C 
ATOM     26  C   UNL     1      32.351 -20.964 -18.854  0.00  0.00    +0.023 C 
ATOM     27  C   UNL     1      33.150 -21.764 -18.052  0.00  0.00    +0.153 C 
BRANCH  27  31
ATOM     28  F   UNL     1      31.218 -22.347 -16.767  0.00  0.00    -0.164 F 
ATOM     29  F   UNL     1      32.455 -23.980 -17.479  0.00  0.00    -0.164 F 
ATOM     30  F   UNL     1      33.165 -22.704 -15.868  0.00  0.00    -0.164 F 
ATOM     31  C   UNL     1      32.508 -22.680 -17.064  0.00  0.00    +0.435 C 
ENDBRANCH  27  31
ENDBRANCH  21  23
ENDBRANCH   1  21
TORSDOF 5
ENDMDL
MODEL 8
REMARK VINA RESULT:     -11.4      4.047      6.785
REMARK  Name = 25151352
REMARK  5 active torsions:
REMARK  status: ('A' for Active; 'I' for Inactive)
REMARK    1  A    between atoms: N_1  and  C_21
REMARK    2  A    between atoms: C_3  and  C_9
REMARK    3  A    between atoms: C_9  and  C_13
REMARK    4  A    between atoms: C_21  and  C_23
REMARK    5  A    between atoms: C_27  and  C_31
REMARK                            x       y       z     vdW  Elec       q    Type
REMARK                         _______ _______ _______ _____ _____    ______ ____
ROOT
ATOM      1  N   UNL     1      34.870 -17.544 -22.564  0.00  0.00    -0.314 N 
ATOM      2  N   UNL     1      33.410 -16.092 -23.766  0.00  0.00    -0.230 NA
ATOM      3  C   UNL     1      32.735 -13.996 -22.769  0.00  0.00    +0.002 C 
ATOM      4  C   UNL     1      33.492 -14.281 -21.638  0.00  0.00    +0.000 C 
ATOM      5  C   UNL     1      32.727 -14.926 -23.796  0.00  0.00    +0.096 C 
ATOM      6  C   UNL     1      34.134 -16.336 -22.650  0.00  0.00    +0.129 C 
ATOM      7  C   UNL     1      34.207 -15.471 -21.569  0.00  0.00    +0.034 C 
ATOM      8  H   UNL     1      34.832 -18.173 -23.320  0.00  0.00    +0.149 HD
ENDROOT
BRANCH   3   9
ATOM      9  C   UNL     1      31.942 -12.702 -22.875  0.00  0.00    +0.056 C 
BRANCH   9  13
ATOM     10 CL   UNL     1      31.044  -7.289 -20.600  0.00  0.00    -0.081 Cl
ATOM     11  N   UNL     1      34.223 -10.272 -24.381  0.00  0.00    -0.297 N 
ATOM     12  N   UNL     1      33.780  -8.119 -23.395  0.00  0.00    -0.228 NA
ATOM     13  C   UNL     1      32.735 -11.534 -23.312  0.00  0.00    -0.000 C 
ATOM     14  C   UNL     1      32.608 -10.201 -22.841  0.00  0.00    +0.030 C 
ATOM     15  C   UNL     1      33.550  -9.439 -23.526  0.00  0.00    +0.132 C 
ATOM     16  C   UNL     1      33.737 -11.547 -24.259  0.00  0.00    +0.059 C 
ATOM     17  C   UNL     1      31.798  -9.538 -21.904  0.00  0.00    +0.015 C 
ATOM     18  C   UNL     1      31.995  -8.169 -21.728  0.00  0.00    +0.077 C 
ATOM     19  C   UNL     1      32.972  -7.533 -22.481  0.00  0.00    +0.112 C 
ATOM     20  H   UNL     1      34.947  -9.997 -24.988  0.00  0.00    +0.154 HD
ENDBRANCH   9  13
ENDBRANCH   3   9
BRANCH   1  21
ATOM     21  C   UNL     1      35.661 -17.884 -21.428  0.00  0.00    +0.117 C 
BRANCH  21  23
ATOM     22  N   UNL     1      35.104 -20.649 -18.905  0.00  0.00    -0.240 NA
ATOM     23  C   UNL     1      34.966 -18.926 -20.596  0.00  0.00    +0.017 C 
ATOM     24  C   UNL     1      33.598 -19.147 -20.718  0.00  0.00    +0.000 C 
ATOM     25  C   UNL     1      35.667 -19.697 -19.682  0.00  0.00    +0.096 C 
ATOM     26  C   UNL     1      32.983 -20.118 -19.936  0.00  0.00    +0.023 C 
ATOM     27  C   UNL     1      33.773 -20.835 -19.052  0.00  0.00    +0.153 C 
BRANCH  27  31
ATOM     28  F   UNL     1      33.834 -22.133 -17.043  0.00  0.00    -0.164 F 
ATOM     29  F   UNL     1      31.877 -21.577 -17.795  0.00  0.00    -0.164 F 
ATOM     30  F   UNL     1      33.048 -23.089 -18.831  0.00  0.00    -0.164 F 
ATOM     31  C   UNL     1      33.146 -21.884 -18.196  0.00  0.00    +0.435 C 
ENDBRANCH  27  31
ENDBRANCH  21  23
ENDBRANCH   1  21
TORSDOF 5
ENDMDL
MODEL 9
REMARK VINA RESULT:     -11.2      6.092     10.905
REMARK  Name = 25151352
REMARK  5 active torsions:
REMARK  status: ('A' for Active; 'I' for Inactive)
REMARK    1  A    between atoms: N_1  and  C_21
REMARK    2  A    between atoms: C_3  and  C_9
REMARK    3  A    between atoms: C_9  and  C_13
REMARK    4  A    between atoms: C_21  and  C_23
REMARK    5  A    between atoms: C_27  and  C_31
REMARK                            x       y       z     vdW  Elec       q    Type
REMARK                         _______ _______ _______ _____ _____    ______ ____
ROOT
ATOM      1  N   UNL     1      33.173 -18.837 -20.714  0.00  0.00    -0.314 N 
ATOM      2  N   UNL     1      32.018 -20.490 -19.444  0.00  0.00    -0.230 NA
ATOM      3  C   UNL     1      33.282 -22.149 -18.223  0.00  0.00    +0.002 C 
ATOM      4  C   UNL     1      34.471 -21.585 -18.673  0.00  0.00    +0.000 C 
ATOM      5  C   UNL     1      32.092 -21.569 -18.633  0.00  0.00    +0.096 C 
ATOM      6  C   UNL     1      33.193 -19.970 -19.862  0.00  0.00    +0.129 C 
ATOM      7  C   UNL     1      34.434 -20.475 -19.509  0.00  0.00    +0.034 C 
ATOM      8  H   UNL     1      32.304 -18.461 -20.978  0.00  0.00    +0.149 HD
ENDROOT
BRANCH   3   9
ATOM      9  C   UNL     1      33.289 -23.363 -17.306  0.00  0.00    +0.056 C 
BRANCH   9  13
ATOM     10 CL   UNL     1      27.687 -23.471 -15.334  0.00  0.00    -0.081 Cl
ATOM     11  N   UNL     1      33.156 -22.540 -13.745  0.00  0.00    -0.297 N 
ATOM     12  N   UNL     1      30.852 -22.611 -13.047  0.00  0.00    -0.228 NA
ATOM     13  C   UNL     1      32.955 -23.067 -15.897  0.00  0.00    -0.000 C 
ATOM     14  C   UNL     1      31.659 -23.062 -15.318  0.00  0.00    +0.030 C 
ATOM     15  C   UNL     1      31.819 -22.731 -13.976  0.00  0.00    +0.132 C 
ATOM     16  C   UNL     1      33.856 -22.742 -14.906  0.00  0.00    +0.059 C 
ATOM     17  C   UNL     1      30.353 -23.302 -15.774  0.00  0.00    +0.015 C 
ATOM     18  C   UNL     1      29.312 -23.192 -14.852  0.00  0.00    +0.077 C 
ATOM     19  C   UNL     1      29.615 -22.852 -13.541  0.00  0.00    +0.112 C 
ATOM     20  H   UNL     1      33.553 -22.296 -12.879  0.00  0.00    +0.154 HD
ENDBRANCH   9  13
ENDBRANCH   3   9
BRANCH   1  21
ATOM     21  C   UNL     1      34.363 -18.221 -21.203  0.00  0.00    +0.117 C 
BRANCH  21  23
ATOM     22  N   UNL     1      33.622 -14.570 -21.863  0.00  0.00    -0.240 NA
ATOM     23  C   UNL     1      34.035 -16.951 -21.938  0.00  0.00    +0.017 C 
ATOM     24  C   UNL     1      33.843 -16.949 -23.316  0.00  0.00    +0.000 C 
ATOM     25  C   UNL     1      33.914 -15.746 -21.265  0.00  0.00    +0.096 C 
ATOM     26  C   UNL     1      33.540 -15.758 -23.967  0.00  0.00    +0.023 C 
ATOM     27  C   UNL     1      33.442 -14.607 -23.203  0.00  0.00    +0.153 C 
BRANCH  27  31
ATOM     28  F   UNL     1      33.319 -13.327 -25.221  0.00  0.00    -0.164 F 
ATOM     29  F   UNL     1      31.821 -12.921 -23.706  0.00  0.00    -0.164 F 
ATOM     30  F   UNL     1      33.875 -12.277 -23.400  0.00  0.00    -0.164 F 
ATOM     31  C   UNL     1      33.119 -13.312 -23.870  0.00  0.00    +0.435 C 
ENDBRANCH  27  31
ENDBRANCH  21  23
ENDBRANCH   1  21
TORSDOF 5
ENDMDL
