MODEL 1
REMARK VINA RESULT:     -12.3      0.000      0.000
REMARK  Name = 9924495
REMARK  4 active torsions:
REMARK  status: ('A' for Active; 'I' for Inactive)
REMARK    1  A    between atoms: N_2  and  C_22
REMARK    2  A    between atoms: C_3  and  C_14
REMARK    3  A    between atoms: C_4  and  C_9
REMARK    4  A    between atoms: C_15  and  C_21
REMARK                            x       y       z     vdW  Elec       q    Type
REMARK                         _______ _______ _______ _____ _____    ______ ____
ROOT
ATOM      1  O   UNL     1      35.796 -22.640 -15.733  0.00  0.00    -0.269 OA
ATOM      2  N   UNL     1      33.530 -22.443 -16.352  0.00  0.00    -0.233 N 
ATOM      3  C   UNL     1      34.225 -23.504 -14.212  0.00  0.00    +0.055 C 
ATOM      4  C   UNL     1      31.894 -23.491 -14.926  0.00  0.00    +0.033 C 
ATOM      5  C   UNL     1      34.598 -22.803 -15.494  0.00  0.00    +0.257 C 
ATOM      6  C   UNL     1      32.941 -23.819 -13.985  0.00  0.00    +0.007 C 
ATOM      7  C   UNL     1      32.224 -22.818 -16.041  0.00  0.00    +0.074 C 
ENDROOT
BRANCH   4   9
ATOM      8  N   UNL     1      29.578 -23.132 -15.426  0.00  0.00    -0.244 NA
ATOM      9  C   UNL     1      30.475 -23.822 -14.689  0.00  0.00    +0.083 C 
ATOM     10  C   UNL     1      30.138 -24.786 -13.755  0.00  0.00    +0.019 C 
ATOM     11  C   UNL     1      28.788 -25.063 -13.566  0.00  0.00    +0.003 C 
ATOM     12  C   UNL     1      28.275 -23.428 -15.215  0.00  0.00    +0.099 C 
ATOM     13  C   UNL     1      27.833 -24.376 -14.306  0.00  0.00    +0.021 C 
ENDBRANCH   4   9
BRANCH   3  14
ATOM     14  C   UNL     1      35.248 -23.843 -13.207  0.00  0.00    +0.014 C 
ATOM     15  C   UNL     1      35.968 -25.035 -13.260  0.00  0.00    +0.069 C 
ATOM     16  C   UNL     1      35.488 -22.928 -12.181  0.00  0.00    +0.001 C 
ATOM     17  C   UNL     1      36.928 -25.316 -12.287  0.00  0.00    +0.010 C 
ATOM     18  C   UNL     1      36.447 -23.208 -11.208  0.00  0.00    +0.000 C 
ATOM     19  C   UNL     1      37.168 -24.401 -11.261  0.00  0.00    +0.001 C 
BRANCH  15  21
ATOM     20  N   UNL     1      35.574 -26.777 -15.137  0.00  0.00    -0.191 NA
ATOM     21  C   UNL     1      35.750 -25.998 -14.299  0.00  0.00    +0.100 C 
ENDBRANCH  15  21
ENDBRANCH   3  14
BRANCH   2  22
ATOM     22  C   UNL     1      33.809 -21.708 -17.572  0.00  0.00    +0.058 C 
ATOM     23  C   UNL     1      35.125 -21.444 -17.931  0.00  0.00    +0.015 C 
ATOM     24  C   UNL     1      32.755 -21.277 -18.370  0.00  0.00    +0.015 C 
ATOM     25  C   UNL     1      35.391 -20.738 -19.104  0.00  0.00    +0.001 C 
ATOM     26  C   UNL     1      33.022 -20.571 -19.543  0.00  0.00    +0.001 C 
ATOM     27  C   UNL     1      34.340 -20.301 -19.910  0.00  0.00    +0.000 C 
ENDBRANCH   2  22
TORSDOF 4
ENDMDL
MODEL 2
REMARK VINA RESULT:     -12.2      1.209      5.185
REMARK  Name = 9924495
REMARK  4 active torsions:
REMARK  status: ('A' for Active; 'I' for Inactive)
REMARK    1  A    between atoms: N_2  and  C_22
REMARK    2  A    between atoms: C_3  and  C_14
REMARK    3  A    between atoms: C_4  and  C_9
REMARK    4  A    between atoms: C_15  and  C_21
REMARK                            x       y       z     vdW  Elec       q    Type
REMARK                         _______ _______ _______ _____ _____    ______ ____
ROOT
ATOM      1  O   UNL     1      32.443 -24.204 -12.574  0.00  0.00    -0.269 OA
ATOM      2  N   UNL     1      31.817 -23.442 -14.714  0.00  0.00    -0.233 N 
ATOM      3  C   UNL     1      34.189 -23.466 -13.965  0.00  0.00    +0.055 C 
ATOM      4  C   UNL     1      33.541 -22.488 -16.101  0.00  0.00    +0.033 C 
ATOM      5  C   UNL     1      32.737 -23.761 -13.685  0.00  0.00    +0.257 C 
ATOM      6  C   UNL     1      34.526 -22.857 -15.111  0.00  0.00    +0.007 C 
ATOM      7  C   UNL     1      32.255 -22.802 -15.873  0.00  0.00    +0.074 C 
ENDROOT
BRANCH   4   9
ATOM      8  N   UNL     1      35.216 -21.643 -17.594  0.00  0.00    -0.244 NA
ATOM      9  C   UNL     1      33.895 -21.825 -17.372  0.00  0.00    +0.083 C 
ATOM     10  C   UNL     1      32.898 -21.430 -18.246  0.00  0.00    +0.019 C 
ATOM     11  C   UNL     1      33.280 -20.809 -19.431  0.00  0.00    +0.003 C 
ATOM     12  C   UNL     1      35.549 -21.035 -18.755  0.00  0.00    +0.099 C 
ATOM     13  C   UNL     1      34.628 -20.604 -19.697  0.00  0.00    +0.021 C 
ENDBRANCH   4   9
BRANCH   3  14
ATOM     14  C   UNL     1      35.238 -23.840 -13.000  0.00  0.00    +0.014 C 
ATOM     15  C   UNL     1      35.948 -25.035 -13.108  0.00  0.00    +0.069 C 
ATOM     16  C   UNL     1      35.513 -22.958 -11.955  0.00  0.00    +0.001 C 
ATOM     17  C   UNL     1      36.933 -25.350 -12.171  0.00  0.00    +0.010 C 
ATOM     18  C   UNL     1      36.498 -23.271 -11.018  0.00  0.00    +0.000 C 
ATOM     19  C   UNL     1      37.208 -24.467 -11.127  0.00  0.00    +0.001 C 
BRANCH  15  21
ATOM     20  N   UNL     1      35.489 -26.719 -15.023  0.00  0.00    -0.191 NA
ATOM     21  C   UNL     1      35.694 -25.966 -14.167  0.00  0.00    +0.100 C 
ENDBRANCH  15  21
ENDBRANCH   3  14
BRANCH   2  22
ATOM     22  C   UNL     1      30.412 -23.758 -14.541  0.00  0.00    +0.058 C 
ATOM     23  C   UNL     1      30.045 -24.959 -13.945  0.00  0.00    +0.015 C 
ATOM     24  C   UNL     1      29.446 -22.856 -14.972  0.00  0.00    +0.015 C 
ATOM     25  C   UNL     1      28.694 -25.262 -13.779  0.00  0.00    +0.001 C 
ATOM     26  C   UNL     1      28.095 -23.159 -14.805  0.00  0.00    +0.001 C 
ATOM     27  C   UNL     1      27.718 -24.362 -14.209  0.00  0.00    +0.000 C 
ENDBRANCH   2  22
TORSDOF 4
ENDMDL
MODEL 3
REMARK VINA RESULT:      -9.9      1.883      5.493
REMARK  Name = 9924495
REMARK  4 active torsions:
REMARK  status: ('A' for Active; 'I' for Inactive)
REMARK    1  A    between atoms: N_2  and  C_22
REMARK    2  A    between atoms: C_3  and  C_14
REMARK    3  A    between atoms: C_4  and  C_9
REMARK    4  A    between atoms: C_15  and  C_21
REMARK                            x       y       z     vdW  Elec       q    Type
REMARK                         _______ _______ _______ _____ _____    ______ ____
ROOT
ATOM      1  O   UNL     1      32.372 -24.207 -13.726  0.00  0.00    -0.269 OA
ATOM      2  N   UNL     1      31.426 -23.104 -15.582  0.00  0.00    -0.233 N 
ATOM      3  C   UNL     1      33.884 -23.379 -15.325  0.00  0.00    +0.055 C 
ATOM      4  C   UNL     1      32.937 -22.063 -17.144  0.00  0.00    +0.033 C 
ATOM      5  C   UNL     1      32.490 -23.624 -14.805  0.00  0.00    +0.257 C 
ATOM      6  C   UNL     1      34.054 -22.630 -16.425  0.00  0.00    +0.007 C 
ATOM      7  C   UNL     1      31.694 -22.329 -16.710  0.00  0.00    +0.074 C 
ENDROOT
BRANCH   4   9
ATOM      8  N   UNL     1      31.965 -20.786 -18.925  0.00  0.00    -0.244 NA
ATOM      9  C   UNL     1      33.105 -21.244 -18.361  0.00  0.00    +0.083 C 
ATOM     10  C   UNL     1      34.373 -20.992 -18.855  0.00  0.00    +0.019 C 
ATOM     11  C   UNL     1      34.480 -20.216 -20.004  0.00  0.00    +0.003 C 
ATOM     12  C   UNL     1      32.109 -20.036 -20.041  0.00  0.00    +0.099 C 
ATOM     13  C   UNL     1      33.332 -19.726 -20.614  0.00  0.00    +0.021 C 
ENDBRANCH   4   9
BRANCH   3  14
ATOM     14  C   UNL     1      35.059 -23.952 -14.643  0.00  0.00    +0.014 C 
ATOM     15  C   UNL     1      36.273 -23.271 -14.565  0.00  0.00    +0.069 C 
ATOM     16  C   UNL     1      34.930 -25.215 -14.065  0.00  0.00    +0.001 C 
ATOM     17  C   UNL     1      37.359 -23.852 -13.911  0.00  0.00    +0.010 C 
ATOM     18  C   UNL     1      36.016 -25.797 -13.410  0.00  0.00    +0.000 C 
ATOM     19  C   UNL     1      37.230 -25.115 -13.332  0.00  0.00    +0.001 C 
BRANCH  15  21
ATOM     20  N   UNL     1      36.581 -20.923 -15.617  0.00  0.00    -0.191 NA
ATOM     21  C   UNL     1      36.443 -21.972 -15.147  0.00  0.00    +0.100 C 
ENDBRANCH  15  21
ENDBRANCH   3  14
BRANCH   2  22
ATOM     22  C   UNL     1      30.055 -23.358 -15.179  0.00  0.00    +0.058 C 
ATOM     23  C   UNL     1      29.726 -24.570 -14.585  0.00  0.00    +0.015 C 
ATOM     24  C   UNL     1      29.085 -22.385 -15.391  0.00  0.00    +0.015 C 
ATOM     25  C   UNL     1      28.408 -24.813 -14.197  0.00  0.00    +0.001 C 
ATOM     26  C   UNL     1      27.768 -22.627 -15.003  0.00  0.00    +0.001 C 
ATOM     27  C   UNL     1      27.429 -23.842 -14.406  0.00  0.00    +0.000 C 
ENDBRANCH   2  22
TORSDOF 4
ENDMDL
MODEL 4
REMARK VINA RESULT:      -9.9      1.596      6.287
REMARK  Name = 9924495
REMARK  4 active torsions:
REMARK  status: ('A' for Active; 'I' for Inactive)
REMARK    1  A    between atoms: N_2  and  C_22
REMARK    2  A    between atoms: C_3  and  C_14
REMARK    3  A    between atoms: C_4  and  C_9
REMARK    4  A    between atoms: C_15  and  C_21
REMARK                            x       y       z     vdW  Elec       q    Type
REMARK                         _______ _______ _______ _____ _____    ______ ____
ROOT
ATOM      1  O   UNL     1      31.215 -22.193 -17.360  0.00  0.00    -0.269 OA
ATOM      2  N   UNL     1      31.379 -23.208 -15.240  0.00  0.00    -0.233 N 
ATOM      3  C   UNL     1      33.382 -22.399 -16.473  0.00  0.00    +0.055 C 
ATOM      4  C   UNL     1      33.590 -23.625 -14.377  0.00  0.00    +0.033 C 
ATOM      5  C   UNL     1      31.886 -22.569 -16.398  0.00  0.00    +0.257 C 
ATOM      6  C   UNL     1      34.152 -22.919 -15.505  0.00  0.00    +0.007 C 
ATOM      7  C   UNL     1      32.254 -23.726 -14.285  0.00  0.00    +0.074 C 
ENDROOT
BRANCH   4   9
ATOM      8  N   UNL     1      35.396 -25.045 -13.691  0.00  0.00    -0.244 NA
ATOM      9  C   UNL     1      34.421 -24.197 -13.298  0.00  0.00    +0.083 C 
ATOM     10  C   UNL     1      34.172 -23.855 -11.980  0.00  0.00    +0.019 C 
ATOM     11  C   UNL     1      34.980 -24.419 -10.999  0.00  0.00    +0.003 C 
ATOM     12  C   UNL     1      36.161 -25.574 -12.710  0.00  0.00    +0.099 C 
ATOM     13  C   UNL     1      35.995 -25.296 -11.363  0.00  0.00    +0.021 C 
ENDBRANCH   4   9
BRANCH   3  14
ATOM     14  C   UNL     1      34.007 -21.669 -17.590  0.00  0.00    +0.014 C 
ATOM     15  C   UNL     1      35.364 -21.347 -17.594  0.00  0.00    +0.069 C 
ATOM     16  C   UNL     1      33.200 -21.299 -18.666  0.00  0.00    +0.001 C 
ATOM     17  C   UNL     1      35.914 -20.653 -18.672  0.00  0.00    +0.010 C 
ATOM     18  C   UNL     1      33.749 -20.606 -19.745  0.00  0.00    +0.000 C 
ATOM     19  C   UNL     1      35.106 -20.284 -19.748  0.00  0.00    +0.001 C 
BRANCH  15  21
ATOM     20  N   UNL     1      36.921 -22.003 -15.630  0.00  0.00    -0.191 NA
ATOM     21  C   UNL     1      36.224 -21.710 -16.507  0.00  0.00    +0.100 C 
ENDBRANCH  15  21
ENDBRANCH   3  14
BRANCH   2  22
ATOM     22  C   UNL     1      29.945 -23.347 -15.069  0.00  0.00    +0.058 C 
ATOM     23  C   UNL     1      29.099 -22.330 -15.494  0.00  0.00    +0.015 C 
ATOM     24  C   UNL     1      29.431 -24.497 -14.481  0.00  0.00    +0.015 C 
ATOM     25  C   UNL     1      27.721 -22.464 -15.330  0.00  0.00    +0.001 C 
ATOM     26  C   UNL     1      28.053 -24.632 -14.317  0.00  0.00    +0.001 C 
ATOM     27  C   UNL     1      27.197 -23.615 -14.741  0.00  0.00    +0.000 C 
ENDBRANCH   2  22
TORSDOF 4
ENDMDL
MODEL 5
REMARK VINA RESULT:      -9.4      1.742      5.526
REMARK  Name = 9924495
REMARK  4 active torsions:
REMARK  status: ('A' for Active; 'I' for Inactive)
REMARK    1  A    between atoms: N_2  and  C_22
REMARK    2  A    between atoms: C_3  and  C_14
REMARK    3  A    between atoms: C_4  and  C_9
REMARK    4  A    between atoms: C_15  and  C_21
REMARK                            x       y       z     vdW  Elec       q    Type
REMARK                         _______ _______ _______ _____ _____    ______ ____
ROOT
ATOM      1  O   UNL     1      32.046 -24.760 -13.200  0.00  0.00    -0.269 OA
ATOM      2  N   UNL     1      31.489 -23.521 -15.125  0.00  0.00    -0.233 N 
ATOM      3  C   UNL     1      33.844 -24.087 -14.556  0.00  0.00    +0.055 C 
ATOM      4  C   UNL     1      33.306 -22.636 -16.439  0.00  0.00    +0.033 C 
ATOM      5  C   UNL     1      32.374 -24.176 -14.234  0.00  0.00    +0.257 C 
ATOM      6  C   UNL     1      34.244 -23.344 -15.599  0.00  0.00    +0.007 C 
ATOM      7  C   UNL     1      31.994 -22.762 -16.181  0.00  0.00    +0.074 C 
ENDROOT
BRANCH   4   9
ATOM      8  N   UNL     1      35.060 -21.661 -17.750  0.00  0.00    -0.244 NA
ATOM      9  C   UNL     1      33.728 -21.820 -17.595  0.00  0.00    +0.083 C 
ATOM     10  C   UNL     1      32.776 -21.272 -18.437  0.00  0.00    +0.019 C 
ATOM     11  C   UNL     1      33.221 -20.510 -19.512  0.00  0.00    +0.003 C 
ATOM     12  C   UNL     1      35.456 -20.914 -18.806  0.00  0.00    +0.099 C 
ATOM     13  C   UNL     1      34.584 -20.323 -19.707  0.00  0.00    +0.021 C 
ENDBRANCH   4   9
BRANCH   3  14
ATOM     14  C   UNL     1      34.843 -24.807 -13.746  0.00  0.00    +0.014 C 
ATOM     15  C   UNL     1      34.974 -24.593 -12.375  0.00  0.00    +0.069 C 
ATOM     16  C   UNL     1      35.672 -25.725 -14.391  0.00  0.00    +0.001 C 
ATOM     17  C   UNL     1      35.934 -25.295 -11.647  0.00  0.00    +0.010 C 
ATOM     18  C   UNL     1      36.632 -26.428 -13.664  0.00  0.00    +0.000 C 
ATOM     19  C   UNL     1      36.763 -26.214 -12.291  0.00  0.00    +0.001 C 
BRANCH  15  21
ATOM     20  N   UNL     1      33.468 -22.902 -11.115  0.00  0.00    -0.191 NA
ATOM     21  C   UNL     1      34.140 -23.658 -11.678  0.00  0.00    +0.100 C 
ENDBRANCH  15  21
ENDBRANCH   3  14
BRANCH   2  22
ATOM     22  C   UNL     1      30.057 -23.619 -14.915  0.00  0.00    +0.058 C 
ATOM     23  C   UNL     1      29.233 -22.564 -15.288  0.00  0.00    +0.015 C 
ATOM     24  C   UNL     1      29.524 -24.768 -14.343  0.00  0.00    +0.015 C 
ATOM     25  C   UNL     1      27.856 -22.660 -15.086  0.00  0.00    +0.001 C 
ATOM     26  C   UNL     1      28.147 -24.863 -14.140  0.00  0.00    +0.001 C 
ATOM     27  C   UNL     1      27.313 -23.809 -14.512  0.00  0.00    +0.000 C 
ENDBRANCH   2  22
TORSDOF 4
ENDMDL
