MODEL 1
REMARK VINA RESULT:     -11.6      0.000      0.000
REMARK  Name = 24941254
REMARK  6 active torsions:
REMARK  status: ('A' for Active; 'I' for Inactive)
REMARK    1  A    between atoms: C_1  and  S_21
REMARK    2  A    between atoms: C_4  and  C_9
REMARK    3  A    between atoms: N_8  and  C_11
REMARK    4  A    between atoms: C_12  and  C_18
REMARK    5  A    between atoms: C_18  and  O_19
REMARK    6  A    between atoms: S_21  and  N_24
REMARK                            x       y       z     vdW  Elec       q    Type
REMARK                         _______ _______ _______ _____ _____    ______ ____
ROOT
ATOM      1  C   UNL     1      34.255 -19.438 -20.217  0.00  0.00    +0.122 C 
ATOM      2  C   UNL     1      34.388 -20.462 -19.279  0.00  0.00    +0.024 C 
ATOM      3  C   UNL     1      32.997 -19.126 -20.735  0.00  0.00    +0.020 C 
ATOM      4  C   UNL     1      33.265 -21.174 -18.861  0.00  0.00    +0.055 C 
ATOM      5  C   UNL     1      31.874 -19.839 -20.316  0.00  0.00    +0.002 C 
ATOM      6  C   UNL     1      32.008 -20.863 -19.378  0.00  0.00    +0.005 C 
ENDROOT
BRANCH   4   9
ATOM      7  O   UNL     1      33.086 -23.399 -18.203  0.00  0.00    -0.270 OA
ATOM      8  N   UNL     1      33.920 -21.866 -16.635  0.00  0.00    -0.280 N 
ATOM      9  C   UNL     1      33.403 -22.242 -17.882  0.00  0.00    +0.250 C 
ATOM     10  H   UNL     1      34.126 -20.909 -16.528  0.00  0.00    +0.155 HD
BRANCH   8  11
ATOM     11  C   UNL     1      34.188 -22.682 -15.508  0.00  0.00    +0.057 C 
ATOM     12  C   UNL     1      35.479 -22.791 -14.991  0.00  0.00    +0.089 C 
ATOM     13  C   UNL     1      33.137 -23.382 -14.916  0.00  0.00    +0.015 C 
ATOM     14  C   UNL     1      35.717 -23.601 -13.880  0.00  0.00    +0.008 C 
ATOM     15  C   UNL     1      33.377 -24.193 -13.807  0.00  0.00    +0.001 C 
ATOM     16  C   UNL     1      34.666 -24.302 -13.289  0.00  0.00    +0.000 C 
BRANCH  12  18
ATOM     17  O   UNL     1      36.529 -20.969 -16.129  0.00  0.00    -0.245 OA
ATOM     18  C   UNL     1      36.599 -22.073 -15.585  0.00  0.00    +0.339 C 
BRANCH  18  19
ATOM     19  O   UNL     1      37.768 -22.759 -15.477  0.00  0.00    -0.477 OA
ATOM     20  H   UNL     1      38.465 -22.418 -14.952  0.00  0.00    +0.295 HD
ENDBRANCH  18  19
ENDBRANCH  12  18
ENDBRANCH   8  11
ENDBRANCH   4   9
BRANCH   1  21
ATOM     21  S   UNL     1      35.676 -18.536 -20.749  0.00  0.00    +0.064 S 
ATOM     22  O   UNL     1      36.505 -18.290 -19.588  0.00  0.00    -0.153 OA
ATOM     23  O   UNL     1      36.212 -19.201 -21.919  0.00  0.00    -0.153 OA
BRANCH  21  24
ATOM     24  N   UNL     1      34.938 -17.069 -21.232  0.00  0.00    -0.151 NA
ATOM     25  C   UNL     1      34.007 -16.457 -20.247  0.00  0.00    +0.101 C 
ATOM     26  C   UNL     1      34.372 -17.061 -22.615  0.00  0.00    +0.122 C 
ATOM     27  C   UNL     1      33.828 -14.981 -20.594  0.00  0.00    +0.045 C 
ATOM     28  C   UNL     1      33.717 -15.756 -23.002  0.00  0.00    -0.008 C 
ATOM     29  C   UNL     1      33.427 -14.779 -22.033  0.00  0.00    -0.023 C 
ATOM     30  C   UNL     1      33.356 -15.534 -24.337  0.00  0.00    -0.003 C 
ATOM     31  C   UNL     1      32.812 -13.581 -22.424  0.00  0.00    -0.004 C 
ATOM     32  C   UNL     1      32.734 -14.343 -24.713  0.00  0.00    -0.000 C 
ATOM     33  C   UNL     1      32.465 -13.367 -23.757  0.00  0.00    -0.000 C 
ENDBRANCH  21  24
ENDBRANCH   1  21
TORSDOF 6
ENDMDL
MODEL 2
REMARK VINA RESULT:     -11.6      4.740     11.473
REMARK  Name = 24941254
REMARK  6 active torsions:
REMARK  status: ('A' for Active; 'I' for Inactive)
REMARK    1  A    between atoms: C_1  and  S_21
REMARK    2  A    between atoms: C_4  and  C_9
REMARK    3  A    between atoms: N_8  and  C_11
REMARK    4  A    between atoms: C_12  and  C_18
REMARK    5  A    between atoms: C_18  and  O_19
REMARK    6  A    between atoms: S_21  and  N_24
REMARK                            x       y       z     vdW  Elec       q    Type
REMARK                         _______ _______ _______ _____ _____    ______ ____
ROOT
ATOM      1  C   UNL     1      33.477 -15.205 -22.710  0.00  0.00    +0.122 C 
ATOM      2  C   UNL     1      33.335 -14.046 -23.474  0.00  0.00    +0.024 C 
ATOM      3  C   UNL     1      33.556 -15.117 -21.320  0.00  0.00    +0.020 C 
ATOM      4  C   UNL     1      33.272 -12.801 -22.848  0.00  0.00    +0.055 C 
ATOM      5  C   UNL     1      33.494 -13.872 -20.694  0.00  0.00    +0.002 C 
ATOM      6  C   UNL     1      33.351 -12.714 -21.459  0.00  0.00    +0.005 C 
ENDROOT
BRANCH   4   9
ATOM      7  O   UNL     1      32.866 -11.696 -24.855  0.00  0.00    -0.270 OA
ATOM      8  N   UNL     1      33.263 -10.382 -22.952  0.00  0.00    -0.280 N 
ATOM      9  C   UNL     1      33.123 -11.593 -23.645  0.00  0.00    +0.250 C 
ATOM     10  H   UNL     1      33.467 -10.459 -21.993  0.00  0.00    +0.155 HD
BRANCH   8  11
ATOM     11  C   UNL     1      33.147  -9.062 -23.452  0.00  0.00    +0.057 C 
ATOM     12  C   UNL     1      32.143  -8.207 -22.996  0.00  0.00    +0.089 C 
ATOM     13  C   UNL     1      34.055  -8.621 -24.414  0.00  0.00    +0.015 C 
ATOM     14  C   UNL     1      32.049  -6.910 -23.503  0.00  0.00    +0.008 C 
ATOM     15  C   UNL     1      33.959  -7.325 -24.922  0.00  0.00    +0.001 C 
ATOM     16  C   UNL     1      32.956  -6.471 -24.466  0.00  0.00    +0.000 C 
BRANCH  12  18
ATOM     17  O   UNL     1      31.374  -9.509 -21.143  0.00  0.00    -0.245 OA
ATOM     18  C   UNL     1      31.178  -8.635 -21.991  0.00  0.00    +0.339 C 
BRANCH  18  19
ATOM     19  O   UNL     1      30.003  -7.957 -22.080  0.00  0.00    -0.477 OA
ATOM     20  H   UNL     1      29.699  -7.449 -21.354  0.00  0.00    +0.295 HD
ENDBRANCH  18  19
ENDBRANCH  12  18
ENDBRANCH   8  11
ENDBRANCH   4   9
BRANCH   1  21
ATOM     21  S   UNL     1      33.558 -16.781 -23.501  0.00  0.00    +0.064 S 
ATOM     22  O   UNL     1      32.208 -17.174 -23.844  0.00  0.00    -0.153 OA
ATOM     23  O   UNL     1      34.595 -16.720 -24.510  0.00  0.00    -0.153 OA
BRANCH  21  24
ATOM     24  N   UNL     1      34.108 -17.743 -22.196  0.00  0.00    -0.151 NA
ATOM     25  C   UNL     1      35.473 -18.316 -22.342  0.00  0.00    +0.101 C 
ATOM     26  C   UNL     1      33.130 -18.753 -21.687  0.00  0.00    +0.122 C 
ATOM     27  C   UNL     1      35.989 -18.708 -20.960  0.00  0.00    +0.045 C 
ATOM     28  C   UNL     1      33.654 -19.592 -20.546  0.00  0.00    -0.008 C 
ATOM     29  C   UNL     1      35.021 -19.597 -20.221  0.00  0.00    -0.023 C 
ATOM     30  C   UNL     1      32.770 -20.408 -19.828  0.00  0.00    -0.003 C 
ATOM     31  C   UNL     1      35.476 -20.392 -19.160  0.00  0.00    -0.004 C 
ATOM     32  C   UNL     1      33.235 -21.205 -18.782  0.00  0.00    -0.000 C 
ATOM     33  C   UNL     1      34.587 -21.194 -18.447  0.00  0.00    -0.000 C 
ENDBRANCH  21  24
ENDBRANCH   1  21
TORSDOF 6
ENDMDL
MODEL 3
REMARK VINA RESULT:     -11.5      3.747      9.304
REMARK  Name = 24941254
REMARK  6 active torsions:
REMARK  status: ('A' for Active; 'I' for Inactive)
REMARK    1  A    between atoms: C_1  and  S_21
REMARK    2  A    between atoms: C_4  and  C_9
REMARK    3  A    between atoms: N_8  and  C_11
REMARK    4  A    between atoms: C_12  and  C_18
REMARK    5  A    between atoms: C_18  and  O_19
REMARK    6  A    between atoms: S_21  and  N_24
REMARK                            x       y       z     vdW  Elec       q    Type
REMARK                         _______ _______ _______ _____ _____    ______ ____
ROOT
ATOM      1  C   UNL     1      35.760 -23.571 -13.600  0.00  0.00    +0.122 C 
ATOM      2  C   UNL     1      35.488 -22.573 -14.536  0.00  0.00    +0.024 C 
ATOM      3  C   UNL     1      36.987 -24.236 -13.627  0.00  0.00    +0.020 C 
ATOM      4  C   UNL     1      36.441 -22.242 -15.500  0.00  0.00    +0.055 C 
ATOM      5  C   UNL     1      37.939 -23.904 -14.591  0.00  0.00    +0.002 C 
ATOM      6  C   UNL     1      37.666 -22.906 -15.527  0.00  0.00    +0.005 C 
ENDROOT
BRANCH   4   9
ATOM      7  O   UNL     1      36.652 -20.074 -16.318  0.00  0.00    -0.270 OA
ATOM      8  N   UNL     1      35.344 -21.579 -17.554  0.00  0.00    -0.280 N 
ATOM      9  C   UNL     1      36.157 -21.201 -16.476  0.00  0.00    +0.250 C 
ATOM     10  H   UNL     1      35.025 -22.510 -17.544  0.00  0.00    +0.155 HD
BRANCH   8  11
ATOM     11  C   UNL     1      34.925 -20.798 -18.658  0.00  0.00    +0.057 C 
ATOM     12  C   UNL     1      33.609 -20.852 -19.119  0.00  0.00    +0.089 C 
ATOM     13  C   UNL     1      35.850 -19.964 -19.287  0.00  0.00    +0.015 C 
ATOM     14  C   UNL     1      33.219 -20.073 -20.209  0.00  0.00    +0.008 C 
ATOM     15  C   UNL     1      35.460 -19.186 -20.378  0.00  0.00    +0.001 C 
ATOM     16  C   UNL     1      34.145 -19.241 -20.838  0.00  0.00    +0.000 C 
BRANCH  12  18
ATOM     17  O   UNL     1      31.542 -21.332 -18.016  0.00  0.00    -0.245 OA
ATOM     18  C   UNL     1      32.617 -21.712 -18.485  0.00  0.00    +0.339 C 
BRANCH  18  19
ATOM     19  O   UNL     1      33.004 -23.015 -18.459  0.00  0.00    -0.477 OA
ATOM     20  H   UNL     1      33.059 -23.471 -17.642  0.00  0.00    +0.295 HD
ENDBRANCH  18  19
ENDBRANCH  12  18
ENDBRANCH   8  11
ENDBRANCH   4   9
BRANCH   1  21
ATOM     21  S   UNL     1      34.555 -23.993 -12.382  0.00  0.00    +0.064 S 
ATOM     22  O   UNL     1      34.748 -25.385 -12.032  0.00  0.00    -0.153 OA
ATOM     23  O   UNL     1      34.568 -22.961 -11.366  0.00  0.00    -0.153 OA
BRANCH  21  24
ATOM     24  N   UNL     1      33.124 -23.841 -13.310  0.00  0.00    -0.151 NA
ATOM     25  C   UNL     1      32.858 -22.491 -13.876  0.00  0.00    +0.101 C 
ATOM     26  C   UNL     1      31.899 -24.443 -12.703  0.00  0.00    +0.122 C 
ATOM     27  C   UNL     1      31.870 -22.630 -15.030  0.00  0.00    +0.045 C 
ATOM     28  C   UNL     1      30.655 -24.278 -13.543  0.00  0.00    -0.008 C 
ATOM     29  C   UNL     1      30.630 -23.389 -14.631  0.00  0.00    -0.023 C 
ATOM     30  C   UNL     1      29.496 -24.991 -13.206  0.00  0.00    -0.003 C 
ATOM     31  C   UNL     1      29.457 -23.255 -15.387  0.00  0.00    -0.004 C 
ATOM     32  C   UNL     1      28.330 -24.840 -13.958  0.00  0.00    -0.000 C 
ATOM     33  C   UNL     1      28.312 -23.974 -15.048  0.00  0.00    -0.000 C 
ENDBRANCH  21  24
ENDBRANCH   1  21
TORSDOF 6
ENDMDL
MODEL 4
REMARK VINA RESULT:     -11.4      1.451      2.739
REMARK  Name = 24941254
REMARK  6 active torsions:
REMARK  status: ('A' for Active; 'I' for Inactive)
REMARK    1  A    between atoms: C_1  and  S_21
REMARK    2  A    between atoms: C_4  and  C_9
REMARK    3  A    between atoms: N_8  and  C_11
REMARK    4  A    between atoms: C_12  and  C_18
REMARK    5  A    between atoms: C_18  and  O_19
REMARK    6  A    between atoms: S_21  and  N_24
REMARK                            x       y       z     vdW  Elec       q    Type
REMARK                         _______ _______ _______ _____ _____    ______ ____
ROOT
ATOM      1  C   UNL     1      34.218 -19.511 -20.621  0.00  0.00    +0.122 C 
ATOM      2  C   UNL     1      34.774 -20.229 -19.562  0.00  0.00    +0.024 C 
ATOM      3  C   UNL     1      32.834 -19.486 -20.794  0.00  0.00    +0.020 C 
ATOM      4  C   UNL     1      33.947 -20.921 -18.677  0.00  0.00    +0.055 C 
ATOM      5  C   UNL     1      32.006 -20.177 -19.909  0.00  0.00    +0.002 C 
ATOM      6  C   UNL     1      32.564 -20.895 -18.851  0.00  0.00    +0.005 C 
ENDROOT
BRANCH   4   9
ATOM      7  O   UNL     1      35.754 -21.854 -17.548  0.00  0.00    -0.270 OA
ATOM      8  N   UNL     1      33.628 -22.107 -16.591  0.00  0.00    -0.280 N 
ATOM      9  C   UNL     1      34.527 -21.669 -17.573  0.00  0.00    +0.250 C 
ATOM     10  H   UNL     1      32.682 -21.884 -16.747  0.00  0.00    +0.155 HD
BRANCH   8  11
ATOM     11  C   UNL     1      33.901 -22.826 -15.402  0.00  0.00    +0.057 C 
ATOM     12  C   UNL     1      32.875 -23.187 -14.528  0.00  0.00    +0.089 C 
ATOM     13  C   UNL     1      35.220 -23.174 -15.111  0.00  0.00    +0.015 C 
ATOM     14  C   UNL     1      33.170 -23.896 -13.363  0.00  0.00    +0.008 C 
ATOM     15  C   UNL     1      35.514 -23.882 -13.945  0.00  0.00    +0.001 C 
ATOM     16  C   UNL     1      34.489 -24.243 -13.072  0.00  0.00    +0.000 C 
BRANCH  12  18
ATOM     17  O   UNL     1      30.937 -22.918 -15.903  0.00  0.00    -0.245 OA
ATOM     18  C   UNL     1      31.486 -22.840 -14.802  0.00  0.00    +0.339 C 
BRANCH  18  19
ATOM     19  O   UNL     1      30.833 -22.408 -13.690  0.00  0.00    -0.477 OA
ATOM     20  H   UNL     1      31.287 -21.901 -13.047  0.00  0.00    +0.295 HD
ENDBRANCH  18  19
ENDBRANCH  12  18
ENDBRANCH   8  11
ENDBRANCH   4   9
BRANCH   1  21
ATOM     21  S   UNL     1      35.264 -18.637 -21.742  0.00  0.00    +0.064 S 
ATOM     22  O   UNL     1      36.477 -18.286 -21.034  0.00  0.00    -0.153 OA
ATOM     23  O   UNL     1      35.315 -19.387 -22.980  0.00  0.00    -0.153 OA
BRANCH  21  24
ATOM     24  N   UNL     1      34.328 -17.224 -21.986  0.00  0.00    -0.151 NA
ATOM     25  C   UNL     1      34.521 -16.534 -23.290  0.00  0.00    +0.101 C 
ATOM     26  C   UNL     1      34.310 -16.262 -20.843  0.00  0.00    +0.122 C 
ATOM     27  C   UNL     1      33.318 -15.632 -23.549  0.00  0.00    +0.045 C 
ATOM     28  C   UNL     1      33.486 -15.022 -21.098  0.00  0.00    -0.008 C 
ATOM     29  C   UNL     1      33.042 -14.704 -22.393  0.00  0.00    -0.023 C 
ATOM     30  C   UNL     1      33.195 -14.156 -20.036  0.00  0.00    -0.003 C 
ATOM     31  C   UNL     1      32.284 -13.543 -22.598  0.00  0.00    -0.004 C 
ATOM     32  C   UNL     1      32.451 -12.996 -20.252  0.00  0.00    -0.000 C 
ATOM     33  C   UNL     1      31.994 -12.691 -21.533  0.00  0.00    -0.000 C 
ENDBRANCH  21  24
ENDBRANCH   1  21
TORSDOF 6
ENDMDL
MODEL 5
REMARK VINA RESULT:     -11.1      2.156      9.704
REMARK  Name = 24941254
REMARK  6 active torsions:
REMARK  status: ('A' for Active; 'I' for Inactive)
REMARK    1  A    between atoms: C_1  and  S_21
REMARK    2  A    between atoms: C_4  and  C_9
REMARK    3  A    between atoms: N_8  and  C_11
REMARK    4  A    between atoms: C_12  and  C_18
REMARK    5  A    between atoms: C_18  and  O_19
REMARK    6  A    between atoms: S_21  and  N_24
REMARK                            x       y       z     vdW  Elec       q    Type
REMARK                         _______ _______ _______ _____ _____    ______ ____
ROOT
ATOM      1  C   UNL     1      33.984 -20.972 -19.018  0.00  0.00    +0.122 C 
ATOM      2  C   UNL     1      33.452 -20.133 -19.997  0.00  0.00    +0.024 C 
ATOM      3  C   UNL     1      35.333 -20.876 -18.677  0.00  0.00    +0.020 C 
ATOM      4  C   UNL     1      34.269 -19.199 -20.635  0.00  0.00    +0.055 C 
ATOM      5  C   UNL     1      36.150 -19.943 -19.314  0.00  0.00    +0.002 C 
ATOM      6  C   UNL     1      35.617 -19.104 -20.294  0.00  0.00    +0.005 C 
ENDROOT
BRANCH   4   9
ATOM      7  O   UNL     1      32.890 -18.783 -22.462  0.00  0.00    -0.270 OA
ATOM      8  N   UNL     1      34.152 -16.992 -21.624  0.00  0.00    -0.280 N 
ATOM      9  C   UNL     1      33.714 -18.323 -21.655  0.00  0.00    +0.250 C 
ATOM     10  H   UNL     1      34.809 -16.774 -20.924  0.00  0.00    +0.155 HD
BRANCH   8  11
ATOM     11  C   UNL     1      33.771 -15.918 -22.464  0.00  0.00    +0.057 C 
ATOM     12  C   UNL     1      33.363 -14.696 -21.929  0.00  0.00    +0.089 C 
ATOM     13  C   UNL     1      33.808 -16.096 -23.847  0.00  0.00    +0.015 C 
ATOM     14  C   UNL     1      32.993 -13.652 -22.778  0.00  0.00    +0.008 C 
ATOM     15  C   UNL     1      33.436 -15.053 -24.695  0.00  0.00    +0.001 C 
ATOM     16  C   UNL     1      33.029 -13.831 -24.161  0.00  0.00    +0.000 C 
BRANCH  12  18
ATOM     17  O   UNL     1      33.806 -15.219 -19.638  0.00  0.00    -0.245 OA
ATOM     18  C   UNL     1      33.313 -14.476 -20.489  0.00  0.00    +0.339 C 
BRANCH  18  19
ATOM     19  O   UNL     1      32.649 -13.334 -20.164  0.00  0.00    -0.477 OA
ATOM     20  H   UNL     1      32.760 -12.563 -20.684  0.00  0.00    +0.295 HD
ENDBRANCH  18  19
ENDBRANCH  12  18
ENDBRANCH   8  11
ENDBRANCH   4   9
BRANCH   1  21
ATOM     21  S   UNL     1      32.951 -22.155 -18.212  0.00  0.00    +0.064 S 
ATOM     22  O   UNL     1      31.636 -21.569 -18.067  0.00  0.00    -0.153 OA
ATOM     23  O   UNL     1      33.129 -23.428 -18.879  0.00  0.00    -0.153 OA
BRANCH  21  24
ATOM     24  N   UNL     1      33.709 -22.220 -16.679  0.00  0.00    -0.151 NA
ATOM     25  C   UNL     1      35.193 -22.324 -16.692  0.00  0.00    +0.101 C 
ATOM     26  C   UNL     1      33.092 -23.162 -15.697  0.00  0.00    +0.122 C 
ATOM     27  C   UNL     1      35.727 -21.887 -15.331  0.00  0.00    +0.045 C 
ATOM     28  C   UNL     1      33.795 -23.203 -14.361  0.00  0.00    -0.008 C 
ATOM     29  C   UNL     1      35.065 -22.624 -14.195  0.00  0.00    -0.023 C 
ATOM     30  C   UNL     1      33.190 -23.862 -13.283  0.00  0.00    -0.003 C 
ATOM     31  C   UNL     1      35.693 -22.684 -12.944  0.00  0.00    -0.004 C 
ATOM     32  C   UNL     1      33.829 -23.927 -12.045  0.00  0.00    -0.000 C 
ATOM     33  C   UNL     1      35.079 -23.336 -11.875  0.00  0.00    -0.000 C 
ENDBRANCH  21  24
ENDBRANCH   1  21
TORSDOF 6
ENDMDL
MODEL 6
REMARK VINA RESULT:     -11.0      7.024     11.196
REMARK  Name = 24941254
REMARK  6 active torsions:
REMARK  status: ('A' for Active; 'I' for Inactive)
REMARK    1  A    between atoms: C_1  and  S_21
REMARK    2  A    between atoms: C_4  and  C_9
REMARK    3  A    between atoms: N_8  and  C_11
REMARK    4  A    between atoms: C_12  and  C_18
REMARK    5  A    between atoms: C_18  and  O_19
REMARK    6  A    between atoms: S_21  and  N_24
REMARK                            x       y       z     vdW  Elec       q    Type
REMARK                         _______ _______ _______ _____ _____    ______ ____
ROOT
ATOM      1  C   UNL     1      32.337  -9.296 -22.680  0.00  0.00    +0.122 C 
ATOM      2  C   UNL     1      32.192 -10.633 -22.309  0.00  0.00    +0.024 C 
ATOM      3  C   UNL     1      33.175  -8.956 -23.743  0.00  0.00    +0.020 C 
ATOM      4  C   UNL     1      32.883 -11.628 -22.999  0.00  0.00    +0.055 C 
ATOM      5  C   UNL     1      33.866  -9.952 -24.433  0.00  0.00    +0.002 C 
ATOM      6  C   UNL     1      33.720 -11.288 -24.061  0.00  0.00    +0.005 C 
ENDROOT
BRANCH   4   9
ATOM      7  O   UNL     1      31.860 -13.326 -21.780  0.00  0.00    -0.270 OA
ATOM      8  N   UNL     1      33.589 -13.931 -23.246  0.00  0.00    -0.280 N 
ATOM      9  C   UNL     1      32.731 -13.022 -22.611  0.00  0.00    +0.250 C 
ATOM     10  H   UNL     1      34.229 -13.541 -23.884  0.00  0.00    +0.155 HD
BRANCH   8  11
ATOM     11  C   UNL     1      33.653 -15.337 -23.093  0.00  0.00    +0.057 C 
ATOM     12  C   UNL     1      33.039 -16.190 -24.010  0.00  0.00    +0.089 C 
ATOM     13  C   UNL     1      34.345 -15.867 -22.003  0.00  0.00    +0.015 C 
ATOM     14  C   UNL     1      33.117 -17.572 -23.837  0.00  0.00    +0.008 C 
ATOM     15  C   UNL     1      34.421 -17.249 -21.830  0.00  0.00    +0.001 C 
ATOM     16  C   UNL     1      33.807 -18.101 -22.747  0.00  0.00    +0.000 C 
BRANCH  12  18
ATOM     17  O   UNL     1      32.630 -14.678 -25.818  0.00  0.00    -0.245 OA
ATOM     18  C   UNL     1      32.308 -15.670 -25.159  0.00  0.00    +0.339 C 
BRANCH  18  19
ATOM     19  O   UNL     1      31.202 -16.408 -25.446  0.00  0.00    -0.477 OA
ATOM     20  H   UNL     1      30.761 -16.874 -24.764  0.00  0.00    +0.295 HD
ENDBRANCH  18  19
ENDBRANCH  12  18
ENDBRANCH   8  11
ENDBRANCH   4   9
BRANCH   1  21
ATOM     21  S   UNL     1      31.464  -8.035 -21.806  0.00  0.00    +0.064 S 
ATOM     22  O   UNL     1      30.084  -8.454 -21.688  0.00  0.00    -0.153 OA
ATOM     23  O   UNL     1      32.240  -7.688 -20.634  0.00  0.00    -0.153 OA
BRANCH  21  24
ATOM     24  N   UNL     1      31.568  -6.757 -22.941  0.00  0.00    -0.151 NA
ATOM     25  C   UNL     1      32.552  -5.687 -22.626  0.00  0.00    +0.101 C 
ATOM     26  C   UNL     1      30.259  -6.196 -23.396  0.00  0.00    +0.122 C 
ATOM     27  C   UNL     1      32.871  -4.923 -23.907  0.00  0.00    +0.045 C 
ATOM     28  C   UNL     1      30.390  -5.063 -24.385  0.00  0.00    -0.008 C 
ATOM     29  C   UNL     1      31.627  -4.434 -24.604  0.00  0.00    -0.023 C 
ATOM     30  C   UNL     1      29.252  -4.605 -25.064  0.00  0.00    -0.003 C 
ATOM     31  C   UNL     1      31.713  -3.380 -25.525  0.00  0.00    -0.004 C 
ATOM     32  C   UNL     1      29.346  -3.548 -25.969  0.00  0.00    -0.000 C 
ATOM     33  C   UNL     1      30.577  -2.938 -26.200  0.00  0.00    -0.000 C 
ENDBRANCH  21  24
ENDBRANCH   1  21
TORSDOF 6
ENDMDL
MODEL 7
REMARK VINA RESULT:     -11.0      2.274      9.447
REMARK  Name = 24941254
REMARK  6 active torsions:
REMARK  status: ('A' for Active; 'I' for Inactive)
REMARK    1  A    between atoms: C_1  and  S_21
REMARK    2  A    between atoms: C_4  and  C_9
REMARK    3  A    between atoms: N_8  and  C_11
REMARK    4  A    between atoms: C_12  and  C_18
REMARK    5  A    between atoms: C_18  and  O_19
REMARK    6  A    between atoms: S_21  and  N_24
REMARK                            x       y       z     vdW  Elec       q    Type
REMARK                         _______ _______ _______ _____ _____    ______ ____
ROOT
ATOM      1  C   UNL     1      34.180 -21.359 -18.659  0.00  0.00    +0.122 C 
ATOM      2  C   UNL     1      34.259 -20.375 -19.644  0.00  0.00    +0.024 C 
ATOM      3  C   UNL     1      35.205 -21.488 -17.720  0.00  0.00    +0.020 C 
ATOM      4  C   UNL     1      35.360 -19.521 -19.691  0.00  0.00    +0.055 C 
ATOM      5  C   UNL     1      36.306 -20.634 -17.767  0.00  0.00    +0.002 C 
ATOM      6  C   UNL     1      36.383 -19.650 -18.754  0.00  0.00    +0.005 C 
ENDROOT
BRANCH   4   9
ATOM      7  O   UNL     1      36.541 -18.246 -21.238  0.00  0.00    -0.270 OA
ATOM      8  N   UNL     1      34.231 -17.873 -21.061  0.00  0.00    -0.280 N 
ATOM      9  C   UNL     1      35.441 -18.494 -20.719  0.00  0.00    +0.250 C 
ATOM     10  H   UNL     1      33.439 -18.176 -20.561  0.00  0.00    +0.155 HD
BRANCH   8  11
ATOM     11  C   UNL     1      33.999 -16.869 -22.032  0.00  0.00    +0.057 C 
ATOM     12  C   UNL     1      33.541 -17.196 -23.308  0.00  0.00    +0.089 C 
ATOM     13  C   UNL     1      34.235 -15.536 -21.696  0.00  0.00    +0.015 C 
ATOM     14  C   UNL     1      33.320 -16.189 -24.248  0.00  0.00    +0.008 C 
ATOM     15  C   UNL     1      34.015 -14.530 -22.636  0.00  0.00    +0.001 C 
ATOM     16  C   UNL     1      33.557 -14.857 -23.912  0.00  0.00    +0.000 C 
BRANCH  12  18
ATOM     17  O   UNL     1      34.087 -19.508 -23.586  0.00  0.00    -0.245 OA
ATOM     18  C   UNL     1      33.284 -18.578 -23.693  0.00  0.00    +0.339 C 
BRANCH  18  19
ATOM     19  O   UNL     1      32.033 -18.750 -24.197  0.00  0.00    -0.477 OA
ATOM     20  H   UNL     1      31.418 -18.044 -24.175  0.00  0.00    +0.295 HD
ENDBRANCH  18  19
ENDBRANCH  12  18
ENDBRANCH   8  11
ENDBRANCH   4   9
BRANCH   1  21
ATOM     21  S   UNL     1      32.788 -22.443 -18.600  0.00  0.00    +0.064 S 
ATOM     22  O   UNL     1      31.657 -21.742 -19.171  0.00  0.00    -0.153 OA
ATOM     23  O   UNL     1      33.204 -23.731 -19.115  0.00  0.00    -0.153 OA
BRANCH  21  24
ATOM     24  N   UNL     1      32.574 -22.564 -16.905  0.00  0.00    -0.151 NA
ATOM     25  C   UNL     1      33.524 -23.461 -16.194  0.00  0.00    +0.101 C 
ATOM     26  C   UNL     1      31.166 -22.768 -16.449  0.00  0.00    +0.122 C 
ATOM     27  C   UNL     1      33.529 -23.094 -14.713  0.00  0.00    +0.045 C 
ATOM     28  C   UNL     1      31.017 -22.884 -14.951  0.00  0.00    -0.008 C 
ATOM     29  C   UNL     1      32.140 -23.073 -14.126  0.00  0.00    -0.023 C 
ATOM     30  C   UNL     1      29.739 -22.844 -14.379  0.00  0.00    -0.003 C 
ATOM     31  C   UNL     1      31.967 -23.184 -12.740  0.00  0.00    -0.004 C 
ATOM     32  C   UNL     1      29.577 -22.967 -12.999  0.00  0.00    -0.000 C 
ATOM     33  C   UNL     1      30.691 -23.134 -12.180  0.00  0.00    -0.000 C 
ENDBRANCH  21  24
ENDBRANCH   1  21
TORSDOF 6
ENDMDL
MODEL 8
REMARK VINA RESULT:     -11.0      5.718      9.256
REMARK  Name = 24941254
REMARK  6 active torsions:
REMARK  status: ('A' for Active; 'I' for Inactive)
REMARK    1  A    between atoms: C_1  and  S_21
REMARK    2  A    between atoms: C_4  and  C_9
REMARK    3  A    between atoms: N_8  and  C_11
REMARK    4  A    between atoms: C_12  and  C_18
REMARK    5  A    between atoms: C_18  and  O_19
REMARK    6  A    between atoms: S_21  and  N_24
REMARK                            x       y       z     vdW  Elec       q    Type
REMARK                         _______ _______ _______ _____ _____    ______ ____
ROOT
ATOM      1  C   UNL     1      31.785 -11.332 -21.193  0.00  0.00    +0.122 C 
ATOM      2  C   UNL     1      32.162 -12.598 -20.742  0.00  0.00    +0.024 C 
ATOM      3  C   UNL     1      32.261 -10.859 -22.416  0.00  0.00    +0.020 C 
ATOM      4  C   UNL     1      33.012 -13.389 -21.514  0.00  0.00    +0.055 C 
ATOM      5  C   UNL     1      33.112 -11.650 -23.188  0.00  0.00    +0.002 C 
ATOM      6  C   UNL     1      33.487 -12.915 -22.736  0.00  0.00    +0.005 C 
ENDROOT
BRANCH   4   9
ATOM      7  O   UNL     1      33.378 -14.948 -19.827  0.00  0.00    -0.270 OA
ATOM      8  N   UNL     1      33.765 -15.630 -22.038  0.00  0.00    -0.280 N 
ATOM      9  C   UNL     1      33.404 -14.709 -21.045  0.00  0.00    +0.250 C 
ATOM     10  H   UNL     1      33.738 -15.294 -22.963  0.00  0.00    +0.155 HD
BRANCH   8  11
ATOM     11  C   UNL     1      34.161 -16.981 -21.886  0.00  0.00    +0.057 C 
ATOM     12  C   UNL     1      33.858 -17.933 -22.860  0.00  0.00    +0.089 C 
ATOM     13  C   UNL     1      34.864 -17.354 -20.741  0.00  0.00    +0.015 C 
ATOM     14  C   UNL     1      34.260 -19.258 -22.688  0.00  0.00    +0.008 C 
ATOM     15  C   UNL     1      35.264 -18.680 -20.569  0.00  0.00    +0.001 C 
ATOM     16  C   UNL     1      34.962 -19.631 -21.543  0.00  0.00    +0.000 C 
BRANCH  12  18
ATOM     17  O   UNL     1      32.080 -18.107 -24.450  0.00  0.00    -0.245 OA
ATOM     18  C   UNL     1      33.126 -17.576 -24.069  0.00  0.00    +0.339 C 
BRANCH  18  19
ATOM     19  O   UNL     1      33.726 -16.569 -24.759  0.00  0.00    -0.477 OA
ATOM     20  H   UNL     1      34.433 -16.759 -25.343  0.00  0.00    +0.295 HD
ENDBRANCH  18  19
ENDBRANCH  12  18
ENDBRANCH   8  11
ENDBRANCH   4   9
BRANCH   1  21
ATOM     21  S   UNL     1      30.710 -10.330 -20.216  0.00  0.00    +0.064 S 
ATOM     22  O   UNL     1      29.348 -10.655 -20.582  0.00  0.00    -0.153 OA
ATOM     23  O   UNL     1      31.152 -10.413 -18.839  0.00  0.00    -0.153 OA
BRANCH  21  24
ATOM     24  N   UNL     1      31.102  -8.781 -20.833  0.00  0.00    -0.151 NA
ATOM     25  C   UNL     1      31.420  -7.741 -19.819  0.00  0.00    +0.101 C 
ATOM     26  C   UNL     1      30.187  -8.264 -21.895  0.00  0.00    +0.122 C 
ATOM     27  C   UNL     1      32.196  -6.616 -20.498  0.00  0.00    +0.045 C 
ATOM     28  C   UNL     1      30.555  -6.891 -22.405  0.00  0.00    -0.008 C 
ATOM     29  C   UNL     1      31.487  -6.092 -21.721  0.00  0.00    -0.023 C 
ATOM     30  C   UNL     1      29.927  -6.391 -23.554  0.00  0.00    -0.003 C 
ATOM     31  C   UNL     1      31.802  -4.820 -22.218  0.00  0.00    -0.004 C 
ATOM     32  C   UNL     1      30.238  -5.118 -24.032  0.00  0.00    -0.000 C 
ATOM     33  C   UNL     1      31.177  -4.334 -23.365  0.00  0.00    -0.000 C 
ENDBRANCH  21  24
ENDBRANCH   1  21
TORSDOF 6
ENDMDL
MODEL 9
REMARK VINA RESULT:     -11.0      1.296      2.050
REMARK  Name = 24941254
REMARK  6 active torsions:
REMARK  status: ('A' for Active; 'I' for Inactive)
REMARK    1  A    between atoms: C_1  and  S_21
REMARK    2  A    between atoms: C_4  and  C_9
REMARK    3  A    between atoms: N_8  and  C_11
REMARK    4  A    between atoms: C_12  and  C_18
REMARK    5  A    between atoms: C_18  and  O_19
REMARK    6  A    between atoms: S_21  and  N_24
REMARK                            x       y       z     vdW  Elec       q    Type
REMARK                         _______ _______ _______ _____ _____    ______ ____
ROOT
ATOM      1  C   UNL     1      34.220 -19.453 -20.188  0.00  0.00    +0.122 C 
ATOM      2  C   UNL     1      34.357 -20.488 -19.263  0.00  0.00    +0.024 C 
ATOM      3  C   UNL     1      32.958 -19.121 -20.680  0.00  0.00    +0.020 C 
ATOM      4  C   UNL     1      33.232 -21.190 -18.830  0.00  0.00    +0.055 C 
ATOM      5  C   UNL     1      31.833 -19.823 -20.248  0.00  0.00    +0.002 C 
ATOM      6  C   UNL     1      31.971 -20.858 -19.322  0.00  0.00    +0.005 C 
ENDROOT
BRANCH   4   9
ATOM      7  O   UNL     1      33.137 -23.434 -18.223  0.00  0.00    -0.270 OA
ATOM      8  N   UNL     1      33.803 -21.892 -16.584  0.00  0.00    -0.280 N 
ATOM      9  C   UNL     1      33.375 -22.269 -17.865  0.00  0.00    +0.250 C 
ATOM     10  H   UNL     1      33.951 -20.928 -16.450  0.00  0.00    +0.155 HD
BRANCH   8  11
ATOM     11  C   UNL     1      34.053 -22.716 -15.460  0.00  0.00    +0.057 C 
ATOM     12  C   UNL     1      33.018 -23.101 -14.607  0.00  0.00    +0.089 C 
ATOM     13  C   UNL     1      35.357 -23.143 -15.211  0.00  0.00    +0.015 C 
ATOM     14  C   UNL     1      33.289 -23.913 -13.505  0.00  0.00    +0.008 C 
ATOM     15  C   UNL     1      35.627 -23.954 -14.108  0.00  0.00    +0.001 C 
ATOM     16  C   UNL     1      34.593 -24.339 -13.256  0.00  0.00    +0.000 C 
BRANCH  12  18
ATOM     17  O   UNL     1      30.991 -22.897 -15.860  0.00  0.00    -0.245 OA
ATOM     18  C   UNL     1      31.644 -22.673 -14.838  0.00  0.00    +0.339 C 
BRANCH  18  19
ATOM     19  O   UNL     1      31.134 -21.980 -13.785  0.00  0.00    -0.477 OA
ATOM     20  H   UNL     1      31.234 -21.049 -13.744  0.00  0.00    +0.295 HD
ENDBRANCH  18  19
ENDBRANCH  12  18
ENDBRANCH   8  11
ENDBRANCH   4   9
BRANCH   1  21
ATOM     21  S   UNL     1      35.643 -18.565 -20.737  0.00  0.00    +0.064 S 
ATOM     22  O   UNL     1      36.484 -18.319 -19.585  0.00  0.00    -0.153 OA
ATOM     23  O   UNL     1      36.164 -19.239 -21.908  0.00  0.00    -0.153 OA
BRANCH  21  24
ATOM     24  N   UNL     1      34.911 -17.095 -21.221  0.00  0.00    -0.151 NA
ATOM     25  C   UNL     1      33.981 -16.479 -20.237  0.00  0.00    +0.101 C 
ATOM     26  C   UNL     1      34.348 -17.084 -22.605  0.00  0.00    +0.122 C 
ATOM     27  C   UNL     1      33.808 -15.003 -20.585  0.00  0.00    +0.045 C 
ATOM     28  C   UNL     1      33.698 -15.777 -22.992  0.00  0.00    -0.008 C 
ATOM     29  C   UNL     1      33.410 -14.799 -22.024  0.00  0.00    -0.023 C 
ATOM     30  C   UNL     1      33.340 -15.553 -24.328  0.00  0.00    -0.003 C 
ATOM     31  C   UNL     1      32.801 -13.599 -22.416  0.00  0.00    -0.004 C 
ATOM     32  C   UNL     1      32.723 -14.360 -24.705  0.00  0.00    -0.000 C 
ATOM     33  C   UNL     1      32.456 -13.383 -23.749  0.00  0.00    -0.000 C 
ENDBRANCH  21  24
ENDBRANCH   1  21
TORSDOF 6
ENDMDL
