MODEL 1
REMARK VINA RESULT:     -11.7      0.000      0.000
REMARK  Name = 656913
REMARK  7 active torsions:
REMARK  status: ('A' for Active; 'I' for Inactive)
REMARK    1  A    between atoms: N_3  and  C_22
REMARK    2  A    between atoms: N_4  and  C_11
REMARK    3  A    between atoms: C_11  and  C_14
REMARK    4  A    between atoms: C_14  and  C_17
REMARK    5  A    between atoms: C_22  and  C_25
REMARK    6  A    between atoms: N_24  and  C_27
REMARK    7  A    between atoms: C_27  and  C_29
REMARK                            x       y       z     vdW  Elec       q    Type
REMARK                         _______ _______ _______ _____ _____    ______ ____
ROOT
ATOM      1 CL   UNL     1      37.323 -23.401 -10.898  0.00  0.00    -0.064 Cl
ATOM      2  O   UNL     1      34.562 -25.323 -14.632  0.00  0.00    -0.266 OA
ATOM      3  N   UNL     1      35.882 -24.435 -12.909  0.00  0.00    -0.233 N 
ATOM      4  N   UNL     1      32.236 -24.843 -13.362  0.00  0.00    -0.310 N 
ATOM      5  N   UNL     1      33.454 -23.932 -11.578  0.00  0.00    -0.223 NA
ATOM      6  C   UNL     1      33.415 -24.492 -12.754  0.00  0.00    +0.183 C 
ATOM      7  C   UNL     1      34.688 -24.794 -13.533  0.00  0.00    +0.285 C 
ATOM      8  C   UNL     1      35.844 -23.844 -11.661  0.00  0.00    +0.133 C 
ATOM      9  C   UNL     1      34.674 -23.617 -11.055  0.00  0.00    +0.127 C 
ATOM     10  H   UNL     1      32.266 -25.264 -14.252  0.00  0.00    +0.149 HD
ENDROOT
BRANCH   4  11
ATOM     11  C   UNL     1      30.966 -24.619 -12.748  0.00  0.00    +0.162 C 
BRANCH  11  14
ATOM     12  F   UNL     1      31.499 -22.483 -13.564  0.00  0.00    -0.196 F 
ATOM     13  F   UNL     1      30.057 -22.608 -11.948  0.00  0.00    -0.196 F 
ATOM     14  C   UNL     1      30.449 -23.225 -13.102  0.00  0.00    +0.317 C 
BRANCH  14  17
ATOM     15  O   UNL     1      29.331 -25.613 -13.903  0.00  0.00    -0.163 OA
ATOM     16  N   UNL     1      28.853 -24.554 -14.429  0.00  0.00    -0.128 N 
ATOM     17  C   UNL     1      29.328 -23.307 -14.109  0.00  0.00    +0.142 C 
ATOM     18  C   UNL     1      28.817 -22.152 -14.670  0.00  0.00    +0.022 C 
ATOM     19  C   UNL     1      27.827 -24.647 -15.349  0.00  0.00    +0.121 C 
ATOM     20  C   UNL     1      27.784 -22.257 -15.596  0.00  0.00    +0.003 C 
ATOM     21  C   UNL     1      27.285 -23.510 -15.938  0.00  0.00    +0.022 C 
ENDBRANCH  14  17
ENDBRANCH  11  14
ENDBRANCH   4  11
BRANCH   3  22
ATOM     22  C   UNL     1      37.144 -24.695 -13.593  0.00  0.00    +0.184 C 
BRANCH  22  25
ATOM     23  O   UNL     1      38.520 -23.300 -15.008  0.00  0.00    -0.273 OA
ATOM     24  N   UNL     1      36.216 -22.997 -15.012  0.00  0.00    -0.299 N 
ATOM     25  C   UNL     1      37.396 -23.611 -14.620  0.00  0.00    +0.243 C 
ATOM     26  H   UNL     1      35.369 -23.329 -14.635  0.00  0.00    +0.150 HD
BRANCH  24  27
ATOM     27  C   UNL     1      36.166 -21.895 -15.946  0.00  0.00    +0.119 C 
BRANCH  27  29
ATOM     28  F   UNL     1      35.998 -20.754 -18.527  0.00  0.00    -0.204 F 
ATOM     29  C   UNL     1      34.905 -21.904 -16.760  0.00  0.00    +0.025 C 
ATOM     30  C   UNL     1      34.893 -21.324 -18.023  0.00  0.00    +0.138 C 
ATOM     31  C   UNL     1      33.759 -22.493 -16.239  0.00  0.00    -0.000 C 
ATOM     32  C   UNL     1      33.720 -21.334 -18.776  0.00  0.00    +0.029 C 
ATOM     33  C   UNL     1      32.586 -22.504 -16.993  0.00  0.00    -0.000 C 
ATOM     34  C   UNL     1      32.566 -21.925 -18.261  0.00  0.00    +0.002 C 
ENDBRANCH  27  29
ENDBRANCH  24  27
ENDBRANCH  22  25
ENDBRANCH   3  22
TORSDOF 7
ENDMDL
MODEL 2
REMARK VINA RESULT:     -11.6     10.728     13.498
REMARK  Name = 656913
REMARK  7 active torsions:
REMARK  status: ('A' for Active; 'I' for Inactive)
REMARK    1  A    between atoms: N_3  and  C_22
REMARK    2  A    between atoms: N_4  and  C_11
REMARK    3  A    between atoms: C_11  and  C_14
REMARK    4  A    between atoms: C_14  and  C_17
REMARK    5  A    between atoms: C_22  and  C_25
REMARK    6  A    between atoms: N_24  and  C_27
REMARK    7  A    between atoms: C_27  and  C_29
REMARK                            x       y       z     vdW  Elec       q    Type
REMARK                         _______ _______ _______ _____ _____    ______ ____
ROOT
ATOM      1 CL   UNL     1      32.023 -12.616 -25.731  0.00  0.00    -0.064 Cl
ATOM      2  O   UNL     1      34.116 -13.761 -21.308  0.00  0.00    -0.266 OA
ATOM      3  N   UNL     1      33.138 -13.190 -23.361  0.00  0.00    -0.233 N 
ATOM      4  N   UNL     1      34.195 -16.396 -21.856  0.00  0.00    -0.310 N 
ATOM      5  N   UNL     1      33.219 -15.943 -23.938  0.00  0.00    -0.223 NA
ATOM      6  C   UNL     1      33.678 -15.534 -22.789  0.00  0.00    +0.183 C 
ATOM      7  C   UNL     1      33.667 -14.060 -22.407  0.00  0.00    +0.285 C 
ATOM      8  C   UNL     1      32.672 -13.697 -24.558  0.00  0.00    +0.133 C 
ATOM      9  C   UNL     1      32.724 -15.010 -24.802  0.00  0.00    +0.127 C 
ATOM     10  H   UNL     1      34.528 -16.031 -21.003  0.00  0.00    +0.149 HD
ENDROOT
BRANCH   4  11
ATOM     11  C   UNL     1      34.269 -17.806 -22.078  0.00  0.00    +0.162 C 
BRANCH  11  14
ATOM     12  F   UNL     1      35.522 -17.502 -20.115  0.00  0.00    -0.196 F 
ATOM     13  F   UNL     1      36.149 -19.075 -21.472  0.00  0.00    -0.196 F 
ATOM     14  C   UNL     1      35.041 -18.478 -20.943  0.00  0.00    +0.317 C 
BRANCH  14  17
ATOM     15  O   UNL     1      36.036 -20.291 -19.123  0.00  0.00    -0.163 OA
ATOM     16  N   UNL     1      34.777 -20.317 -19.324  0.00  0.00    -0.128 N 
ATOM     17  C   UNL     1      34.165 -19.462 -20.206  0.00  0.00    +0.142 C 
ATOM     18  C   UNL     1      32.802 -19.479 -20.431  0.00  0.00    +0.022 C 
ATOM     19  C   UNL     1      33.991 -21.225 -18.641  0.00  0.00    +0.121 C 
ATOM     20  C   UNL     1      32.020 -20.397 -19.738  0.00  0.00    +0.003 C 
ATOM     21  C   UNL     1      32.615 -21.275 -18.838  0.00  0.00    +0.022 C 
ENDBRANCH  14  17
ENDBRANCH  11  14
ENDBRANCH   4  11
BRANCH   3  22
ATOM     22  C   UNL     1      33.092 -11.761 -23.067  0.00  0.00    +0.184 C 
BRANCH  22  25
ATOM     23  O   UNL     1      31.278 -12.361 -21.588  0.00  0.00    -0.273 OA
ATOM     24  N   UNL     1      31.749 -10.115 -21.952  0.00  0.00    -0.299 N 
ATOM     25  C   UNL     1      31.953 -11.478 -22.111  0.00  0.00    +0.243 C 
ATOM     26  H   UNL     1      32.353  -9.494 -22.420  0.00  0.00    +0.150 HD
BRANCH  24  27
ATOM     27  C   UNL     1      30.694  -9.561 -21.132  0.00  0.00    +0.119 C 
BRANCH  27  29
ATOM     28  F   UNL     1      32.003  -8.655 -18.797  0.00  0.00    -0.204 F 
ATOM     29  C   UNL     1      30.919  -8.106 -20.836  0.00  0.00    +0.025 C 
ATOM     30  C   UNL     1      31.571  -7.732 -19.667  0.00  0.00    +0.138 C 
ATOM     31  C   UNL     1      30.471  -7.147 -21.737  0.00  0.00    -0.000 C 
ATOM     32  C   UNL     1      31.778  -6.380 -19.396  0.00  0.00    +0.029 C 
ATOM     33  C   UNL     1      30.679  -5.795 -21.465  0.00  0.00    -0.000 C 
ATOM     34  C   UNL     1      31.332  -5.411 -20.295  0.00  0.00    +0.002 C 
ENDBRANCH  27  29
ENDBRANCH  24  27
ENDBRANCH  22  25
ENDBRANCH   3  22
TORSDOF 7
ENDMDL
MODEL 3
REMARK VINA RESULT:     -11.5      3.189      6.296
REMARK  Name = 656913
REMARK  7 active torsions:
REMARK  status: ('A' for Active; 'I' for Inactive)
REMARK    1  A    between atoms: N_3  and  C_22
REMARK    2  A    between atoms: N_4  and  C_11
REMARK    3  A    between atoms: C_11  and  C_14
REMARK    4  A    between atoms: C_14  and  C_17
REMARK    5  A    between atoms: C_22  and  C_25
REMARK    6  A    between atoms: N_24  and  C_27
REMARK    7  A    between atoms: C_27  and  C_29
REMARK                            x       y       z     vdW  Elec       q    Type
REMARK                         _______ _______ _______ _____ _____    ______ ____
ROOT
ATOM      1 CL   UNL     1      28.732 -23.714 -15.505  0.00  0.00    -0.064 Cl
ATOM      2  O   UNL     1      33.518 -22.296 -14.925  0.00  0.00    -0.266 OA
ATOM      3  N   UNL     1      31.284 -22.939 -15.229  0.00  0.00    -0.233 N 
ATOM      4  N   UNL     1      33.731 -23.466 -12.509  0.00  0.00    -0.310 N 
ATOM      5  N   UNL     1      31.502 -24.164 -12.704  0.00  0.00    -0.223 NA
ATOM      6  C   UNL     1      32.541 -23.543 -13.187  0.00  0.00    +0.183 C 
ATOM      7  C   UNL     1      32.497 -22.857 -14.546  0.00  0.00    +0.285 C 
ATOM      8  C   UNL     1      30.226 -23.616 -14.654  0.00  0.00    +0.133 C 
ATOM      9  C   UNL     1      30.361 -24.188 -13.453  0.00  0.00    +0.127 C 
ATOM     10  H   UNL     1      34.484 -22.984 -12.922  0.00  0.00    +0.149 HD
ENDROOT
BRANCH   4  11
ATOM     11  C   UNL     1      33.916 -24.063 -11.224  0.00  0.00    +0.162 C 
BRANCH  11  14
ATOM     12  F   UNL     1      35.471 -24.371  -9.491  0.00  0.00    -0.196 F 
ATOM     13  F   UNL     1      35.604 -22.538 -10.644  0.00  0.00    -0.196 F 
ATOM     14  C   UNL     1      35.361 -23.877 -10.760  0.00  0.00    +0.317 C 
BRANCH  14  17
ATOM     15  O   UNL     1      38.016 -23.166 -10.947  0.00  0.00    -0.163 OA
ATOM     16  N   UNL     1      37.621 -24.104 -11.716  0.00  0.00    -0.128 N 
ATOM     17  C   UNL     1      36.321 -24.545 -11.713  0.00  0.00    +0.142 C 
ATOM     18  C   UNL     1      35.881 -25.561 -12.540  0.00  0.00    +0.022 C 
ATOM     19  C   UNL     1      38.514 -24.704 -12.582  0.00  0.00    +0.121 C 
ATOM     20  C   UNL     1      36.789 -26.159 -13.408  0.00  0.00    +0.003 C 
ATOM     21  C   UNL     1      38.112 -25.731 -13.431  0.00  0.00    +0.022 C 
ENDBRANCH  14  17
ENDBRANCH  11  14
ENDBRANCH   4  11
BRANCH   3  22
ATOM     22  C   UNL     1      31.164 -22.305 -16.537  0.00  0.00    +0.184 C 
BRANCH  22  25
ATOM     23  O   UNL     1      32.601 -23.922 -17.614  0.00  0.00    -0.273 OA
ATOM     24  N   UNL     1      33.014 -21.656 -17.922  0.00  0.00    -0.299 N 
ATOM     25  C   UNL     1      32.314 -22.743 -17.419  0.00  0.00    +0.243 C 
ATOM     26  H   UNL     1      32.693 -20.751 -17.701  0.00  0.00    +0.150 HD
BRANCH  24  27
ATOM     27  C   UNL     1      34.189 -21.784 -18.755  0.00  0.00    +0.119 C 
BRANCH  27  29
ATOM     28  F   UNL     1      32.228 -20.266 -20.111  0.00  0.00    -0.204 F 
ATOM     29  C   UNL     1      34.504 -20.508 -19.481  0.00  0.00    +0.025 C 
ATOM     30  C   UNL     1      33.489 -19.812 -20.127  0.00  0.00    +0.138 C 
ATOM     31  C   UNL     1      35.811 -20.036 -19.500  0.00  0.00    -0.000 C 
ATOM     32  C   UNL     1      33.785 -18.628 -20.801  0.00  0.00    +0.029 C 
ATOM     33  C   UNL     1      36.107 -18.852 -20.173  0.00  0.00    -0.000 C 
ATOM     34  C   UNL     1      35.095 -18.147 -20.824  0.00  0.00    +0.002 C 
ENDBRANCH  27  29
ENDBRANCH  24  27
ENDBRANCH  22  25
ENDBRANCH   3  22
TORSDOF 7
ENDMDL
MODEL 4
REMARK VINA RESULT:     -11.5      3.451      7.445
REMARK  Name = 656913
REMARK  7 active torsions:
REMARK  status: ('A' for Active; 'I' for Inactive)
REMARK    1  A    between atoms: N_3  and  C_22
REMARK    2  A    between atoms: N_4  and  C_11
REMARK    3  A    between atoms: C_11  and  C_14
REMARK    4  A    between atoms: C_14  and  C_17
REMARK    5  A    between atoms: C_22  and  C_25
REMARK    6  A    between atoms: N_24  and  C_27
REMARK    7  A    between atoms: C_27  and  C_29
REMARK                            x       y       z     vdW  Elec       q    Type
REMARK                         _______ _______ _______ _____ _____    ______ ____
ROOT
ATOM      1 CL   UNL     1      28.648 -23.421 -14.201  0.00  0.00    -0.064 Cl
ATOM      2  O   UNL     1      33.488 -23.855 -15.483  0.00  0.00    -0.266 OA
ATOM      3  N   UNL     1      31.235 -23.677 -14.857  0.00  0.00    -0.233 N 
ATOM      4  N   UNL     1      33.239 -22.181 -17.578  0.00  0.00    -0.310 N 
ATOM      5  N   UNL     1      30.971 -21.928 -17.045  0.00  0.00    -0.223 NA
ATOM      6  C   UNL     1      32.139 -22.452 -16.804  0.00  0.00    +0.183 C 
ATOM      7  C   UNL     1      32.358 -23.406 -15.639  0.00  0.00    +0.285 C 
ATOM      8  C   UNL     1      30.029 -23.083 -15.173  0.00  0.00    +0.133 C 
ATOM      9  C   UNL     1      29.936 -22.256 -16.219  0.00  0.00    +0.127 C 
ATOM     10  H   UNL     1      34.099 -22.606 -17.350  0.00  0.00    +0.149 HD
ENDROOT
BRANCH   4  11
ATOM     11  C   UNL     1      33.182 -21.304 -18.705  0.00  0.00    +0.162 C 
BRANCH  11  14
ATOM     12  F   UNL     1      35.253 -22.003 -19.562  0.00  0.00    -0.196 F 
ATOM     13  F   UNL     1      35.271 -20.492 -18.006  0.00  0.00    -0.196 F 
ATOM     14  C   UNL     1      34.593 -20.890 -19.122  0.00  0.00    +0.317 C 
BRANCH  14  17
ATOM     15  O   UNL     1      36.602 -19.031 -19.440  0.00  0.00    -0.163 OA
ATOM     16  N   UNL     1      35.608 -18.939 -20.234  0.00  0.00    -0.128 N 
ATOM     17  C   UNL     1      34.547 -19.808 -20.173  0.00  0.00    +0.142 C 
ATOM     18  C   UNL     1      33.466 -19.720 -21.029  0.00  0.00    +0.022 C 
ATOM     19  C   UNL     1      35.583 -17.941 -21.189  0.00  0.00    +0.121 C 
ATOM     20  C   UNL     1      33.451 -18.712 -21.987  0.00  0.00    +0.003 C 
ATOM     21  C   UNL     1      34.514 -17.817 -22.070  0.00  0.00    +0.022 C 
ENDBRANCH  14  17
ENDBRANCH  11  14
ENDBRANCH   4  11
BRANCH   3  22
ATOM     22  C   UNL     1      31.365 -24.585 -13.722  0.00  0.00    +0.184 C 
BRANCH  22  25
ATOM     23  O   UNL     1      32.009 -23.035 -11.983  0.00  0.00    -0.273 OA
ATOM     24  N   UNL     1      33.547 -24.611 -12.724  0.00  0.00    -0.299 N 
ATOM     25  C   UNL     1      32.309 -23.986 -12.700  0.00  0.00    +0.243 C 
ATOM     26  H   UNL     1      33.678 -25.367 -13.341  0.00  0.00    +0.150 HD
BRANCH  24  27
ATOM     27  C   UNL     1      34.655 -24.209 -11.886  0.00  0.00    +0.119 C 
BRANCH  27  29
ATOM     28  F   UNL     1      36.545 -26.139 -11.053  0.00  0.00    -0.204 F 
ATOM     29  C   UNL     1      35.977 -24.404 -12.571  0.00  0.00    +0.025 C 
ATOM     30  C   UNL     1      36.859 -25.373 -12.108  0.00  0.00    +0.138 C 
ATOM     31  C   UNL     1      36.305 -23.610 -13.664  0.00  0.00    -0.000 C 
ATOM     32  C   UNL     1      38.085 -25.552 -12.746  0.00  0.00    +0.029 C 
ATOM     33  C   UNL     1      37.532 -23.790 -14.303  0.00  0.00    -0.000 C 
ATOM     34  C   UNL     1      38.422 -24.760 -13.844  0.00  0.00    +0.002 C 
ENDBRANCH  27  29
ENDBRANCH  24  27
ENDBRANCH  22  25
ENDBRANCH   3  22
TORSDOF 7
ENDMDL
MODEL 5
REMARK VINA RESULT:     -11.5     12.532     15.604
REMARK  Name = 656913
REMARK  7 active torsions:
REMARK  status: ('A' for Active; 'I' for Inactive)
REMARK    1  A    between atoms: N_3  and  C_22
REMARK    2  A    between atoms: N_4  and  C_11
REMARK    3  A    between atoms: C_11  and  C_14
REMARK    4  A    between atoms: C_14  and  C_17
REMARK    5  A    between atoms: C_22  and  C_25
REMARK    6  A    between atoms: N_24  and  C_27
REMARK    7  A    between atoms: C_27  and  C_29
REMARK                            x       y       z     vdW  Elec       q    Type
REMARK                         _______ _______ _______ _____ _____    ______ ____
ROOT
ATOM      1 CL   UNL     1      31.590 -14.877 -26.066  0.00  0.00    -0.064 Cl
ATOM      2  O   UNL     1      33.653 -12.600 -22.089  0.00  0.00    -0.266 OA
ATOM      3  N   UNL     1      32.687 -13.694 -23.925  0.00  0.00    -0.233 N 
ATOM      4  N   UNL     1      34.067 -10.301 -23.430  0.00  0.00    -0.310 N 
ATOM      5  N   UNL     1      33.118 -11.294 -25.329  0.00  0.00    -0.223 NA
ATOM      6  C   UNL     1      33.482 -11.358 -24.080  0.00  0.00    +0.183 C 
ATOM      7  C   UNL     1      33.281 -12.623 -23.257  0.00  0.00    +0.285 C 
ATOM      8  C   UNL     1      32.325 -13.551 -25.250  0.00  0.00    +0.133 C 
ATOM      9  C   UNL     1      32.543 -12.397 -25.890  0.00  0.00    +0.127 C 
ATOM     10  H   UNL     1      34.323 -10.406 -22.484  0.00  0.00    +0.149 HD
ENDROOT
BRANCH   4  11
ATOM     11  C   UNL     1      34.318  -9.052 -24.077  0.00  0.00    +0.162 C 
BRANCH  11  14
ATOM     12  F   UNL     1      34.869  -7.437 -22.465  0.00  0.00    -0.196 F 
ATOM     13  F   UNL     1      32.932  -8.401 -22.298  0.00  0.00    -0.196 F 
ATOM     14  C   UNL     1      33.819  -7.899 -23.207  0.00  0.00    +0.317 C 
BRANCH  14  17
ATOM     15  O   UNL     1      31.628  -8.324 -24.824  0.00  0.00    -0.163 OA
ATOM     16  N   UNL     1      32.115  -7.145 -24.821  0.00  0.00    -0.128 N 
ATOM     17  C   UNL     1      33.204  -6.812 -24.055  0.00  0.00    +0.142 C 
ATOM     18  C   UNL     1      33.740  -5.538 -24.041  0.00  0.00    +0.022 C 
ATOM     19  C   UNL     1      31.540  -6.162 -25.603  0.00  0.00    +0.121 C 
ATOM     20  C   UNL     1      33.153  -4.556 -24.833  0.00  0.00    +0.003 C 
ATOM     21  C   UNL     1      32.048  -4.868 -25.618  0.00  0.00    +0.022 C 
ENDBRANCH  14  17
ENDBRANCH  11  14
ENDBRANCH   4  11
BRANCH   3  22
ATOM     22  C   UNL     1      32.462 -14.942 -23.202  0.00  0.00    +0.184 C 
BRANCH  22  25
ATOM     23  O   UNL     1      34.219 -16.009 -24.472  0.00  0.00    -0.273 OA
ATOM     24  N   UNL     1      33.973 -16.527 -22.220  0.00  0.00    -0.299 N 
ATOM     25  C   UNL     1      33.652 -15.858 -23.393  0.00  0.00    +0.243 C 
ATOM     26  H   UNL     1      33.450 -16.327 -21.410  0.00  0.00    +0.150 HD
BRANCH  24  27
ATOM     27  C   UNL     1      35.037 -17.501 -22.127  0.00  0.00    +0.119 C 
BRANCH  27  29
ATOM     28  F   UNL     1      37.005 -18.709 -20.497  0.00  0.00    -0.204 F 
ATOM     29  C   UNL     1      34.721 -18.585 -21.137  0.00  0.00    +0.025 C 
ATOM     30  C   UNL     1      35.740 -19.134 -20.366  0.00  0.00    +0.138 C 
ATOM     31  C   UNL     1      33.411 -19.028 -21.001  0.00  0.00    -0.000 C 
ATOM     32  C   UNL     1      35.444 -20.140 -19.447  0.00  0.00    +0.029 C 
ATOM     33  C   UNL     1      33.115 -20.033 -20.081  0.00  0.00    -0.000 C 
ATOM     34  C   UNL     1      34.131 -20.590 -19.305  0.00  0.00    +0.002 C 
ENDBRANCH  27  29
ENDBRANCH  24  27
ENDBRANCH  22  25
ENDBRANCH   3  22
TORSDOF 7
ENDMDL
MODEL 6
REMARK VINA RESULT:     -11.4     10.614     13.273
REMARK  Name = 656913
REMARK  7 active torsions:
REMARK  status: ('A' for Active; 'I' for Inactive)
REMARK    1  A    between atoms: N_3  and  C_22
REMARK    2  A    between atoms: N_4  and  C_11
REMARK    3  A    between atoms: C_11  and  C_14
REMARK    4  A    between atoms: C_14  and  C_17
REMARK    5  A    between atoms: C_22  and  C_25
REMARK    6  A    between atoms: N_24  and  C_27
REMARK    7  A    between atoms: C_27  and  C_29
REMARK                            x       y       z     vdW  Elec       q    Type
REMARK                         _______ _______ _______ _____ _____    ______ ____
ROOT
ATOM      1 CL   UNL     1      31.457 -11.738 -21.199  0.00  0.00    -0.064 Cl
ATOM      2  O   UNL     1      33.339 -15.516 -23.927  0.00  0.00    -0.266 OA
ATOM      3  N   UNL     1      32.446 -13.738 -22.686  0.00  0.00    -0.233 N 
ATOM      4  N   UNL     1      34.527 -16.661 -21.798  0.00  0.00    -0.310 N 
ATOM      5  N   UNL     1      33.686 -14.931 -20.459  0.00  0.00    -0.223 NA
ATOM      6  C   UNL     1      33.813 -15.503 -21.623  0.00  0.00    +0.183 C 
ATOM      7  C   UNL     1      33.170 -14.916 -22.872  0.00  0.00    +0.285 C 
ATOM      8  C   UNL     1      32.355 -13.191 -21.421  0.00  0.00    +0.133 C 
ATOM      9  C   UNL     1      32.955 -13.781 -20.383  0.00  0.00    +0.127 C 
ATOM     10  H   UNL     1      34.590 -17.050 -22.701  0.00  0.00    +0.149 HD
ENDROOT
BRANCH   4  11
ATOM     11  C   UNL     1      35.184 -17.324 -20.716  0.00  0.00    +0.162 C 
BRANCH  11  14
ATOM     12  F   UNL     1      36.813 -18.986 -21.023  0.00  0.00    -0.196 F 
ATOM     13  F   UNL     1      35.132 -18.964 -22.394  0.00  0.00    -0.196 F 
ATOM     14  C   UNL     1      35.463 -18.781 -21.082  0.00  0.00    +0.317 C 
BRANCH  14  17
ATOM     15  O   UNL     1      32.731 -19.113 -21.216  0.00  0.00    -0.163 OA
ATOM     16  N   UNL     1      33.347 -19.799 -20.334  0.00  0.00    -0.128 N 
ATOM     17  C   UNL     1      34.708 -19.719 -20.173  0.00  0.00    +0.142 C 
ATOM     18  C   UNL     1      35.387 -20.458 -19.223  0.00  0.00    +0.022 C 
ATOM     19  C   UNL     1      32.639 -20.652 -19.510  0.00  0.00    +0.121 C 
ATOM     20  C   UNL     1      34.664 -21.314 -18.398  0.00  0.00    +0.003 C 
ATOM     21  C   UNL     1      33.284 -21.414 -18.541  0.00  0.00    +0.022 C 
ENDBRANCH  14  17
ENDBRANCH  11  14
ENDBRANCH   4  11
BRANCH   3  22
ATOM     22  C   UNL     1      31.803 -13.113 -23.837  0.00  0.00    +0.184 C 
BRANCH  22  25
ATOM     23  O   UNL     1      33.374 -12.629 -25.608  0.00  0.00    -0.273 OA
ATOM     24  N   UNL     1      33.042 -11.060 -23.926  0.00  0.00    -0.299 N 
ATOM     25  C   UNL     1      32.810 -12.262 -24.580  0.00  0.00    +0.243 C 
ATOM     26  H   UNL     1      32.531 -10.868 -23.106  0.00  0.00    +0.150 HD
BRANCH  24  27
ATOM     27  C   UNL     1      33.994 -10.076 -24.388  0.00  0.00    +0.119 C 
BRANCH  27  29
ATOM     28  F   UNL     1      31.599  -8.746 -25.084  0.00  0.00    -0.204 F 
ATOM     29  C   UNL     1      33.657  -8.696 -23.901  0.00  0.00    +0.025 C 
ATOM     30  C   UNL     1      32.460  -8.102 -24.283  0.00  0.00    +0.138 C 
ATOM     31  C   UNL     1      34.549  -8.026 -23.072  0.00  0.00    -0.000 C 
ATOM     32  C   UNL     1      32.150  -6.821 -23.829  0.00  0.00    +0.029 C 
ATOM     33  C   UNL     1      34.238  -6.745 -22.617  0.00  0.00    -0.000 C 
ATOM     34  C   UNL     1      33.039  -6.142 -22.995  0.00  0.00    +0.002 C 
ENDBRANCH  27  29
ENDBRANCH  24  27
ENDBRANCH  22  25
ENDBRANCH   3  22
TORSDOF 7
ENDMDL
MODEL 7
REMARK VINA RESULT:     -11.4      2.901      6.696
REMARK  Name = 656913
REMARK  7 active torsions:
REMARK  status: ('A' for Active; 'I' for Inactive)
REMARK    1  A    between atoms: N_3  and  C_22
REMARK    2  A    between atoms: N_4  and  C_11
REMARK    3  A    between atoms: C_11  and  C_14
REMARK    4  A    between atoms: C_14  and  C_17
REMARK    5  A    between atoms: C_22  and  C_25
REMARK    6  A    between atoms: N_24  and  C_27
REMARK    7  A    between atoms: C_27  and  C_29
REMARK                            x       y       z     vdW  Elec       q    Type
REMARK                         _______ _______ _______ _____ _____    ______ ____
ROOT
ATOM      1 CL   UNL     1      37.036 -24.040 -12.158  0.00  0.00    -0.064 Cl
ATOM      2  O   UNL     1      33.105 -23.783 -15.279  0.00  0.00    -0.266 OA
ATOM      3  N   UNL     1      34.919 -23.926 -13.800  0.00  0.00    -0.233 N 
ATOM      4  N   UNL     1      34.351 -22.080 -16.952  0.00  0.00    -0.310 N 
ATOM      5  N   UNL     1      36.225 -22.146 -15.545  0.00  0.00    -0.223 NA
ATOM      6  C   UNL     1      35.011 -22.521 -15.833  0.00  0.00    +0.183 C 
ATOM      7  C   UNL     1      34.242 -23.482 -14.936  0.00  0.00    +0.285 C 
ATOM      8  C   UNL     1      36.206 -23.485 -13.562  0.00  0.00    +0.133 C 
ATOM      9  C   UNL     1      36.800 -22.639 -14.410  0.00  0.00    +0.127 C 
ATOM     10  H   UNL     1      33.433 -22.397 -17.119  0.00  0.00    +0.149 HD
ENDROOT
BRANCH   4  11
ATOM     11  C   UNL     1      34.949 -21.176 -17.883  0.00  0.00    +0.162 C 
BRANCH  11  14
ATOM     12  F   UNL     1      32.769 -20.766 -18.653  0.00  0.00    -0.196 F 
ATOM     13  F   UNL     1      33.976 -22.184 -19.766  0.00  0.00    -0.196 F 
ATOM     14  C   UNL     1      34.041 -20.995 -19.098  0.00  0.00    +0.317 C 
BRANCH  14  17
ATOM     15  O   UNL     1      32.422 -19.674 -20.895  0.00  0.00    -0.163 OA
ATOM     16  N   UNL     1      33.639 -19.295 -20.838  0.00  0.00    -0.128 N 
ATOM     17  C   UNL     1      34.540 -19.877 -19.981  0.00  0.00    +0.142 C 
ATOM     18  C   UNL     1      35.860 -19.475 -19.908  0.00  0.00    +0.022 C 
ATOM     19  C   UNL     1      34.079 -18.271 -21.653  0.00  0.00    +0.121 C 
ATOM     20  C   UNL     1      36.293 -18.443 -20.734  0.00  0.00    +0.003 C 
ATOM     21  C   UNL     1      35.400 -17.836 -21.611  0.00  0.00    +0.022 C 
ENDBRANCH  14  17
ENDBRANCH  11  14
ENDBRANCH   4  11
BRANCH   3  22
ATOM     22  C   UNL     1      34.246 -24.847 -12.890  0.00  0.00    +0.184 C 
BRANCH  22  25
ATOM     23  O   UNL     1      33.045 -23.265 -11.514  0.00  0.00    -0.273 OA
ATOM     24  N   UNL     1      31.849 -24.786 -12.802  0.00  0.00    -0.299 N 
ATOM     25  C   UNL     1      33.006 -24.186 -12.326  0.00  0.00    +0.243 C 
ATOM     26  H   UNL     1      31.937 -25.519 -13.454  0.00  0.00    +0.150 HD
BRANCH  24  27
ATOM     27  C   UNL     1      30.522 -24.387 -12.390  0.00  0.00    +0.119 C 
BRANCH  27  29
ATOM     28  F   UNL     1      30.968 -21.921 -13.697  0.00  0.00    -0.204 F 
ATOM     29  C   UNL     1      29.691 -23.918 -13.549  0.00  0.00    +0.025 C 
ATOM     30  C   UNL     1      29.967 -22.693 -14.145  0.00  0.00    +0.138 C 
ATOM     31  C   UNL     1      28.652 -24.715 -14.014  0.00  0.00    -0.000 C 
ATOM     32  C   UNL     1      29.193 -22.260 -15.221  0.00  0.00    +0.029 C 
ATOM     33  C   UNL     1      27.879 -24.282 -15.091  0.00  0.00    -0.000 C 
ATOM     34  C   UNL     1      28.149 -23.055 -15.694  0.00  0.00    +0.002 C 
ENDBRANCH  27  29
ENDBRANCH  24  27
ENDBRANCH  22  25
ENDBRANCH   3  22
TORSDOF 7
ENDMDL
MODEL 8
REMARK VINA RESULT:     -11.2     11.181     13.821
REMARK  Name = 656913
REMARK  7 active torsions:
REMARK  status: ('A' for Active; 'I' for Inactive)
REMARK    1  A    between atoms: N_3  and  C_22
REMARK    2  A    between atoms: N_4  and  C_11
REMARK    3  A    between atoms: C_11  and  C_14
REMARK    4  A    between atoms: C_14  and  C_17
REMARK    5  A    between atoms: C_22  and  C_25
REMARK    6  A    between atoms: N_24  and  C_27
REMARK    7  A    between atoms: C_27  and  C_29
REMARK                            x       y       z     vdW  Elec       q    Type
REMARK                         _______ _______ _______ _____ _____    ______ ____
ROOT
ATOM      1 CL   UNL     1      30.873 -11.121 -20.684  0.00  0.00    -0.064 Cl
ATOM      2  O   UNL     1      33.625 -13.909 -23.832  0.00  0.00    -0.266 OA
ATOM      3  N   UNL     1      32.335 -12.583 -22.390  0.00  0.00    -0.233 N 
ATOM      4  N   UNL     1      34.195 -15.747 -21.947  0.00  0.00    -0.310 N 
ATOM      5  N   UNL     1      32.928 -14.501 -20.418  0.00  0.00    -0.223 NA
ATOM      6  C   UNL     1      33.410 -14.671 -21.617  0.00  0.00    +0.183 C 
ATOM      7  C   UNL     1      33.132 -13.675 -22.734  0.00  0.00    +0.285 C 
ATOM      8  C   UNL     1      31.858 -12.472 -21.099  0.00  0.00    +0.133 C 
ATOM      9  C   UNL     1      32.157 -13.399 -20.185  0.00  0.00    +0.127 C 
ATOM     10  H   UNL     1      34.533 -15.825 -22.869  0.00  0.00    +0.149 HD
ENDROOT
BRANCH   4  11
ATOM     11  C   UNL     1      34.537 -16.760 -21.000  0.00  0.00    +0.162 C 
BRANCH  11  14
ATOM     12  F   UNL     1      35.486 -18.339 -22.456  0.00  0.00    -0.196 F 
ATOM     13  F   UNL     1      33.326 -18.131 -22.471  0.00  0.00    -0.196 F 
ATOM     14  C   UNL     1      34.409 -18.143 -21.638  0.00  0.00    +0.317 C 
BRANCH  14  17
ATOM     15  O   UNL     1      36.587 -19.103 -20.250  0.00  0.00    -0.163 OA
ATOM     16  N   UNL     1      35.454 -19.612 -19.958  0.00  0.00    -0.128 N 
ATOM     17  C   UNL     1      34.298 -19.215 -20.582  0.00  0.00    +0.142 C 
ATOM     18  C   UNL     1      33.064 -19.757 -20.273  0.00  0.00    +0.022 C 
ATOM     19  C   UNL     1      35.371 -20.593 -18.988  0.00  0.00    +0.121 C 
ATOM     20  C   UNL     1      32.993 -20.744 -19.295  0.00  0.00    +0.003 C 
ATOM     21  C   UNL     1      34.150 -21.165 -18.648  0.00  0.00    +0.022 C 
ENDBRANCH  14  17
ENDBRANCH  11  14
ENDBRANCH   4  11
BRANCH   3  22
ATOM     22  C   UNL     1      32.026 -11.585 -23.408  0.00  0.00    +0.184 C 
BRANCH  22  25
ATOM     23  O   UNL     1      34.205 -10.555 -23.585  0.00  0.00    -0.273 OA
ATOM     24  N   UNL     1      32.409  -9.287 -22.831  0.00  0.00    -0.299 N 
ATOM     25  C   UNL     1      33.013 -10.440 -23.311  0.00  0.00    +0.243 C 
ATOM     26  H   UNL     1      31.443  -9.309 -22.644  0.00  0.00    +0.150 HD
BRANCH  24  27
ATOM     27  C   UNL     1      33.128  -8.055 -22.592  0.00  0.00    +0.119 C 
BRANCH  27  29
ATOM     28  F   UNL     1      32.601  -5.331 -23.130  0.00  0.00    -0.204 F 
ATOM     29  C   UNL     1      32.404  -7.160 -21.629  0.00  0.00    +0.025 C 
ATOM     30  C   UNL     1      32.178  -5.828 -21.959  0.00  0.00    +0.138 C 
ATOM     31  C   UNL     1      31.966  -7.674 -20.414  0.00  0.00    -0.000 C 
ATOM     32  C   UNL     1      31.506  -5.000 -21.062  0.00  0.00    +0.029 C 
ATOM     33  C   UNL     1      31.293  -6.845 -19.517  0.00  0.00    -0.000 C 
ATOM     34  C   UNL     1      31.063  -5.508 -19.841  0.00  0.00    +0.002 C 
ENDBRANCH  27  29
ENDBRANCH  24  27
ENDBRANCH  22  25
ENDBRANCH   3  22
TORSDOF 7
ENDMDL
MODEL 9
REMARK VINA RESULT:     -11.1      4.838      8.751
REMARK  Name = 656913
REMARK  7 active torsions:
REMARK  status: ('A' for Active; 'I' for Inactive)
REMARK    1  A    between atoms: N_3  and  C_22
REMARK    2  A    between atoms: N_4  and  C_11
REMARK    3  A    between atoms: C_11  and  C_14
REMARK    4  A    between atoms: C_14  and  C_17
REMARK    5  A    between atoms: C_22  and  C_25
REMARK    6  A    between atoms: N_24  and  C_27
REMARK    7  A    between atoms: C_27  and  C_29
REMARK                            x       y       z     vdW  Elec       q    Type
REMARK                         _______ _______ _______ _____ _____    ______ ____
ROOT
ATOM      1 CL   UNL     1      35.785 -22.740 -15.232  0.00  0.00    -0.064 Cl
ATOM      2  O   UNL     1      32.801 -21.840 -19.175  0.00  0.00    -0.266 OA
ATOM      3  N   UNL     1      34.170 -22.287 -17.323  0.00  0.00    -0.233 N 
ATOM      4  N   UNL     1      34.351 -19.833 -20.082  0.00  0.00    -0.310 N 
ATOM      5  N   UNL     1      35.792 -20.190 -18.267  0.00  0.00    -0.223 NA
ATOM      6  C   UNL     1      34.717 -20.496 -18.937  0.00  0.00    +0.183 C 
ATOM      7  C   UNL     1      33.791 -21.618 -18.487  0.00  0.00    +0.285 C 
ATOM      8  C   UNL     1      35.324 -21.907 -16.667  0.00  0.00    +0.133 C 
ATOM      9  C   UNL     1      36.074 -20.907 -17.141  0.00  0.00    +0.127 C 
ATOM     10  H   UNL     1      33.528 -20.107 -20.548  0.00  0.00    +0.149 HD
ENDROOT
BRANCH   4  11
ATOM     11  C   UNL     1      35.125 -18.759 -20.621  0.00  0.00    +0.162 C 
BRANCH  11  14
ATOM     12  F   UNL     1      33.617 -19.265 -22.348  0.00  0.00    -0.196 F 
ATOM     13  F   UNL     1      35.630 -18.687 -22.912  0.00  0.00    -0.196 F 
ATOM     14  C   UNL     1      34.631 -18.408 -22.024  0.00  0.00    +0.317 C 
BRANCH  14  17
ATOM     15  O   UNL     1      33.843 -17.201 -24.372  0.00  0.00    -0.163 OA
ATOM     16  N   UNL     1      33.826 -16.475 -23.323  0.00  0.00    -0.128 N 
ATOM     17  C   UNL     1      34.197 -16.965 -22.096  0.00  0.00    +0.142 C 
ATOM     18  C   UNL     1      34.181 -16.189 -20.952  0.00  0.00    +0.022 C 
ATOM     19  C   UNL     1      33.426 -15.155 -23.408  0.00  0.00    +0.121 C 
ATOM     20  C   UNL     1      33.777 -14.862 -21.049  0.00  0.00    +0.003 C 
ATOM     21  C   UNL     1      33.396 -14.341 -22.281  0.00  0.00    +0.022 C 
ENDBRANCH  14  17
ENDBRANCH  11  14
ENDBRANCH   4  11
BRANCH   3  22
ATOM     22  C   UNL     1      33.331 -23.373 -16.827  0.00  0.00    +0.184 C 
BRANCH  22  25
ATOM     23  O   UNL     1      31.195 -22.245 -16.773  0.00  0.00    -0.273 OA
ATOM     24  N   UNL     1      32.165 -22.934 -14.777  0.00  0.00    -0.299 N 
ATOM     25  C   UNL     1      32.102 -22.799 -16.156  0.00  0.00    +0.243 C 
ATOM     26  H   UNL     1      32.941 -23.398 -14.388  0.00  0.00    +0.150 HD
BRANCH  24  27
ATOM     27  C   UNL     1      31.147 -22.429 -13.882  0.00  0.00    +0.119 C 
BRANCH  27  29
ATOM     28  F   UNL     1      30.676 -25.123 -13.169  0.00  0.00    -0.204 F 
ATOM     29  C   UNL     1      29.825 -23.109 -14.095  0.00  0.00    +0.025 C 
ATOM     30  C   UNL     1      29.663 -24.438 -13.720  0.00  0.00    +0.138 C 
ATOM     31  C   UNL     1      28.775 -22.400 -14.666  0.00  0.00    -0.000 C 
ATOM     32  C   UNL     1      28.435 -25.065 -13.918  0.00  0.00    +0.029 C 
ATOM     33  C   UNL     1      27.546 -23.028 -14.864  0.00  0.00    -0.000 C 
ATOM     34  C   UNL     1      27.375 -24.361 -14.491  0.00  0.00    +0.002 C 
ENDBRANCH  27  29
ENDBRANCH  24  27
ENDBRANCH  22  25
ENDBRANCH   3  22
TORSDOF 7
ENDMDL
