MODEL 1
REMARK VINA RESULT:     -12.2      0.000      0.000
REMARK  Name = 25191001
REMARK  7 active torsions:
REMARK  status: ('A' for Active; 'I' for Inactive)
REMARK    1  A    between atoms: C_1  and  N_9
REMARK    2  A    between atoms: C_2  and  O_24
REMARK    3  A    between atoms: N_8  and  C_14
REMARK    4  A    between atoms: C_15  and  C_23
REMARK    5  A    between atoms: O_24  and  C_26
REMARK    6  A    between atoms: C_28  and  C_33
REMARK    7  A    between atoms: N_32  and  C_35
REMARK                            x       y       z     vdW  Elec       q    Type
REMARK                         _______ _______ _______ _____ _____    ______ ____
ROOT
ATOM      1  C   UNL     1      33.071 -13.549 -22.791  0.00  0.00    +0.052 C 
ATOM      2  C   UNL     1      33.789 -16.232 -23.052  0.00  0.00    +0.145 C 
ATOM      3  C   UNL     1      32.754 -14.246 -23.957  0.00  0.00    +0.018 C 
ATOM      4  C   UNL     1      33.748 -14.194 -21.756  0.00  0.00    +0.018 C 
ATOM      5  C   UNL     1      33.112 -15.587 -24.088  0.00  0.00    +0.039 C 
ATOM      6  C   UNL     1      34.107 -15.536 -21.886  0.00  0.00    +0.039 C 
ENDROOT
BRANCH   1   9
ATOM      7  O   UNL     1      33.984 -11.156 -24.328  0.00  0.00    -0.252 OA
ATOM      8  N   UNL     1      32.556  -9.902 -22.957  0.00  0.00    -0.268 N 
ATOM      9  N   UNL     1      32.709 -12.188 -22.660  0.00  0.00    -0.268 N 
ATOM     10  C   UNL     1      33.170 -11.095 -23.411  0.00  0.00    +0.308 C 
ATOM     11  H   UNL     1      31.921 -10.006 -22.211  0.00  0.00    +0.156 HD
ATOM     12  H   UNL     1      32.054 -11.982 -21.955  0.00  0.00    +0.156 HD
BRANCH   8  14
ATOM     13 CL   UNL     1      33.320  -4.379 -24.916  0.00  0.00    -0.082 Cl
ATOM     14  C   UNL     1      32.730  -8.600 -23.426  0.00  0.00    +0.052 C 
ATOM     15  C   UNL     1      32.145  -6.837 -24.971  0.00  0.00    +0.083 C 
ATOM     16  C   UNL     1      31.971  -8.139 -24.502  0.00  0.00    +0.019 C 
ATOM     17  C   UNL     1      33.662  -7.759 -22.819  0.00  0.00    +0.016 C 
ATOM     18  C   UNL     1      33.077  -5.995 -24.364  0.00  0.00    +0.062 C 
ATOM     19  C   UNL     1      33.837  -6.457 -23.287  0.00  0.00    +0.013 C 
BRANCH  15  23
ATOM     20  F   UNL     1      30.522  -5.307 -25.837  0.00  0.00    -0.166 F 
ATOM     21  F   UNL     1      32.049  -6.002 -27.211  0.00  0.00    -0.166 F 
ATOM     22  F   UNL     1      30.467  -7.351 -26.574  0.00  0.00    -0.166 F 
ATOM     23  C   UNL     1      31.313  -6.381 -26.126  0.00  0.00    +0.419 C 
ENDBRANCH  15  23
ENDBRANCH   8  14
ENDBRANCH   1   9
BRANCH   2  24
ATOM     24  O   UNL     1      34.141 -17.541 -23.180  0.00  0.00    -0.453 OA
BRANCH  24  26
ATOM     25  N   UNL     1      35.085 -19.650 -19.697  0.00  0.00    -0.239 NA
ATOM     26  C   UNL     1      34.453 -18.239 -22.025  0.00  0.00    +0.149 C 
ATOM     27  C   UNL     1      33.475 -18.981 -21.372  0.00  0.00    +0.061 C 
ATOM     28  C   UNL     1      33.839 -19.663 -20.222  0.00  0.00    +0.137 C 
ATOM     29  C   UNL     1      35.746 -18.202 -21.517  0.00  0.00    +0.058 C 
ATOM     30  C   UNL     1      36.009 -18.918 -20.359  0.00  0.00    +0.102 C 
BRANCH  28  33
ATOM     31  O   UNL     1      31.649 -20.374 -19.780  0.00  0.00    -0.269 OA
ATOM     32  N   UNL     1      33.342 -21.311 -18.502  0.00  0.00    -0.313 N 
ATOM     33  C   UNL     1      32.859 -20.454 -19.497  0.00  0.00    +0.263 C 
ATOM     34  H   UNL     1      34.311 -21.324 -18.330  0.00  0.00    +0.149 HD
ATOM     35  C   UNL     1      32.497 -22.177 -17.713  0.00  0.00    +0.128 C 
ENDBRANCH  28  33
ENDBRANCH  24  26
ENDBRANCH   2  24
TORSDOF 6
ENDMDL
MODEL 2
REMARK VINA RESULT:     -11.9      6.000      9.993
REMARK  Name = 25191001
REMARK  7 active torsions:
REMARK  status: ('A' for Active; 'I' for Inactive)
REMARK    1  A    between atoms: C_1  and  N_9
REMARK    2  A    between atoms: C_2  and  O_24
REMARK    3  A    between atoms: N_8  and  C_14
REMARK    4  A    between atoms: C_15  and  C_23
REMARK    5  A    between atoms: O_24  and  C_26
REMARK    6  A    between atoms: C_28  and  C_33
REMARK    7  A    between atoms: N_32  and  C_35
REMARK                            x       y       z     vdW  Elec       q    Type
REMARK                         _______ _______ _______ _____ _____    ______ ____
ROOT
ATOM      1  C   UNL     1      34.097 -21.639 -17.913  0.00  0.00    +0.052 C 
ATOM      2  C   UNL     1      33.292 -23.182 -15.732  0.00  0.00    +0.145 C 
ATOM      3  C   UNL     1      34.873 -21.668 -16.754  0.00  0.00    +0.018 C 
ATOM      4  C   UNL     1      32.918 -22.381 -17.980  0.00  0.00    +0.018 C 
ATOM      5  C   UNL     1      34.471 -22.439 -15.664  0.00  0.00    +0.039 C 
ATOM      6  C   UNL     1      32.515 -23.153 -16.890  0.00  0.00    +0.039 C 
ENDROOT
BRANCH   1   9
ATOM      7  O   UNL     1      32.545 -19.712 -19.585  0.00  0.00    -0.252 OA
ATOM      8  N   UNL     1      34.523 -19.379 -20.794  0.00  0.00    -0.268 N 
ATOM      9  N   UNL     1      34.505 -20.855 -19.018  0.00  0.00    -0.268 N 
ATOM     10  C   UNL     1      33.732 -19.960 -19.773  0.00  0.00    +0.308 C 
ATOM     11  H   UNL     1      35.463 -19.674 -20.825  0.00  0.00    +0.156 HD
ATOM     12  H   UNL     1      35.446 -20.949 -19.289  0.00  0.00    +0.156 HD
BRANCH   8  14
ATOM     13 CL   UNL     1      32.941 -15.447 -24.913  0.00  0.00    -0.082 Cl
ATOM     14  C   UNL     1      34.150 -18.444 -21.760  0.00  0.00    +0.052 C 
ATOM     15  C   UNL     1      33.698 -16.157 -22.393  0.00  0.00    +0.083 C 
ATOM     16  C   UNL     1      34.071 -17.091 -21.427  0.00  0.00    +0.019 C 
ATOM     17  C   UNL     1      33.857 -18.862 -23.058  0.00  0.00    +0.016 C 
ATOM     18  C   UNL     1      33.405 -16.574 -23.692  0.00  0.00    +0.062 C 
ATOM     19  C   UNL     1      33.485 -17.927 -24.024  0.00  0.00    +0.013 C 
BRANCH  15  23
ATOM     20  F   UNL     1      32.369 -14.190 -22.088  0.00  0.00    -0.166 F 
ATOM     21  F   UNL     1      34.017 -14.487 -20.710  0.00  0.00    -0.166 F 
ATOM     22  F   UNL     1      34.416 -13.922 -22.772  0.00  0.00    -0.166 F 
ATOM     23  C   UNL     1      33.625 -14.717 -21.997  0.00  0.00    +0.419 C 
ENDBRANCH  15  23
ENDBRANCH   8  14
ENDBRANCH   1   9
BRANCH   2  24
ATOM     24  O   UNL     1      32.898 -23.933 -14.667  0.00  0.00    -0.453 OA
BRANCH  24  26
ATOM     25  N   UNL     1      35.778 -24.894 -11.795  0.00  0.00    -0.239 NA
ATOM     26  C   UNL     1      33.852 -24.253 -13.716  0.00  0.00    +0.149 C 
ATOM     27  C   UNL     1      35.020 -24.907 -14.090  0.00  0.00    +0.061 C 
ATOM     28  C   UNL     1      35.944 -25.202 -13.101  0.00  0.00    +0.137 C 
ATOM     29  C   UNL     1      33.646 -23.918 -12.382  0.00  0.00    +0.058 C 
ATOM     30  C   UNL     1      34.630 -24.258 -11.468  0.00  0.00    +0.102 C 
BRANCH  28  33
ATOM     31  O   UNL     1      37.160 -27.006 -13.976  0.00  0.00    -0.269 OA
ATOM     32  N   UNL     1      38.377 -25.216 -13.142  0.00  0.00    -0.313 N 
ATOM     33  C   UNL     1      37.182 -25.885 -13.435  0.00  0.00    +0.263 C 
ATOM     34  H   UNL     1      38.322 -24.332 -12.714  0.00  0.00    +0.149 HD
ATOM     35  C   UNL     1      39.686 -25.753 -13.435  0.00  0.00    +0.128 C 
ENDBRANCH  28  33
ENDBRANCH  24  26
ENDBRANCH   2  24
TORSDOF 6
ENDMDL
MODEL 3
REMARK VINA RESULT:     -11.7      5.535      9.020
REMARK  Name = 25191001
REMARK  7 active torsions:
REMARK  status: ('A' for Active; 'I' for Inactive)
REMARK    1  A    between atoms: C_1  and  N_9
REMARK    2  A    between atoms: C_2  and  O_24
REMARK    3  A    between atoms: N_8  and  C_14
REMARK    4  A    between atoms: C_15  and  C_23
REMARK    5  A    between atoms: O_24  and  C_26
REMARK    6  A    between atoms: C_28  and  C_33
REMARK    7  A    between atoms: N_32  and  C_35
REMARK                            x       y       z     vdW  Elec       q    Type
REMARK                         _______ _______ _______ _____ _____    ______ ____
ROOT
ATOM      1  C   UNL     1      34.462 -21.149 -18.471  0.00  0.00    +0.052 C 
ATOM      2  C   UNL     1      33.817 -22.883 -16.381  0.00  0.00    +0.145 C 
ATOM      3  C   UNL     1      35.322 -21.278 -17.380  0.00  0.00    +0.018 C 
ATOM      4  C   UNL     1      33.279 -21.887 -18.516  0.00  0.00    +0.018 C 
ATOM      5  C   UNL     1      35.000 -22.145 -16.336  0.00  0.00    +0.039 C 
ATOM      6  C   UNL     1      32.956 -22.754 -17.471  0.00  0.00    +0.039 C 
ENDROOT
BRANCH   1   9
ATOM      7  O   UNL     1      32.724 -19.291 -20.036  0.00  0.00    -0.252 OA
ATOM      8  N   UNL     1      34.657 -18.701 -21.219  0.00  0.00    -0.268 N 
ATOM      9  N   UNL     1      34.788 -20.269 -19.529  0.00  0.00    -0.268 N 
ATOM     10  C   UNL     1      33.929 -19.412 -20.235  0.00  0.00    +0.308 C 
ATOM     11  H   UNL     1      35.621 -18.901 -21.265  0.00  0.00    +0.156 HD
ATOM     12  H   UNL     1      35.733 -20.256 -19.804  0.00  0.00    +0.156 HD
BRANCH   8  14
ATOM     13 CL   UNL     1      32.686 -14.716 -25.114  0.00  0.00    -0.082 Cl
ATOM     14  C   UNL     1      34.192 -17.754 -22.132  0.00  0.00    +0.052 C 
ATOM     15  C   UNL     1      33.580 -15.476 -22.655  0.00  0.00    +0.083 C 
ATOM     16  C   UNL     1      34.045 -16.422 -21.742  0.00  0.00    +0.019 C 
ATOM     17  C   UNL     1      33.875 -18.138 -23.435  0.00  0.00    +0.016 C 
ATOM     18  C   UNL     1      33.263 -15.859 -23.958  0.00  0.00    +0.062 C 
ATOM     19  C   UNL     1      33.410 -17.192 -24.348  0.00  0.00    +0.013 C 
BRANCH  15  23
ATOM     20  F   UNL     1      32.154 -13.598 -22.249  0.00  0.00    -0.166 F 
ATOM     21  F   UNL     1      33.838 -13.861 -20.909  0.00  0.00    -0.166 F 
ATOM     22  F   UNL     1      34.171 -13.192 -22.950  0.00  0.00    -0.166 F 
ATOM     23  C   UNL     1      33.437 -14.060 -22.198  0.00  0.00    +0.419 C 
ENDBRANCH  15  23
ENDBRANCH   8  14
ENDBRANCH   1   9
BRANCH   2  24
ATOM     24  O   UNL     1      33.501 -23.727 -15.361  0.00  0.00    -0.453 OA
BRANCH  24  26
ATOM     25  N   UNL     1      29.963 -23.001 -13.258  0.00  0.00    -0.239 NA
ATOM     26  C   UNL     1      32.329 -23.485 -14.666  0.00  0.00    +0.149 C 
ATOM     27  C   UNL     1      31.180 -23.098 -15.345  0.00  0.00    +0.061 C 
ATOM     28  C   UNL     1      30.032 -22.870 -14.603  0.00  0.00    +0.137 C 
ATOM     29  C   UNL     1      32.297 -23.631 -13.283  0.00  0.00    +0.058 C 
ATOM     30  C   UNL     1      31.100 -23.379 -12.632  0.00  0.00    +0.102 C 
BRANCH  28  33
ATOM     31  O   UNL     1      28.808 -22.128 -16.459  0.00  0.00    -0.269 OA
ATOM     32  N   UNL     1      27.631 -22.493 -14.494  0.00  0.00    -0.313 N 
ATOM     33  C   UNL     1      28.802 -22.464 -15.260  0.00  0.00    +0.263 C 
ATOM     34  H   UNL     1      27.698 -22.769 -13.552  0.00  0.00    +0.149 HD
ATOM     35  C   UNL     1      26.328 -22.141 -15.011  0.00  0.00    +0.128 C 
ENDBRANCH  28  33
ENDBRANCH  24  26
ENDBRANCH   2  24
TORSDOF 6
ENDMDL
MODEL 4
REMARK VINA RESULT:     -11.5      8.052     12.968
REMARK  Name = 25191001
REMARK  7 active torsions:
REMARK  status: ('A' for Active; 'I' for Inactive)
REMARK    1  A    between atoms: C_1  and  N_9
REMARK    2  A    between atoms: C_2  and  O_24
REMARK    3  A    between atoms: N_8  and  C_14
REMARK    4  A    between atoms: C_15  and  C_23
REMARK    5  A    between atoms: O_24  and  C_26
REMARK    6  A    between atoms: C_28  and  C_33
REMARK    7  A    between atoms: N_32  and  C_35
REMARK                            x       y       z     vdW  Elec       q    Type
REMARK                         _______ _______ _______ _____ _____    ______ ____
ROOT
ATOM      1  C   UNL     1      34.481 -20.027 -19.856  0.00  0.00    +0.052 C 
ATOM      2  C   UNL     1      34.684 -18.352 -22.078  0.00  0.00    +0.145 C 
ATOM      3  C   UNL     1      33.387 -19.857 -20.704  0.00  0.00    +0.018 C 
ATOM      4  C   UNL     1      35.677 -19.359 -20.119  0.00  0.00    +0.018 C 
ATOM      5  C   UNL     1      33.488 -19.021 -21.815  0.00  0.00    +0.039 C 
ATOM      6  C   UNL     1      35.779 -18.521 -21.230  0.00  0.00    +0.039 C 
ENDROOT
BRANCH   1   9
ATOM      7  O   UNL     1      32.075 -20.903 -18.319  0.00  0.00    -0.252 OA
ATOM      8  N   UNL     1      33.552 -22.118 -16.965  0.00  0.00    -0.268 N 
ATOM      9  N   UNL     1      34.378 -20.875 -18.728  0.00  0.00    -0.268 N 
ATOM     10  C   UNL     1      33.216 -21.258 -18.039  0.00  0.00    +0.308 C 
ATOM     11  H   UNL     1      34.511 -22.316 -16.861  0.00  0.00    +0.156 HD
ATOM     12  H   UNL     1      35.224 -21.242 -18.385  0.00  0.00    +0.156 HD
BRANCH   8  14
ATOM     13 CL   UNL     1      29.994 -24.697 -13.013  0.00  0.00    -0.082 Cl
ATOM     14  C   UNL     1      32.705 -22.723 -16.036  0.00  0.00    +0.052 C 
ATOM     15  C   UNL     1      30.478 -23.149 -15.203  0.00  0.00    +0.083 C 
ATOM     16  C   UNL     1      31.324 -22.544 -16.132  0.00  0.00    +0.019 C 
ATOM     17  C   UNL     1      33.238 -23.506 -15.013  0.00  0.00    +0.016 C 
ATOM     18  C   UNL     1      31.010 -23.933 -14.179  0.00  0.00    +0.062 C 
ATOM     19  C   UNL     1      32.392 -24.111 -14.084  0.00  0.00    +0.013 C 
BRANCH  15  23
ATOM     20  F   UNL     1      28.666 -22.136 -16.393  0.00  0.00    -0.166 F 
ATOM     21  F   UNL     1      28.302 -24.089 -15.525  0.00  0.00    -0.166 F 
ATOM     22  F   UNL     1      28.460 -22.343 -14.239  0.00  0.00    -0.166 F 
ATOM     23  C   UNL     1      29.005 -22.934 -15.340  0.00  0.00    +0.419 C 
ENDBRANCH  15  23
ENDBRANCH   8  14
ENDBRANCH   1   9
BRANCH   2  24
ATOM     24  O   UNL     1      34.783 -17.533 -23.161  0.00  0.00    -0.453 OA
BRANCH  24  26
ATOM     25  N   UNL     1      32.445 -14.068 -23.201  0.00  0.00    -0.239 NA
ATOM     26  C   UNL     1      34.008 -16.386 -23.173  0.00  0.00    +0.149 C 
ATOM     27  C   UNL     1      33.831 -15.649 -22.007  0.00  0.00    +0.061 C 
ATOM     28  C   UNL     1      33.048 -14.508 -22.073  0.00  0.00    +0.137 C 
ATOM     29  C   UNL     1      33.405 -15.965 -24.353  0.00  0.00    +0.058 C 
ATOM     30  C   UNL     1      32.639 -14.810 -24.314  0.00  0.00    +0.102 C 
BRANCH  28  33
ATOM     31  O   UNL     1      33.694 -13.641 -19.992  0.00  0.00    -0.269 OA
ATOM     32  N   UNL     1      31.626 -12.986 -20.814  0.00  0.00    -0.313 N 
ATOM     33  C   UNL     1      32.828 -13.700 -20.886  0.00  0.00    +0.263 C 
ATOM     34  H   UNL     1      30.985 -13.079 -21.555  0.00  0.00    +0.149 HD
ATOM     35  C   UNL     1      31.273 -12.122 -19.711  0.00  0.00    +0.128 C 
ENDBRANCH  28  33
ENDBRANCH  24  26
ENDBRANCH   2  24
TORSDOF 6
ENDMDL
MODEL 5
REMARK VINA RESULT:     -11.5      7.969     13.396
REMARK  Name = 25191001
REMARK  7 active torsions:
REMARK  status: ('A' for Active; 'I' for Inactive)
REMARK    1  A    between atoms: C_1  and  N_9
REMARK    2  A    between atoms: C_2  and  O_24
REMARK    3  A    between atoms: N_8  and  C_14
REMARK    4  A    between atoms: C_15  and  C_23
REMARK    5  A    between atoms: O_24  and  C_26
REMARK    6  A    between atoms: C_28  and  C_33
REMARK    7  A    between atoms: N_32  and  C_35
REMARK                            x       y       z     vdW  Elec       q    Type
REMARK                         _______ _______ _______ _____ _____    ______ ____
ROOT
ATOM      1  C   UNL     1      34.319 -20.458 -19.400  0.00  0.00    +0.052 C 
ATOM      2  C   UNL     1      34.684 -18.833 -21.639  0.00  0.00    +0.145 C 
ATOM      3  C   UNL     1      35.587 -19.962 -19.704  0.00  0.00    +0.018 C 
ATOM      4  C   UNL     1      33.233 -20.141 -20.217  0.00  0.00    +0.018 C 
ATOM      5  C   UNL     1      35.769 -19.149 -20.822  0.00  0.00    +0.039 C 
ATOM      6  C   UNL     1      33.415 -19.329 -21.337  0.00  0.00    +0.039 C 
ENDROOT
BRANCH   1   9
ATOM      7  O   UNL     1      31.822 -21.178 -17.927  0.00  0.00    -0.252 OA
ATOM      8  N   UNL     1      33.188 -22.454 -16.515  0.00  0.00    -0.268 N 
ATOM      9  N   UNL     1      34.134 -21.283 -18.267  0.00  0.00    -0.268 N 
ATOM     10  C   UNL     1      32.933 -21.591 -17.608  0.00  0.00    +0.308 C 
ATOM     11  H   UNL     1      34.131 -22.704 -16.379  0.00  0.00    +0.156 HD
ATOM     12  H   UNL     1      34.948 -21.692 -17.894  0.00  0.00    +0.156 HD
BRANCH   8  14
ATOM     13 CL   UNL     1      29.376 -24.773 -12.639  0.00  0.00    -0.082 Cl
ATOM     14  C   UNL     1      32.281 -22.998 -15.605  0.00  0.00    +0.052 C 
ATOM     15  C   UNL     1      30.003 -23.432 -14.927  0.00  0.00    +0.083 C 
ATOM     16  C   UNL     1      30.910 -22.887 -15.836  0.00  0.00    +0.019 C 
ATOM     17  C   UNL     1      32.746 -23.653 -14.464  0.00  0.00    +0.016 C 
ATOM     18  C   UNL     1      30.467 -24.087 -13.786  0.00  0.00    +0.062 C 
ATOM     19  C   UNL     1      31.839 -24.197 -13.555  0.00  0.00    +0.013 C 
BRANCH  15  23
ATOM     20  F   UNL     1      27.882 -22.517 -14.303  0.00  0.00    -0.166 F 
ATOM     21  F   UNL     1      28.276 -22.729 -16.425  0.00  0.00    -0.166 F 
ATOM     22  F   UNL     1      27.895 -24.492 -15.211  0.00  0.00    -0.166 F 
ATOM     23  C   UNL     1      28.542 -23.293 -15.211  0.00  0.00    +0.419 C 
ENDBRANCH  15  23
ENDBRANCH   8  14
ENDBRANCH   1   9
BRANCH   2  24
ATOM     24  O   UNL     1      34.861 -18.042 -22.733  0.00  0.00    -0.453 OA
BRANCH  24  26
ATOM     25  N   UNL     1      33.135 -14.235 -22.673  0.00  0.00    -0.239 NA
ATOM     26  C   UNL     1      34.290 -16.780 -22.714  0.00  0.00    +0.149 C 
ATOM     27  C   UNL     1      33.736 -16.247 -23.872  0.00  0.00    +0.061 C 
ATOM     28  C   UNL     1      33.175 -14.982 -23.800  0.00  0.00    +0.137 C 
ATOM     29  C   UNL     1      34.267 -16.043 -21.535  0.00  0.00    +0.058 C 
ATOM     30  C   UNL     1      33.684 -14.787 -21.567  0.00  0.00    +0.102 C 
BRANCH  28  33
ATOM     31  O   UNL     1      32.206 -15.081 -25.932  0.00  0.00    -0.269 OA
ATOM     32  N   UNL     1      32.435 -12.982 -24.973  0.00  0.00    -0.313 N 
ATOM     33  C   UNL     1      32.582 -14.375 -24.978  0.00  0.00    +0.263 C 
ATOM     34  H   UNL     1      32.754 -12.485 -24.186  0.00  0.00    +0.149 HD
ATOM     35  C   UNL     1      31.843 -12.236 -26.059  0.00  0.00    +0.128 C 
ENDBRANCH  28  33
ENDBRANCH  24  26
ENDBRANCH   2  24
TORSDOF 6
ENDMDL
MODEL 6
REMARK VINA RESULT:     -11.5      1.294      1.568
REMARK  Name = 25191001
REMARK  7 active torsions:
REMARK  status: ('A' for Active; 'I' for Inactive)
REMARK    1  A    between atoms: C_1  and  N_9
REMARK    2  A    between atoms: C_2  and  O_24
REMARK    3  A    between atoms: N_8  and  C_14
REMARK    4  A    between atoms: C_15  and  C_23
REMARK    5  A    between atoms: O_24  and  C_26
REMARK    6  A    between atoms: C_28  and  C_33
REMARK    7  A    between atoms: N_32  and  C_35
REMARK                            x       y       z     vdW  Elec       q    Type
REMARK                         _______ _______ _______ _____ _____    ______ ____
ROOT
ATOM      1  C   UNL     1      32.985 -13.600 -22.660  0.00  0.00    +0.052 C 
ATOM      2  C   UNL     1      33.812 -16.246 -22.974  0.00  0.00    +0.145 C 
ATOM      3  C   UNL     1      32.710 -14.281 -23.847  0.00  0.00    +0.018 C 
ATOM      4  C   UNL     1      33.674 -14.242 -21.631  0.00  0.00    +0.018 C 
ATOM      5  C   UNL     1      33.123 -15.604 -24.003  0.00  0.00    +0.039 C 
ATOM      6  C   UNL     1      34.087 -15.566 -21.788  0.00  0.00    +0.039 C 
ENDROOT
BRANCH   1   9
ATOM      7  O   UNL     1      33.871 -11.126 -24.081  0.00  0.00    -0.252 OA
ATOM      8  N   UNL     1      32.342  -9.971 -22.734  0.00  0.00    -0.268 N 
ATOM      9  N   UNL     1      32.567 -12.257 -22.502  0.00  0.00    -0.268 N 
ATOM     10  C   UNL     1      33.018 -11.125 -23.199  0.00  0.00    +0.308 C 
ATOM     11  H   UNL     1      31.681 -10.121 -22.020  0.00  0.00    +0.156 HD
ATOM     12  H   UNL     1      31.876 -12.098 -21.820  0.00  0.00    +0.156 HD
BRANCH   8  14
ATOM     13 CL   UNL     1      32.990  -4.378 -24.532  0.00  0.00    -0.082 Cl
ATOM     14  C   UNL     1      32.487  -8.648 -23.155  0.00  0.00    +0.052 C 
ATOM     15  C   UNL     1      31.678  -6.372 -23.218  0.00  0.00    +0.083 C 
ATOM     16  C   UNL     1      31.533  -7.694 -22.798  0.00  0.00    +0.019 C 
ATOM     17  C   UNL     1      33.585  -8.280 -23.931  0.00  0.00    +0.016 C 
ATOM     18  C   UNL     1      32.777  -6.003 -23.994  0.00  0.00    +0.062 C 
ATOM     19  C   UNL     1      33.730  -6.958 -24.351  0.00  0.00    +0.013 C 
BRANCH  15  23
ATOM     20  F   UNL     1      31.135  -4.314 -22.125  0.00  0.00    -0.166 F 
ATOM     21  F   UNL     1      29.961  -4.840 -23.871  0.00  0.00    -0.166 F 
ATOM     22  F   UNL     1      29.681  -5.927 -22.008  0.00  0.00    -0.166 F 
ATOM     23  C   UNL     1      30.635  -5.381 -22.814  0.00  0.00    +0.419 C 
ENDBRANCH  15  23
ENDBRANCH   8  14
ENDBRANCH   1   9
BRANCH   2  24
ATOM     24  O   UNL     1      34.218 -17.536 -23.128  0.00  0.00    -0.453 OA
BRANCH  24  26
ATOM     25  N   UNL     1      35.132 -19.711 -19.677  0.00  0.00    -0.239 NA
ATOM     26  C   UNL     1      34.519 -18.256 -21.984  0.00  0.00    +0.149 C 
ATOM     27  C   UNL     1      33.531 -18.992 -21.340  0.00  0.00    +0.061 C 
ATOM     28  C   UNL     1      33.885 -19.696 -20.200  0.00  0.00    +0.137 C 
ATOM     29  C   UNL     1      35.814 -18.247 -21.477  0.00  0.00    +0.058 C 
ATOM     30  C   UNL     1      36.067 -18.984 -20.330  0.00  0.00    +0.102 C 
BRANCH  28  33
ATOM     31  O   UNL     1      31.683 -20.370 -19.758  0.00  0.00    -0.269 OA
ATOM     32  N   UNL     1      33.365 -21.372 -18.514  0.00  0.00    -0.313 N 
ATOM     33  C   UNL     1      32.893 -20.482 -19.486  0.00  0.00    +0.263 C 
ATOM     34  H   UNL     1      34.334 -21.410 -18.350  0.00  0.00    +0.149 HD
ATOM     35  C   UNL     1      32.507 -22.237 -17.738  0.00  0.00    +0.128 C 
ENDBRANCH  28  33
ENDBRANCH  24  26
ENDBRANCH   2  24
TORSDOF 6
ENDMDL
MODEL 7
REMARK VINA RESULT:     -11.5      2.529      3.614
REMARK  Name = 25191001
REMARK  7 active torsions:
REMARK  status: ('A' for Active; 'I' for Inactive)
REMARK    1  A    between atoms: C_1  and  N_9
REMARK    2  A    between atoms: C_2  and  O_24
REMARK    3  A    between atoms: N_8  and  C_14
REMARK    4  A    between atoms: C_15  and  C_23
REMARK    5  A    between atoms: O_24  and  C_26
REMARK    6  A    between atoms: C_28  and  C_33
REMARK    7  A    between atoms: N_32  and  C_35
REMARK                            x       y       z     vdW  Elec       q    Type
REMARK                         _______ _______ _______ _____ _____    ______ ____
ROOT
ATOM      1  C   UNL     1      33.894 -15.861 -22.558  0.00  0.00    +0.052 C 
ATOM      2  C   UNL     1      34.562 -18.307 -21.393  0.00  0.00    +0.145 C 
ATOM      3  C   UNL     1      34.205 -15.926 -21.200  0.00  0.00    +0.018 C 
ATOM      4  C   UNL     1      33.917 -17.020 -23.334  0.00  0.00    +0.018 C 
ATOM      5  C   UNL     1      34.539 -17.148 -20.618  0.00  0.00    +0.039 C 
ATOM      6  C   UNL     1      34.251 -18.244 -22.752  0.00  0.00    +0.039 C 
ENDROOT
BRANCH   1   9
ATOM      7  O   UNL     1      34.008 -13.097 -21.434  0.00  0.00    -0.252 OA
ATOM      8  N   UNL     1      33.189 -12.369 -23.505  0.00  0.00    -0.268 N 
ATOM      9  N   UNL     1      33.553 -14.621 -23.148  0.00  0.00    -0.268 N 
ATOM     10  C   UNL     1      33.625 -13.343 -22.573  0.00  0.00    +0.308 C 
ATOM     11  H   UNL     1      32.910 -12.713 -24.384  0.00  0.00    +0.156 HD
ATOM     12  H   UNL     1      33.225 -14.661 -24.075  0.00  0.00    +0.156 HD
BRANCH   8  14
ATOM     13 CL   UNL     1      32.857  -6.505 -22.839  0.00  0.00    -0.082 Cl
ATOM     14  C   UNL     1      33.103 -10.985 -23.342  0.00  0.00    +0.052 C 
ATOM     15  C   UNL     1      32.016  -9.056 -22.377  0.00  0.00    +0.083 C 
ATOM     16  C   UNL     1      32.102 -10.439 -22.539  0.00  0.00    +0.019 C 
ATOM     17  C   UNL     1      34.018 -10.151 -23.983  0.00  0.00    +0.016 C 
ATOM     18  C   UNL     1      32.931  -8.220 -23.017  0.00  0.00    +0.062 C 
ATOM     19  C   UNL     1      33.933  -8.768 -23.820  0.00  0.00    +0.013 C 
BRANCH  15  23
ATOM     20  F   UNL     1      31.392  -7.806 -20.435  0.00  0.00    -0.166 F 
ATOM     21  F   UNL     1      30.090  -7.654 -22.162  0.00  0.00    -0.166 F 
ATOM     22  F   UNL     1      30.132  -9.487 -20.993  0.00  0.00    -0.166 F 
ATOM     23  C   UNL     1      30.929  -8.509 -21.508  0.00  0.00    +0.419 C 
ENDBRANCH  15  23
ENDBRANCH   8  14
ENDBRANCH   1   9
BRANCH   2  24
ATOM     24  O   UNL     1      34.886 -19.501 -20.825  0.00  0.00    -0.453 OA
BRANCH  24  26
ATOM     25  N   UNL     1      32.051 -21.295 -18.332  0.00  0.00    -0.239 NA
ATOM     26  C   UNL     1      33.948 -20.096 -19.999  0.00  0.00    +0.149 C 
ATOM     27  C   UNL     1      34.357 -20.912 -18.950  0.00  0.00    +0.061 C 
ATOM     28  C   UNL     1      33.379 -21.482 -18.152  0.00  0.00    +0.137 C 
ATOM     29  C   UNL     1      32.592 -19.879 -20.216  0.00  0.00    +0.058 C 
ATOM     30  C   UNL     1      31.691 -20.496 -19.362  0.00  0.00    +0.102 C 
BRANCH  28  33
ATOM     31  O   UNL     1      33.077 -23.358 -16.778  0.00  0.00    -0.269 OA
ATOM     32  N   UNL     1      34.892 -21.990 -16.315  0.00  0.00    -0.313 N 
ATOM     33  C   UNL     1      33.748 -22.343 -17.042  0.00  0.00    +0.263 C 
ATOM     34  H   UNL     1      35.376 -21.174 -16.577  0.00  0.00    +0.149 HD
ATOM     35  C   UNL     1      35.399 -22.757 -15.201  0.00  0.00    +0.128 C 
ENDBRANCH  28  33
ENDBRANCH  24  26
ENDBRANCH   2  24
TORSDOF 6
ENDMDL
MODEL 8
REMARK VINA RESULT:     -11.3      8.954     14.381
REMARK  Name = 25191001
REMARK  7 active torsions:
REMARK  status: ('A' for Active; 'I' for Inactive)
REMARK    1  A    between atoms: C_1  and  N_9
REMARK    2  A    between atoms: C_2  and  O_24
REMARK    3  A    between atoms: N_8  and  C_14
REMARK    4  A    between atoms: C_15  and  C_23
REMARK    5  A    between atoms: O_24  and  C_26
REMARK    6  A    between atoms: C_28  and  C_33
REMARK    7  A    between atoms: N_32  and  C_35
REMARK                            x       y       z     vdW  Elec       q    Type
REMARK                         _______ _______ _______ _____ _____    ______ ____
ROOT
ATOM      1  C   UNL     1      34.097 -20.711 -19.072  0.00  0.00    +0.052 C 
ATOM      2  C   UNL     1      34.734 -18.996 -21.179  0.00  0.00    +0.145 C 
ATOM      3  C   UNL     1      35.422 -20.333 -19.288  0.00  0.00    +0.018 C 
ATOM      4  C   UNL     1      33.090 -20.231 -19.910  0.00  0.00    +0.018 C 
ATOM      5  C   UNL     1      35.741 -19.476 -20.340  0.00  0.00    +0.039 C 
ATOM      6  C   UNL     1      33.408 -19.373 -20.964  0.00  0.00    +0.039 C 
ENDROOT
BRANCH   1   9
ATOM      7  O   UNL     1      35.602 -21.329 -16.567  0.00  0.00    -0.252 OA
ATOM      8  N   UNL     1      33.840 -22.777 -16.029  0.00  0.00    -0.268 N 
ATOM      9  N   UNL     1      33.774 -21.582 -18.004  0.00  0.00    -0.268 N 
ATOM     10  C   UNL     1      34.520 -21.838 -16.843  0.00  0.00    +0.308 C 
ATOM     11  H   UNL     1      32.979 -23.100 -16.379  0.00  0.00    +0.156 HD
ATOM     12  H   UNL     1      32.922 -22.067 -18.086  0.00  0.00    +0.156 HD
BRANCH   8  14
ATOM     13 CL   UNL     1      35.448 -24.998 -10.794  0.00  0.00    -0.082 Cl
ATOM     14  C   UNL     1      34.228 -23.303 -14.796  0.00  0.00    +0.052 C 
ATOM     15  C   UNL     1      35.929 -24.260 -13.372  0.00  0.00    +0.083 C 
ATOM     16  C   UNL     1      35.541 -23.735 -14.605  0.00  0.00    +0.019 C 
ATOM     17  C   UNL     1      33.304 -23.396 -13.757  0.00  0.00    +0.016 C 
ATOM     18  C   UNL     1      35.005 -24.354 -12.331  0.00  0.00    +0.062 C 
ATOM     19  C   UNL     1      33.691 -23.922 -12.524  0.00  0.00    +0.013 C 
BRANCH  15  23
ATOM     20  F   UNL     1      38.152 -24.364 -14.250  0.00  0.00    -0.166 F 
ATOM     21  F   UNL     1      37.951 -24.199 -12.097  0.00  0.00    -0.166 F 
ATOM     22  F   UNL     1      37.450 -26.066 -13.093  0.00  0.00    -0.166 F 
ATOM     23  C   UNL     1      37.344 -24.712 -13.207  0.00  0.00    +0.419 C 
ENDBRANCH  15  23
ENDBRANCH   8  14
ENDBRANCH   1   9
BRANCH   2  24
ATOM     24  O   UNL     1      35.045 -18.161 -22.208  0.00  0.00    -0.453 OA
BRANCH  24  26
ATOM     25  N   UNL     1      33.164 -14.430 -22.313  0.00  0.00    -0.239 NA
ATOM     26  C   UNL     1      34.423 -16.925 -22.244  0.00  0.00    +0.149 C 
ATOM     27  C   UNL     1      33.934 -16.423 -23.444  0.00  0.00    +0.061 C 
ATOM     28  C   UNL     1      33.318 -15.182 -23.427  0.00  0.00    +0.137 C 
ATOM     29  C   UNL     1      34.283 -16.182 -21.077  0.00  0.00    +0.058 C 
ATOM     30  C   UNL     1      33.652 -14.950 -21.164  0.00  0.00    +0.102 C 
BRANCH  28  33
ATOM     31  O   UNL     1      32.401 -15.344 -25.578  0.00  0.00    -0.269 OA
ATOM     32  N   UNL     1      32.718 -13.212 -24.723  0.00  0.00    -0.313 N 
ATOM     33  C   UNL     1      32.789 -14.608 -24.652  0.00  0.00    +0.263 C 
ATOM     34  H   UNL     1      33.042 -12.690 -23.954  0.00  0.00    +0.149 HD
ATOM     35  C   UNL     1      32.194 -12.494 -25.862  0.00  0.00    +0.128 C 
ENDBRANCH  28  33
ENDBRANCH  24  26
ENDBRANCH   2  24
TORSDOF 6
ENDMDL
MODEL 9
REMARK VINA RESULT:     -11.2      9.248     14.006
REMARK  Name = 25191001
REMARK  7 active torsions:
REMARK  status: ('A' for Active; 'I' for Inactive)
REMARK    1  A    between atoms: C_1  and  N_9
REMARK    2  A    between atoms: C_2  and  O_24
REMARK    3  A    between atoms: N_8  and  C_14
REMARK    4  A    between atoms: C_15  and  C_23
REMARK    5  A    between atoms: O_24  and  C_26
REMARK    6  A    between atoms: C_28  and  C_33
REMARK    7  A    between atoms: N_32  and  C_35
REMARK                            x       y       z     vdW  Elec       q    Type
REMARK                         _______ _______ _______ _____ _____    ______ ____
ROOT
ATOM      1  C   UNL     1      35.581 -19.604 -19.546  0.00  0.00    +0.052 C 
ATOM      2  C   UNL     1      34.643 -18.628 -21.986  0.00  0.00    +0.145 C 
ATOM      3  C   UNL     1      34.304 -19.948 -19.991  0.00  0.00    +0.018 C 
ATOM      4  C   UNL     1      36.388 -18.772 -20.321  0.00  0.00    +0.018 C 
ATOM      5  C   UNL     1      33.836 -19.461 -21.211  0.00  0.00    +0.039 C 
ATOM      6  C   UNL     1      35.920 -18.283 -21.541  0.00  0.00    +0.039 C 
ENDROOT
BRANCH   1   9
ATOM      7  O   UNL     1      34.622 -21.899 -17.892  0.00  0.00    -0.252 OA
ATOM      8  N   UNL     1      36.325 -21.343 -16.382  0.00  0.00    -0.268 N 
ATOM      9  N   UNL     1      36.055 -20.097 -18.308  0.00  0.00    -0.268 N 
ATOM     10  C   UNL     1      35.567 -21.185 -17.567  0.00  0.00    +0.308 C 
ATOM     11  H   UNL     1      37.055 -20.695 -16.253  0.00  0.00    +0.156 HD
ATOM     12  H   UNL     1      36.821 -19.619 -17.918  0.00  0.00    +0.156 HD
BRANCH   8  14
ATOM     13 CL   UNL     1      35.659 -25.365 -12.103  0.00  0.00    -0.082 Cl
ATOM     14  C   UNL     1      36.177 -22.296 -15.373  0.00  0.00    +0.052 C 
ATOM     15  C   UNL     1      37.092 -24.088 -14.037  0.00  0.00    +0.083 C 
ATOM     16  C   UNL     1      37.241 -23.136 -15.046  0.00  0.00    +0.019 C 
ATOM     17  C   UNL     1      34.964 -22.407 -14.693  0.00  0.00    +0.016 C 
ATOM     18  C   UNL     1      35.880 -24.200 -13.356  0.00  0.00    +0.062 C 
ATOM     19  C   UNL     1      34.815 -23.359 -13.685  0.00  0.00    +0.013 C 
BRANCH  15  23
ATOM     20  F   UNL     1      37.999 -26.298 -13.893  0.00  0.00    -0.166 F 
ATOM     21  F   UNL     1      39.359 -24.712 -14.477  0.00  0.00    -0.166 F 
ATOM     22  F   UNL     1      38.664 -24.843 -12.421  0.00  0.00    -0.166 F 
ATOM     23  C   UNL     1      38.256 -24.969 -13.715  0.00  0.00    +0.419 C 
ENDBRANCH  15  23
ENDBRANCH   8  14
ENDBRANCH   1   9
BRANCH   2  24
ATOM     24  O   UNL     1      34.186 -18.150 -23.176  0.00  0.00    -0.453 OA
BRANCH  24  26
ATOM     25  N   UNL     1      33.195 -14.095 -23.389  0.00  0.00    -0.239 NA
ATOM     26  C   UNL     1      33.856 -16.807 -23.245  0.00  0.00    +0.149 C 
ATOM     27  C   UNL     1      33.595 -16.090 -22.084  0.00  0.00    +0.061 C 
ATOM     28  C   UNL     1      33.272 -14.748 -22.208  0.00  0.00    +0.137 C 
ATOM     29  C   UNL     1      33.788 -16.170 -24.480  0.00  0.00    +0.058 C 
ATOM     30  C   UNL     1      33.455 -14.825 -24.498  0.00  0.00    +0.102 C 
BRANCH  28  33
ATOM     31  O   UNL     1      33.784 -13.934 -20.070  0.00  0.00    -0.269 OA
ATOM     32  N   UNL     1      31.809 -13.196 -21.036  0.00  0.00    -0.313 N 
ATOM     33  C   UNL     1      32.988 -13.950 -21.028  0.00  0.00    +0.263 C 
ATOM     34  H   UNL     1      31.225 -13.256 -21.826  0.00  0.00    +0.149 HD
ATOM     35  C   UNL     1      31.401 -12.336 -19.949  0.00  0.00    +0.128 C 
ENDBRANCH  28  33
ENDBRANCH  24  26
ENDBRANCH   2  24
TORSDOF 6
ENDMDL
