MODEL 1
REMARK VINA RESULT:     -11.3      0.000      0.000
REMARK  Name = 25118925
REMARK  3 active torsions:
REMARK  status: ('A' for Active; 'I' for Inactive)
REMARK    1  A    between atoms: C_3  and  C_12
REMARK    2  A    between atoms: C_5  and  C_24
REMARK    3  A    between atoms: C_27  and  C_33
REMARK                            x       y       z     vdW  Elec       q    Type
REMARK                         _______ _______ _______ _____ _____    ______ ____
ROOT
ATOM      1  N   UNL     1      33.969 -18.885 -23.211  0.00  0.00    -0.279 N 
ATOM      2  N   UNL     1      33.572 -17.512 -21.510  0.00  0.00    -0.394 NA
ATOM      3  C   UNL     1      33.760 -18.764 -21.865  0.00  0.00    +0.160 C 
ATOM      4  C   UNL     1      33.909 -17.630 -23.749  0.00  0.00    +0.152 C 
ATOM      5  C   UNL     1      33.664 -16.800 -22.680  0.00  0.00    +0.130 C 
ATOM      6  C   UNL     1      34.208 -20.104 -23.945  0.00  0.00    +0.115 C 
ENDROOT
BRANCH   3  12
ATOM      7  N   UNL     1      34.038 -21.323 -18.396  0.00  0.00    -0.296 N 
ATOM      8  N   UNL     1      33.187 -22.947 -16.870  0.00  0.00    -0.233 NA
ATOM      9  N   UNL     1      36.318 -22.166 -14.467  0.00  0.00    -0.223 N 
ATOM     10  N   UNL     1      34.303 -23.476 -14.766  0.00  0.00    -0.232 NA
ATOM     11  N   UNL     1      37.033 -21.220 -15.103  0.00  0.00    -0.183 NA
ATOM     12  C   UNL     1      33.756 -19.963 -20.936  0.00  0.00    +0.070 C 
ATOM     13  C   UNL     1      32.695 -19.837 -19.833  0.00  0.00    +0.030 C 
ATOM     14  C   UNL     1      35.133 -20.206 -20.299  0.00  0.00    +0.030 C 
ATOM     15  C   UNL     1      32.691 -21.067 -18.926  0.00  0.00    +0.092 C 
ATOM     16  C   UNL     1      35.117 -21.431 -19.384  0.00  0.00    +0.092 C 
ATOM     17  C   UNL     1      34.132 -22.032 -17.193  0.00  0.00    +0.118 C 
ATOM     18  C   UNL     1      35.189 -21.812 -16.315  0.00  0.00    +0.152 C 
ATOM     19  C   UNL     1      35.203 -22.556 -15.149  0.00  0.00    +0.133 C 
ATOM     20  C   UNL     1      36.341 -21.009 -16.228  0.00  0.00    +0.105 C 
ATOM     21  C   UNL     1      33.329 -23.603 -15.693  0.00  0.00    +0.252 C 
ATOM     22  H   UNL     1      36.574 -22.541 -13.594  0.00  0.00    +0.176 HD
ENDBRANCH   3  12
BRANCH   5  24
ATOM     23  F   UNL     1      33.102 -11.277 -22.994  0.00  0.00    -0.204 F 
ATOM     24  C   UNL     1      33.519 -15.380 -22.764  0.00  0.00    +0.027 C 
ATOM     25  C   UNL     1      33.135 -14.787 -23.967  0.00  0.00    +0.008 C 
ATOM     26  C   UNL     1      33.760 -14.587 -21.642  0.00  0.00    +0.005 C 
ATOM     27  C   UNL     1      32.994 -13.402 -24.048  0.00  0.00    +0.099 C 
ATOM     28  C   UNL     1      33.620 -13.202 -21.722  0.00  0.00    +0.030 C 
ATOM     29  C   UNL     1      33.236 -12.610 -22.926  0.00  0.00    +0.144 C 
BRANCH  27  33
ATOM     30  F   UNL     1      31.331 -13.128 -25.746  0.00  0.00    -0.166 F 
ATOM     31  F   UNL     1      32.568 -11.405 -25.293  0.00  0.00    -0.166 F 
ATOM     32  F   UNL     1      33.414 -13.096 -26.368  0.00  0.00    -0.166 F 
ATOM     33  C   UNL     1      32.584 -12.770 -25.335  0.00  0.00    +0.421 C 
ENDBRANCH  27  33
ENDBRANCH   5  24
TORSDOF 3
ENDMDL
MODEL 2
REMARK VINA RESULT:     -10.8      5.810     10.384
REMARK  Name = 25118925
REMARK  3 active torsions:
REMARK  status: ('A' for Active; 'I' for Inactive)
REMARK    1  A    between atoms: C_3  and  C_12
REMARK    2  A    between atoms: C_5  and  C_24
REMARK    3  A    between atoms: C_27  and  C_33
REMARK                            x       y       z     vdW  Elec       q    Type
REMARK                         _______ _______ _______ _____ _____    ______ ____
ROOT
ATOM      1  N   UNL     1      33.476 -15.625 -23.745  0.00  0.00    -0.279 N 
ATOM      2  N   UNL     1      33.408 -15.671 -21.525  0.00  0.00    -0.394 NA
ATOM      3  C   UNL     1      33.102 -14.978 -22.600  0.00  0.00    +0.160 C 
ATOM      4  C   UNL     1      34.058 -16.806 -23.376  0.00  0.00    +0.152 C 
ATOM      5  C   UNL     1      34.004 -16.811 -22.002  0.00  0.00    +0.130 C 
ATOM      6  C   UNL     1      33.299 -15.161 -25.100  0.00  0.00    +0.115 C 
ENDROOT
BRANCH   3  12
ATOM      7  N   UNL     1      31.865 -10.942 -21.683  0.00  0.00    -0.296 N 
ATOM      8  N   UNL     1      31.501  -8.647 -22.225  0.00  0.00    -0.233 NA
ATOM      9  N   UNL     1      30.909  -7.933 -18.311  0.00  0.00    -0.223 N 
ATOM     10  N   UNL     1      30.990  -6.969 -20.530  0.00  0.00    -0.232 NA
ATOM     11  N   UNL     1      31.059  -9.123 -17.699  0.00  0.00    -0.183 NA
ATOM     12  C   UNL     1      32.419 -13.624 -22.623  0.00  0.00    +0.070 C 
ATOM     13  C   UNL     1      33.419 -12.475 -22.827  0.00  0.00    +0.030 C 
ATOM     14  C   UNL     1      31.598 -13.368 -21.350  0.00  0.00    +0.030 C 
ATOM     15  C   UNL     1      32.707 -11.124 -22.874  0.00  0.00    +0.092 C 
ATOM     16  C   UNL     1      30.899 -12.009 -21.400  0.00  0.00    +0.092 C 
ATOM     17  C   UNL     1      31.575  -9.629 -21.295  0.00  0.00    +0.118 C 
ATOM     18  C   UNL     1      31.358  -9.311 -19.957  0.00  0.00    +0.152 C 
ATOM     19  C   UNL     1      31.078  -7.989 -19.662  0.00  0.00    +0.133 C 
ATOM     20  C   UNL     1      31.332  -9.958 -18.708  0.00  0.00    +0.105 C 
ATOM     21  C   UNL     1      31.217  -7.396 -21.791  0.00  0.00    +0.252 C 
ATOM     22  H   UNL     1      30.697  -7.102 -17.828  0.00  0.00    +0.176 HD
ENDBRANCH   3  12
BRANCH   5  24
ATOM     23  F   UNL     1      35.949 -20.891 -18.764  0.00  0.00    -0.204 F 
ATOM     24  C   UNL     1      34.501 -17.862 -21.169  0.00  0.00    +0.027 C 
ATOM     25  C   UNL     1      33.630 -18.832 -20.674  0.00  0.00    +0.008 C 
ATOM     26  C   UNL     1      35.859 -17.917 -20.852  0.00  0.00    +0.005 C 
ATOM     27  C   UNL     1      34.116 -19.856 -19.861  0.00  0.00    +0.099 C 
ATOM     28  C   UNL     1      36.345 -18.940 -20.040  0.00  0.00    +0.030 C 
ATOM     29  C   UNL     1      35.473 -19.910 -19.545  0.00  0.00    +0.144 C 
BRANCH  27  33
ATOM     30  F   UNL     1      33.567 -22.172 -19.618  0.00  0.00    -0.166 F 
ATOM     31  F   UNL     1      33.042 -20.859 -17.974  0.00  0.00    -0.166 F 
ATOM     32  F   UNL     1      31.920 -20.769 -19.836  0.00  0.00    -0.166 F 
ATOM     33  C   UNL     1      33.183 -20.892 -19.332  0.00  0.00    +0.421 C 
ENDBRANCH  27  33
ENDBRANCH   5  24
TORSDOF 3
ENDMDL
MODEL 3
REMARK VINA RESULT:     -10.8      6.476     12.150
REMARK  Name = 25118925
REMARK  3 active torsions:
REMARK  status: ('A' for Active; 'I' for Inactive)
REMARK    1  A    between atoms: C_3  and  C_12
REMARK    2  A    between atoms: C_5  and  C_24
REMARK    3  A    between atoms: C_27  and  C_33
REMARK                            x       y       z     vdW  Elec       q    Type
REMARK                         _______ _______ _______ _____ _____    ______ ____
ROOT
ATOM      1  N   UNL     1      32.628 -13.032 -24.873  0.00  0.00    -0.279 N 
ATOM      2  N   UNL     1      33.472 -13.784 -22.961  0.00  0.00    -0.394 NA
ATOM      3  C   UNL     1      33.106 -12.714 -23.632  0.00  0.00    +0.160 C 
ATOM      4  C   UNL     1      32.694 -14.391 -25.002  0.00  0.00    +0.152 C 
ATOM      5  C   UNL     1      33.218 -14.833 -23.810  0.00  0.00    +0.130 C 
ATOM      6  C   UNL     1      32.141 -12.114 -25.875  0.00  0.00    +0.115 C 
ENDROOT
BRANCH   3  12
ATOM      7  N   UNL     1      32.499  -8.470 -23.107  0.00  0.00    -0.296 N 
ATOM      8  N   UNL     1      31.967  -6.534 -21.817  0.00  0.00    -0.233 NA
ATOM      9  N   UNL     1      31.766  -4.442 -25.247  0.00  0.00    -0.223 N 
ATOM     10  N   UNL     1      31.560  -4.356 -22.836  0.00  0.00    -0.232 NA
ATOM     11  N   UNL     1      32.038  -5.325 -26.226  0.00  0.00    -0.183 NA
ATOM     12  C   UNL     1      33.183 -11.283 -23.137  0.00  0.00    +0.070 C 
ATOM     13  C   UNL     1      31.837 -10.787 -22.589  0.00  0.00    +0.030 C 
ATOM     14  C   UNL     1      33.679 -10.320 -24.226  0.00  0.00    +0.030 C 
ATOM     15  C   UNL     1      31.944  -9.353 -22.071  0.00  0.00    +0.092 C 
ATOM     16  C   UNL     1      33.773  -8.886 -23.704  0.00  0.00    +0.092 C 
ATOM     17  C   UNL     1      32.188  -7.108 -23.025  0.00  0.00    +0.118 C 
ATOM     18  C   UNL     1      32.103  -6.324 -24.171  0.00  0.00    +0.152 C 
ATOM     19  C   UNL     1      31.791  -4.987 -23.998  0.00  0.00    +0.133 C 
ATOM     20  C   UNL     1      32.243  -6.469 -25.564  0.00  0.00    +0.105 C 
ATOM     21  C   UNL     1      31.671  -5.213 -21.798  0.00  0.00    +0.252 C 
ATOM     22  H   UNL     1      31.568  -3.493 -25.417  0.00  0.00    +0.176 HD
ENDBRANCH   3  12
BRANCH   5  24
ATOM     23  F   UNL     1      34.191 -20.161 -22.557  0.00  0.00    -0.204 F 
ATOM     24  C   UNL     1      33.470 -16.202 -23.486  0.00  0.00    +0.027 C 
ATOM     25  C   UNL     1      34.194 -16.526 -22.338  0.00  0.00    +0.008 C 
ATOM     26  C   UNL     1      32.990 -17.215 -24.316  0.00  0.00    +0.005 C 
ATOM     27  C   UNL     1      34.440 -17.862 -22.022  0.00  0.00    +0.099 C 
ATOM     28  C   UNL     1      33.235 -18.551 -24.001  0.00  0.00    +0.030 C 
ATOM     29  C   UNL     1      33.960 -18.874 -22.853  0.00  0.00    +0.144 C 
BRANCH  27  33
ATOM     30  F   UNL     1      34.736 -19.302 -20.135  0.00  0.00    -0.166 F 
ATOM     31  F   UNL     1      36.529 -18.484 -21.040  0.00  0.00    -0.166 F 
ATOM     32  F   UNL     1      35.218 -17.197 -19.875  0.00  0.00    -0.166 F 
ATOM     33  C   UNL     1      35.215 -18.206 -20.795  0.00  0.00    +0.421 C 
ENDBRANCH  27  33
ENDBRANCH   5  24
TORSDOF 3
ENDMDL
MODEL 4
REMARK VINA RESULT:     -10.6      7.630     13.445
REMARK  Name = 25118925
REMARK  3 active torsions:
REMARK  status: ('A' for Active; 'I' for Inactive)
REMARK    1  A    between atoms: C_3  and  C_12
REMARK    2  A    between atoms: C_5  and  C_24
REMARK    3  A    between atoms: C_27  and  C_33
REMARK                            x       y       z     vdW  Elec       q    Type
REMARK                         _______ _______ _______ _____ _____    ______ ____
ROOT
ATOM      1  N   UNL     1      30.959 -10.872 -20.577  0.00  0.00    -0.279 N 
ATOM      2  N   UNL     1      32.288 -10.888 -22.357  0.00  0.00    -0.394 NA
ATOM      3  C   UNL     1      31.633 -10.128 -21.507  0.00  0.00    +0.160 C 
ATOM      4  C   UNL     1      31.200 -12.188 -20.853  0.00  0.00    +0.152 C 
ATOM      5  C   UNL     1      32.022 -12.173 -21.955  0.00  0.00    +0.130 C 
ATOM      6  C   UNL     1      30.140 -10.374 -19.498  0.00  0.00    +0.115 C 
ENDROOT
BRANCH   3  12
ATOM      7  N   UNL     1      31.543  -5.987 -22.729  0.00  0.00    -0.296 N 
ATOM      8  N   UNL     1      30.617  -3.788 -22.750  0.00  0.00    -0.233 NA
ATOM      9  N   UNL     1      33.103  -2.890 -25.783  0.00  0.00    -0.223 N 
ATOM     10  N   UNL     1      31.360  -2.071 -24.315  0.00  0.00    -0.232 NA
ATOM     11  N   UNL     1      33.807  -4.013 -26.017  0.00  0.00    -0.183 NA
ATOM     12  C   UNL     1      31.596  -8.612 -21.511  0.00  0.00    +0.070 C 
ATOM     13  C   UNL     1      30.333  -8.067 -22.195  0.00  0.00    +0.030 C 
ATOM     14  C   UNL     1      32.841  -8.005 -22.173  0.00  0.00    +0.030 C 
ATOM     15  C   UNL     1      30.303  -6.539 -22.165  0.00  0.00    +0.092 C 
ATOM     16  C   UNL     1      32.798  -6.477 -22.149  0.00  0.00    +0.092 C 
ATOM     17  C   UNL     1      31.487  -4.693 -23.259  0.00  0.00    +0.118 C 
ATOM     18  C   UNL     1      32.320  -4.314 -24.308  0.00  0.00    +0.152 C 
ATOM     19  C   UNL     1      32.198  -3.015 -24.771  0.00  0.00    +0.133 C 
ATOM     20  C   UNL     1      33.326  -4.876 -25.116  0.00  0.00    +0.105 C 
ATOM     21  C   UNL     1      30.608  -2.551 -23.302  0.00  0.00    +0.252 C 
ATOM     22  H   UNL     1      33.229  -2.058 -26.293  0.00  0.00    +0.176 HD
ENDBRANCH   3  12
BRANCH   5  24
ATOM     23  F   UNL     1      34.022 -16.693 -24.500  0.00  0.00    -0.204 F 
ATOM     24  C   UNL     1      32.538 -13.337 -22.607  0.00  0.00    +0.027 C 
ATOM     25  C   UNL     1      33.123 -14.356 -21.856  0.00  0.00    +0.008 C 
ATOM     26  C   UNL     1      32.454 -13.453 -23.995  0.00  0.00    +0.005 C 
ATOM     27  C   UNL     1      33.626 -15.491 -22.492  0.00  0.00    +0.099 C 
ATOM     28  C   UNL     1      32.956 -14.587 -24.631  0.00  0.00    +0.030 C 
ATOM     29  C   UNL     1      33.542 -15.606 -23.879  0.00  0.00    +0.144 C 
BRANCH  27  33
ATOM     30  F   UNL     1      33.603 -17.777 -21.789  0.00  0.00    -0.166 F 
ATOM     31  F   UNL     1      35.544 -16.844 -22.040  0.00  0.00    -0.166 F 
ATOM     32  F   UNL     1      34.286 -16.293 -20.353  0.00  0.00    -0.166 F 
ATOM     33  C   UNL     1      34.252 -16.579 -21.687  0.00  0.00    +0.421 C 
ENDBRANCH  27  33
ENDBRANCH   5  24
TORSDOF 3
ENDMDL
MODEL 5
REMARK VINA RESULT:     -10.5      7.274     13.311
REMARK  Name = 25118925
REMARK  3 active torsions:
REMARK  status: ('A' for Active; 'I' for Inactive)
REMARK    1  A    between atoms: C_3  and  C_12
REMARK    2  A    between atoms: C_5  and  C_24
REMARK    3  A    between atoms: C_27  and  C_33
REMARK                            x       y       z     vdW  Elec       q    Type
REMARK                         _______ _______ _______ _____ _____    ______ ____
ROOT
ATOM      1  N   UNL     1      31.556 -10.982 -21.272  0.00  0.00    -0.279 N 
ATOM      2  N   UNL     1      32.926 -11.422 -22.964  0.00  0.00    -0.394 NA
ATOM      3  C   UNL     1      32.361 -10.472 -22.252  0.00  0.00    +0.160 C 
ATOM      4  C   UNL     1      31.611 -12.345 -21.366  0.00  0.00    +0.152 C 
ATOM      5  C   UNL     1      32.462 -12.592 -22.416  0.00  0.00    +0.130 C 
ATOM      6  C   UNL     1      30.782 -10.235 -20.310  0.00  0.00    +0.115 C 
ENDROOT
BRANCH   3  12
ATOM      7  N   UNL     1      32.743  -6.537 -23.992  0.00  0.00    -0.296 N 
ATOM      8  N   UNL     1      32.152  -4.236 -24.214  0.00  0.00    -0.233 NA
ATOM      9  N   UNL     1      34.388  -4.100 -27.556  0.00  0.00    -0.223 N 
ATOM     10  N   UNL     1      32.959  -2.851 -26.053  0.00  0.00    -0.232 NA
ATOM     11  N   UNL     1      34.890  -5.340 -27.706  0.00  0.00    -0.183 NA
ATOM     12  C   UNL     1      32.546  -8.980 -22.451  0.00  0.00    +0.070 C 
ATOM     13  C   UNL     1      31.309  -8.323 -23.081  0.00  0.00    +0.030 C 
ATOM     14  C   UNL     1      33.786  -8.659 -23.300  0.00  0.00    +0.030 C 
ATOM     15  C   UNL     1      31.506  -6.816 -23.248  0.00  0.00    +0.092 C 
ATOM     16  C   UNL     1      33.970  -7.150 -23.472  0.00  0.00    +0.092 C 
ATOM     17  C   UNL     1      32.819  -5.320 -24.679  0.00  0.00    +0.118 C 
ATOM     18  C   UNL     1      33.575  -5.202 -25.842  0.00  0.00    +0.152 C 
ATOM     19  C   UNL     1      33.594  -3.962 -26.457  0.00  0.00    +0.133 C 
ATOM     20  C   UNL     1      34.391  -6.006 -26.658  0.00  0.00    +0.105 C 
ATOM     21  C   UNL     1      32.263  -3.085 -24.920  0.00  0.00    +0.252 C 
ATOM     22  H   UNL     1      34.577  -3.363 -28.180  0.00  0.00    +0.176 HD
ENDBRANCH   3  12
BRANCH   5  24
ATOM     23  F   UNL     1      33.862 -17.648 -24.256  0.00  0.00    -0.204 F 
ATOM     24  C   UNL     1      32.824 -13.893 -22.887  0.00  0.00    +0.027 C 
ATOM     25  C   UNL     1      33.419 -14.809 -22.020  0.00  0.00    +0.008 C 
ATOM     26  C   UNL     1      32.579 -14.247 -24.214  0.00  0.00    +0.005 C 
ATOM     27  C   UNL     1      33.771 -16.078 -22.479  0.00  0.00    +0.099 C 
ATOM     28  C   UNL     1      32.931 -15.515 -24.674  0.00  0.00    +0.030 C 
ATOM     29  C   UNL     1      33.527 -16.431 -23.806  0.00  0.00    +0.144 C 
BRANCH  27  33
ATOM     30  F   UNL     1      35.673 -17.416 -21.920  0.00  0.00    -0.166 F 
ATOM     31  F   UNL     1      34.531 -16.594 -20.271  0.00  0.00    -0.166 F 
ATOM     32  F   UNL     1      33.709 -18.223 -21.454  0.00  0.00    -0.166 F 
ATOM     33  C   UNL     1      34.409 -17.055 -21.550  0.00  0.00    +0.421 C 
ENDBRANCH  27  33
ENDBRANCH   5  24
TORSDOF 3
ENDMDL
MODEL 6
REMARK VINA RESULT:     -10.3      7.566     13.371
REMARK  Name = 25118925
REMARK  3 active torsions:
REMARK  status: ('A' for Active; 'I' for Inactive)
REMARK    1  A    between atoms: C_3  and  C_12
REMARK    2  A    between atoms: C_5  and  C_24
REMARK    3  A    between atoms: C_27  and  C_33
REMARK                            x       y       z     vdW  Elec       q    Type
REMARK                         _______ _______ _______ _____ _____    ______ ____
ROOT
ATOM      1  N   UNL     1      30.726 -10.365 -19.611  0.00  0.00    -0.279 N 
ATOM      2  N   UNL     1      31.908 -10.624 -21.474  0.00  0.00    -0.394 NA
ATOM      3  C   UNL     1      31.237  -9.771 -20.732  0.00  0.00    +0.160 C 
ATOM      4  C   UNL     1      31.095 -11.680 -19.640  0.00  0.00    +0.152 C 
ATOM      5  C   UNL     1      31.823 -11.816 -20.798  0.00  0.00    +0.130 C 
ATOM      6  C   UNL     1      29.940  -9.734 -18.578  0.00  0.00    +0.115 C 
ENDROOT
BRANCH   3  12
ATOM      7  N   UNL     1      31.066  -5.924 -22.689  0.00  0.00    -0.296 N 
ATOM      8  N   UNL     1      29.946  -3.943 -23.406  0.00  0.00    -0.233 NA
ATOM      9  N   UNL     1      33.164  -3.075 -25.660  0.00  0.00    -0.223 N 
ATOM     10  N   UNL     1      30.953  -2.366 -24.971  0.00  0.00    -0.232 NA
ATOM     11  N   UNL     1      34.033  -4.082 -25.452  0.00  0.00    -0.183 NA
ATOM     12  C   UNL     1      31.025  -8.300 -21.036  0.00  0.00    +0.070 C 
ATOM     13  C   UNL     1      30.001  -8.083 -22.160  0.00  0.00    +0.030 C 
ATOM     14  C   UNL     1      32.339  -7.589 -21.393  0.00  0.00    +0.030 C 
ATOM     15  C   UNL     1      29.784  -6.595 -22.431  0.00  0.00    +0.092 C 
ATOM     16  C   UNL     1      32.111  -6.103 -21.675  0.00  0.00    +0.092 C 
ATOM     17  C   UNL     1      31.035  -4.748 -23.447  0.00  0.00    +0.118 C 
ATOM     18  C   UNL     1      32.114  -4.386 -24.248  0.00  0.00    +0.152 C 
ATOM     19  C   UNL     1      31.999  -3.207 -24.964  0.00  0.00    +0.133 C 
ATOM     20  C   UNL     1      33.388  -4.877 -24.592  0.00  0.00    +0.105 C 
ATOM     21  C   UNL     1      29.973  -2.818 -24.160  0.00  0.00    +0.252 C 
ATOM     22  H   UNL     1      33.351  -2.315 -26.257  0.00  0.00    +0.176 HD
ENDBRANCH   3  12
BRANCH   5  24
ATOM     23  F   UNL     1      34.142 -16.556 -22.551  0.00  0.00    -0.204 F 
ATOM     24  C   UNL     1      32.418 -13.035 -21.252  0.00  0.00    +0.027 C 
ATOM     25  C   UNL     1      32.330 -13.398 -22.596  0.00  0.00    +0.008 C 
ATOM     26  C   UNL     1      33.088 -13.861 -20.350  0.00  0.00    +0.005 C 
ATOM     27  C   UNL     1      32.911 -14.586 -23.038  0.00  0.00    +0.099 C 
ATOM     28  C   UNL     1      33.669 -15.050 -20.790  0.00  0.00    +0.030 C 
ATOM     29  C   UNL     1      33.580 -15.412 -22.135  0.00  0.00    +0.144 C 
BRANCH  27  33
ATOM     30  F   UNL     1      31.983 -16.031 -24.702  0.00  0.00    -0.166 F 
ATOM     31  F   UNL     1      32.346 -13.972 -25.279  0.00  0.00    -0.166 F 
ATOM     32  F   UNL     1      34.020 -15.334 -25.003  0.00  0.00    -0.166 F 
ATOM     33  C   UNL     1      32.815 -14.972 -24.475  0.00  0.00    +0.421 C 
ENDBRANCH  27  33
ENDBRANCH   5  24
TORSDOF 3
ENDMDL
MODEL 7
REMARK VINA RESULT:     -10.2      2.175      3.861
REMARK  Name = 25118925
REMARK  3 active torsions:
REMARK  status: ('A' for Active; 'I' for Inactive)
REMARK    1  A    between atoms: C_3  and  C_12
REMARK    2  A    between atoms: C_5  and  C_24
REMARK    3  A    between atoms: C_27  and  C_33
REMARK                            x       y       z     vdW  Elec       q    Type
REMARK                         _______ _______ _______ _____ _____    ______ ____
ROOT
ATOM      1  N   UNL     1      34.914 -20.264 -19.503  0.00  0.00    -0.279 N 
ATOM      2  N   UNL     1      33.010 -19.639 -20.461  0.00  0.00    -0.394 NA
ATOM      3  C   UNL     1      33.564 -20.461 -19.597  0.00  0.00    +0.160 C 
ATOM      4  C   UNL     1      35.242 -19.252 -20.361  0.00  0.00    +0.152 C 
ATOM      5  C   UNL     1      34.051 -18.883 -20.940  0.00  0.00    +0.130 C 
ATOM      6  C   UNL     1      35.838 -20.984 -18.659  0.00  0.00    +0.115 C 
ENDROOT
BRANCH   3  12
ATOM      7  N   UNL     1      31.921 -22.781 -16.345  0.00  0.00    -0.296 N 
ATOM      8  N   UNL     1      30.136 -23.843 -15.171  0.00  0.00    -0.233 NA
ATOM      9  N   UNL     1      32.643 -24.375 -12.069  0.00  0.00    -0.223 N 
ATOM     10  N   UNL     1      30.399 -24.723 -12.911  0.00  0.00    -0.232 NA
ATOM     11  N   UNL     1      33.815 -23.840 -12.456  0.00  0.00    -0.183 NA
ATOM     12  C   UNL     1      32.842 -21.515 -18.780  0.00  0.00    +0.070 C 
ATOM     13  C   UNL     1      31.702 -20.917 -17.942  0.00  0.00    +0.030 C 
ATOM     14  C   UNL     1      33.798 -22.294 -17.865  0.00  0.00    +0.030 C 
ATOM     15  C   UNL     1      30.971 -21.999 -17.148  0.00  0.00    +0.092 C 
ATOM     16  C   UNL     1      33.057 -23.367 -17.066  0.00  0.00    +0.092 C 
ATOM     17  C   UNL     1      31.424 -23.423 -15.205  0.00  0.00    +0.118 C 
ATOM     18  C   UNL     1      32.236 -23.640 -14.096  0.00  0.00    +0.152 C 
ATOM     19  C   UNL     1      31.663 -24.282 -13.012  0.00  0.00    +0.133 C 
ATOM     20  C   UNL     1      33.561 -23.394 -13.692  0.00  0.00    +0.105 C 
ATOM     21  C   UNL     1      29.710 -24.458 -14.042  0.00  0.00    +0.252 C 
ATOM     22  H   UNL     1      32.505 -24.793 -11.189  0.00  0.00    +0.176 HD
ENDBRANCH   3  12
BRANCH   5  24
ATOM     23  F   UNL     1      33.478 -14.871 -24.747  0.00  0.00    -0.204 F 
ATOM     24  C   UNL     1      33.903 -17.849 -21.917  0.00  0.00    +0.027 C 
ATOM     25  C   UNL     1      33.768 -16.521 -21.513  0.00  0.00    +0.008 C 
ATOM     26  C   UNL     1      33.895 -18.168 -23.275  0.00  0.00    +0.005 C 
ATOM     27  C   UNL     1      33.624 -15.512 -22.466  0.00  0.00    +0.099 C 
ATOM     28  C   UNL     1      33.751 -17.161 -24.228  0.00  0.00    +0.030 C 
ATOM     29  C   UNL     1      33.616 -15.833 -23.823  0.00  0.00    +0.144 C 
BRANCH  27  33
ATOM     30  F   UNL     1      33.886 -13.870 -20.747  0.00  0.00    -0.166 F 
ATOM     31  F   UNL     1      34.199 -13.214 -22.789  0.00  0.00    -0.166 F 
ATOM     32  F   UNL     1      32.188 -13.656 -22.088  0.00  0.00    -0.166 F 
ATOM     33  C   UNL     1      33.479 -14.093 -22.032  0.00  0.00    +0.421 C 
ENDBRANCH  27  33
ENDBRANCH   5  24
TORSDOF 3
ENDMDL
MODEL 8
REMARK VINA RESULT:     -10.0      1.444      2.365
REMARK  Name = 25118925
REMARK  3 active torsions:
REMARK  status: ('A' for Active; 'I' for Inactive)
REMARK    1  A    between atoms: C_3  and  C_12
REMARK    2  A    between atoms: C_5  and  C_24
REMARK    3  A    between atoms: C_27  and  C_33
REMARK                            x       y       z     vdW  Elec       q    Type
REMARK                         _______ _______ _______ _____ _____    ______ ____
ROOT
ATOM      1  N   UNL     1      34.147 -18.497 -22.917  0.00  0.00    -0.279 N 
ATOM      2  N   UNL     1      33.492 -17.298 -21.165  0.00  0.00    -0.394 NA
ATOM      3  C   UNL     1      33.818 -18.499 -21.590  0.00  0.00    +0.160 C 
ATOM      4  C   UNL     1      34.024 -17.212 -23.367  0.00  0.00    +0.152 C 
ATOM      5  C   UNL     1      33.619 -16.491 -22.269  0.00  0.00    +0.130 C 
ATOM      6  C   UNL     1      34.552 -19.632 -23.712  0.00  0.00    +0.115 C 
ENDROOT
BRANCH   3  12
ATOM      7  N   UNL     1      34.098 -21.298 -18.312  0.00  0.00    -0.296 N 
ATOM      8  N   UNL     1      33.275 -23.072 -16.945  0.00  0.00    -0.233 NA
ATOM      9  N   UNL     1      36.273 -22.326 -14.367  0.00  0.00    -0.223 N 
ATOM     10  N   UNL     1      34.340 -23.704 -14.843  0.00  0.00    -0.232 NA
ATOM     11  N   UNL     1      36.962 -21.301 -14.902  0.00  0.00    -0.183 NA
ATOM     12  C   UNL     1      33.841 -19.764 -20.753  0.00  0.00    +0.070 C 
ATOM     13  C   UNL     1      32.735 -19.773 -19.687  0.00  0.00    +0.030 C 
ATOM     14  C   UNL     1      35.204 -19.988 -20.081  0.00  0.00    +0.030 C 
ATOM     15  C   UNL     1      32.760 -21.067 -18.874  0.00  0.00    +0.092 C 
ATOM     16  C   UNL     1      35.216 -21.279 -19.261  0.00  0.00    +0.092 C 
ATOM     17  C   UNL     1      34.184 -22.090 -17.161  0.00  0.00    +0.118 C 
ATOM     18  C   UNL     1      35.196 -21.888 -16.228  0.00  0.00    +0.152 C 
ATOM     19  C   UNL     1      35.205 -22.716 -15.120  0.00  0.00    +0.133 C 
ATOM     20  C   UNL     1      36.302 -21.039 -16.035  0.00  0.00    +0.105 C 
ATOM     21  C   UNL     1      33.408 -23.807 -15.815  0.00  0.00    +0.252 C 
ATOM     22  H   UNL     1      36.516 -22.753 -13.515  0.00  0.00    +0.176 HD
ENDBRANCH   3  12
BRANCH   5  24
ATOM     23  F   UNL     1      32.617 -11.022 -22.258  0.00  0.00    -0.204 F 
ATOM     24  C   UNL     1      33.359 -15.085 -22.264  0.00  0.00    +0.027 C 
ATOM     25  C   UNL     1      32.576 -14.523 -21.255  0.00  0.00    +0.008 C 
ATOM     26  C   UNL     1      33.891 -14.274 -23.267  0.00  0.00    +0.005 C 
ATOM     27  C   UNL     1      32.323 -13.152 -21.250  0.00  0.00    +0.099 C 
ATOM     28  C   UNL     1      33.639 -12.903 -23.263  0.00  0.00    +0.030 C 
ATOM     29  C   UNL     1      32.855 -12.342 -22.254  0.00  0.00    +0.144 C 
BRANCH  27  33
ATOM     30  F   UNL     1      32.154 -11.648 -19.398  0.00  0.00    -0.166 F 
ATOM     31  F   UNL     1      30.392 -11.881 -20.639  0.00  0.00    -0.166 F 
ATOM     32  F   UNL     1      30.999 -13.488 -19.305  0.00  0.00    -0.166 F 
ATOM     33  C   UNL     1      31.485 -12.553 -20.172  0.00  0.00    +0.421 C 
ENDBRANCH  27  33
ENDBRANCH   5  24
TORSDOF 3
ENDMDL
MODEL 9
REMARK VINA RESULT:      -9.9      7.555     13.794
REMARK  Name = 25118925
REMARK  3 active torsions:
REMARK  status: ('A' for Active; 'I' for Inactive)
REMARK    1  A    between atoms: C_3  and  C_12
REMARK    2  A    between atoms: C_5  and  C_24
REMARK    3  A    between atoms: C_27  and  C_33
REMARK                            x       y       z     vdW  Elec       q    Type
REMARK                         _______ _______ _______ _____ _____    ______ ____
ROOT
ATOM      1  N   UNL     1      31.402  -9.333 -21.767  0.00  0.00    -0.279 N 
ATOM      2  N   UNL     1      32.830 -10.356 -23.127  0.00  0.00    -0.394 NA
ATOM      3  C   UNL     1      32.222  -9.221 -22.855  0.00  0.00    +0.160 C 
ATOM      4  C   UNL     1      31.493 -10.620 -21.316  0.00  0.00    +0.152 C 
ATOM      5  C   UNL     1      32.379 -11.231 -22.171  0.00  0.00    +0.130 C 
ATOM      6  C   UNL     1      30.585  -8.294 -21.188  0.00  0.00    +0.115 C 
ENDROOT
BRANCH   3  12
ATOM      7  N   UNL     1      32.953  -6.291 -25.944  0.00  0.00    -0.296 N 
ATOM      8  N   UNL     1      32.342  -4.432 -27.309  0.00  0.00    -0.233 NA
ATOM      9  N   UNL     1      35.593  -5.162 -29.563  0.00  0.00    -0.223 N 
ATOM     10  N   UNL     1      33.657  -3.743 -29.244  0.00  0.00    -0.232 NA
ATOM     11  N   UNL     1      36.188  -6.231 -29.003  0.00  0.00    -0.183 NA
ATOM     12  C   UNL     1      32.376  -7.922 -23.623  0.00  0.00    +0.070 C 
ATOM     13  C   UNL     1      31.400  -7.830 -24.805  0.00  0.00    +0.030 C 
ATOM     14  C   UNL     1      33.812  -7.714 -24.125  0.00  0.00    +0.030 C 
ATOM     15  C   UNL     1      31.554  -6.502 -25.547  0.00  0.00    +0.092 C 
ATOM     16  C   UNL     1      33.955  -6.389 -24.876  0.00  0.00    +0.092 C 
ATOM     17  C   UNL     1      33.192  -5.452 -27.038  0.00  0.00    +0.118 C 
ATOM     18  C   UNL     1      34.299  -5.646 -27.859  0.00  0.00    +0.152 C 
ATOM     19  C   UNL     1      34.458  -4.770 -28.918  0.00  0.00    +0.133 C 
ATOM     20  C   UNL     1      35.395  -6.522 -27.966  0.00  0.00    +0.105 C 
ATOM     21  C   UNL     1      32.624  -3.652 -28.379  0.00  0.00    +0.252 C 
ATOM     22  H   UNL     1      35.944  -4.705 -30.361  0.00  0.00    +0.176 HD
ENDBRANCH   3  12
BRANCH   5  24
ATOM     23  F   UNL     1      33.964 -16.549 -21.830  0.00  0.00    -0.204 F 
ATOM     24  C   UNL     1      32.786 -12.600 -22.086  0.00  0.00    +0.027 C 
ATOM     25  C   UNL     1      32.813 -13.392 -23.233  0.00  0.00    +0.008 C 
ATOM     26  C   UNL     1      33.157 -13.141 -20.855  0.00  0.00    +0.005 C 
ATOM     27  C   UNL     1      33.210 -14.726 -23.150  0.00  0.00    +0.099 C 
ATOM     28  C   UNL     1      33.554 -14.475 -20.771  0.00  0.00    +0.030 C 
ATOM     29  C   UNL     1      33.581 -15.268 -21.919  0.00  0.00    +0.144 C 
BRANCH  27  33
ATOM     30  F   UNL     1      34.476 -16.071 -24.671  0.00  0.00    -0.166 F 
ATOM     31  F   UNL     1      32.422 -16.666 -24.307  0.00  0.00    -0.166 F 
ATOM     32  F   UNL     1      32.844 -14.892 -25.494  0.00  0.00    -0.166 F 
ATOM     33  C   UNL     1      33.238 -15.573 -24.378  0.00  0.00    +0.421 C 
ENDBRANCH  27  33
ENDBRANCH   5  24
TORSDOF 3
ENDMDL
