MODEL 1
REMARK VINA RESULT:     -11.7      0.000      0.000
REMARK  Name = 23658582
REMARK  4 active torsions:
REMARK  status: ('A' for Active; 'I' for Inactive)
REMARK    1  A    between atoms: N_3  and  C_13
REMARK    2  A    between atoms: C_8  and  C_25
REMARK    3  A    between atoms: C_15  and  C_22
REMARK    4  A    between atoms: N_24  and  C_29
REMARK                            x       y       z     vdW  Elec       q    Type
REMARK                         _______ _______ _______ _____ _____    ______ ____
ROOT
ATOM      1 CL   UNL     1      31.118 -24.164 -14.081  0.00  0.00    -0.082 Cl
ATOM      2  O   UNL     1      34.969 -22.190 -16.920  0.00  0.00    -0.352 OA
ATOM      3  N   UNL     1      33.334 -20.410 -19.440  0.00  0.00    -0.295 N 
ATOM      4  N   UNL     1      35.026 -21.392 -18.057  0.00  0.00    -0.062 NA
ATOM      5  C   UNL     1      32.846 -21.771 -17.500  0.00  0.00    +0.072 A 
ATOM      6  C   UNL     1      33.667 -22.414 -16.590  0.00  0.00    +0.183 A 
ATOM      7  C   UNL     1      33.753 -21.155 -18.385  0.00  0.00    +0.174 A 
ATOM      8  C   UNL     1      33.207 -23.168 -15.514  0.00  0.00    +0.101 C 
ATOM      9  C   UNL     1      31.455 -21.869 -17.350  0.00  0.00    +0.007 C 
ATOM     10  C   UNL     1      31.818 -23.256 -15.377  0.00  0.00    +0.065 C 
ATOM     11  C   UNL     1      30.957 -22.620 -16.277  0.00  0.00    +0.012 C 
ATOM     12  H   UNL     1      32.358 -20.423 -19.574  0.00  0.00    +0.154 HD
ENDROOT
BRANCH   3  13
ATOM     13  C   UNL     1      34.034 -19.617 -20.392  0.00  0.00    +0.049 C 
ATOM     14  C   UNL     1      33.374 -19.146 -21.527  0.00  0.00    +0.018 C 
ATOM     15  C   UNL     1      34.059 -18.367 -22.460  0.00  0.00    +0.073 C 
ATOM     16  C   UNL     1      35.379 -19.309 -20.190  0.00  0.00    +0.015 C 
ATOM     17  C   UNL     1      35.404 -18.060 -22.258  0.00  0.00    +0.004 C 
ATOM     18  C   UNL     1      36.064 -18.532 -21.122  0.00  0.00    +0.001 C 
BRANCH  15  22
ATOM     19  F   UNL     1      32.844 -16.606 -23.530  0.00  0.00    -0.166 F 
ATOM     20  F   UNL     1      34.152 -17.798 -24.781  0.00  0.00    -0.166 F 
ATOM     21  F   UNL     1      32.298 -18.650 -24.031  0.00  0.00    -0.166 F 
ATOM     22  C   UNL     1      33.355 -17.864 -23.674  0.00  0.00    +0.419 C 
ENDBRANCH  15  22
ENDBRANCH   3  13
BRANCH   8  25
ATOM     23  O   UNL     1      34.226 -25.043 -14.550  0.00  0.00    -0.270 OA
ATOM     24  N   UNL     1      34.889 -22.933 -13.808  0.00  0.00    -0.278 N 
ATOM     25  C   UNL     1      34.144 -23.809 -14.608  0.00  0.00    +0.253 C 
ATOM     26  H   UNL     1      34.726 -21.973 -13.957  0.00  0.00    +0.155 HD
BRANCH  24  29
ATOM     27  N   UNL     1      36.597 -23.129 -10.529  0.00  0.00    -0.221 NA
ATOM     28  N   UNL     1      37.912 -24.306 -12.169  0.00  0.00    -0.221 NA
ATOM     29  C   UNL     1      35.847 -23.251 -12.813  0.00  0.00    +0.089 C 
ATOM     30  C   UNL     1      35.706 -22.844 -11.501  0.00  0.00    +0.117 C 
ATOM     31  C   UNL     1      36.981 -23.985 -13.092  0.00  0.00    +0.117 C 
ATOM     32  C   UNL     1      37.661 -23.852 -10.926  0.00  0.00    +0.199 C 
ENDBRANCH  24  29
ENDBRANCH   8  25
TORSDOF 4
ENDMDL
MODEL 2
REMARK VINA RESULT:     -11.7      6.970     11.272
REMARK  Name = 23658582
REMARK  4 active torsions:
REMARK  status: ('A' for Active; 'I' for Inactive)
REMARK    1  A    between atoms: N_3  and  C_13
REMARK    2  A    between atoms: C_8  and  C_25
REMARK    3  A    between atoms: C_15  and  C_22
REMARK    4  A    between atoms: N_24  and  C_29
REMARK                            x       y       z     vdW  Elec       q    Type
REMARK                         _______ _______ _______ _____ _____    ______ ____
ROOT
ATOM      1 CL   UNL     1      32.246 -12.371 -25.645  0.00  0.00    -0.082 Cl
ATOM      2  O   UNL     1      33.462 -14.487 -21.081  0.00  0.00    -0.352 OA
ATOM      3  N   UNL     1      34.073 -17.840 -21.840  0.00  0.00    -0.295 N 
ATOM      4  N   UNL     1      33.811 -15.767 -20.667  0.00  0.00    -0.062 NA
ATOM      5  C   UNL     1      33.441 -15.768 -22.918  0.00  0.00    +0.072 A 
ATOM      6  C   UNL     1      33.242 -14.491 -22.424  0.00  0.00    +0.183 A 
ATOM      7  C   UNL     1      33.792 -16.513 -21.775  0.00  0.00    +0.174 A 
ATOM      8  C   UNL     1      32.874 -13.397 -23.203  0.00  0.00    +0.101 C 
ATOM      9  C   UNL     1      33.267 -16.003 -24.290  0.00  0.00    +0.007 C 
ATOM     10  C   UNL     1      32.704 -13.646 -24.568  0.00  0.00    +0.065 C 
ATOM     11  C   UNL     1      32.895 -14.924 -25.104  0.00  0.00    +0.012 C 
ATOM     12  H   UNL     1      33.919 -18.236 -22.729  0.00  0.00    +0.154 HD
ENDROOT
BRANCH   3  13
ATOM     13  C   UNL     1      34.545 -18.769 -20.871  0.00  0.00    +0.049 C 
ATOM     14  C   UNL     1      33.653 -19.640 -20.247  0.00  0.00    +0.018 C 
ATOM     15  C   UNL     1      34.116 -20.551 -19.297  0.00  0.00    +0.073 C 
ATOM     16  C   UNL     1      35.901 -18.810 -20.547  0.00  0.00    +0.015 C 
ATOM     17  C   UNL     1      35.471 -20.591 -18.973  0.00  0.00    +0.004 C 
ATOM     18  C   UNL     1      36.365 -19.720 -19.598  0.00  0.00    +0.001 C 
BRANCH  15  22
ATOM     19  F   UNL     1      33.159 -22.740 -19.160  0.00  0.00    -0.166 F 
ATOM     20  F   UNL     1      33.414 -21.659 -17.297  0.00  0.00    -0.166 F 
ATOM     21  F   UNL     1      31.869 -21.051 -18.702  0.00  0.00    -0.166 F 
ATOM     22  C   UNL     1      33.162 -21.482 -18.628  0.00  0.00    +0.419 C 
ENDBRANCH  15  22
ENDBRANCH   3  13
BRANCH   8  25
ATOM     23  O   UNL     1      33.378 -11.124 -22.946  0.00  0.00    -0.270 OA
ATOM     24  N   UNL     1      31.714 -12.038 -21.590  0.00  0.00    -0.278 N 
ATOM     25  C   UNL     1      32.687 -12.089 -22.597  0.00  0.00    +0.253 C 
ATOM     26  H   UNL     1      31.236 -12.880 -21.412  0.00  0.00    +0.155 HD
BRANCH  24  29
ATOM     27  N   UNL     1      30.716 -10.011 -18.656  0.00  0.00    -0.221 NA
ATOM     28  N   UNL     1      30.817  -8.586 -20.596  0.00  0.00    -0.221 NA
ATOM     29  C   UNL     1      31.330 -10.928 -20.795  0.00  0.00    +0.089 C 
ATOM     30  C   UNL     1      31.082 -11.044 -19.442  0.00  0.00    +0.117 C 
ATOM     31  C   UNL     1      31.180  -9.663 -21.323  0.00  0.00    +0.117 C 
ATOM     32  C   UNL     1      30.604  -8.828 -19.288  0.00  0.00    +0.199 C 
ENDBRANCH  24  29
ENDBRANCH   8  25
TORSDOF 4
ENDMDL
MODEL 3
REMARK VINA RESULT:     -11.6      6.130      9.043
REMARK  Name = 23658582
REMARK  4 active torsions:
REMARK  status: ('A' for Active; 'I' for Inactive)
REMARK    1  A    between atoms: N_3  and  C_13
REMARK    2  A    between atoms: C_8  and  C_25
REMARK    3  A    between atoms: C_15  and  C_22
REMARK    4  A    between atoms: N_24  and  C_29
REMARK                            x       y       z     vdW  Elec       q    Type
REMARK                         _______ _______ _______ _____ _____    ______ ____
ROOT
ATOM      1 CL   UNL     1      34.314 -19.568 -23.589  0.00  0.00    -0.082 Cl
ATOM      2  O   UNL     1      33.736 -15.267 -20.768  0.00  0.00    -0.352 OA
ATOM      3  N   UNL     1      33.076 -12.786 -23.136  0.00  0.00    -0.295 N 
ATOM      4  N   UNL     1      33.462 -13.938 -21.070  0.00  0.00    -0.062 NA
ATOM      5  C   UNL     1      33.533 -15.158 -22.996  0.00  0.00    +0.072 A 
ATOM      6  C   UNL     1      33.778 -15.992 -21.919  0.00  0.00    +0.183 A 
ATOM      7  C   UNL     1      33.345 -13.896 -22.401  0.00  0.00    +0.174 A 
ATOM      8  C   UNL     1      34.026 -17.358 -22.025  0.00  0.00    +0.101 C 
ATOM      9  C   UNL     1      33.529 -15.700 -24.290  0.00  0.00    +0.007 C 
ATOM     10  C   UNL     1      34.019 -17.884 -23.321  0.00  0.00    +0.065 C 
ATOM     11  C   UNL     1      33.776 -17.072 -24.434  0.00  0.00    +0.012 C 
ATOM     12  H   UNL     1      33.117 -12.934 -24.108  0.00  0.00    +0.154 HD
ENDROOT
BRANCH   3  13
ATOM     13  C   UNL     1      32.747 -11.450 -22.771  0.00  0.00    +0.049 C 
ATOM     14  C   UNL     1      33.384 -10.380 -23.397  0.00  0.00    +0.018 C 
ATOM     15  C   UNL     1      33.062  -9.070 -23.040  0.00  0.00    +0.073 C 
ATOM     16  C   UNL     1      31.786 -11.212 -21.789  0.00  0.00    +0.015 C 
ATOM     17  C   UNL     1      32.101  -8.832 -22.058  0.00  0.00    +0.004 C 
ATOM     18  C   UNL     1      31.463  -9.904 -21.432  0.00  0.00    +0.001 C 
BRANCH  15  22
ATOM     19  F   UNL     1      34.408  -8.272 -24.850  0.00  0.00    -0.166 F 
ATOM     20  F   UNL     1      32.894  -6.924 -24.082  0.00  0.00    -0.166 F 
ATOM     21  F   UNL     1      34.678  -7.332 -22.908  0.00  0.00    -0.166 F 
ATOM     22  C   UNL     1      33.744  -7.925 -23.708  0.00  0.00    +0.419 C 
ENDBRANCH  15  22
ENDBRANCH   3  13
BRANCH   8  25
ATOM     23  O   UNL     1      35.198 -17.874 -20.064  0.00  0.00    -0.270 OA
ATOM     24  N   UNL     1      33.425 -19.260 -20.678  0.00  0.00    -0.278 N 
ATOM     25  C   UNL     1      34.274 -18.157 -20.837  0.00  0.00    +0.253 C 
ATOM     26  H   UNL     1      32.730 -19.369 -21.367  0.00  0.00    +0.155 HD
BRANCH  24  29
ATOM     27  N   UNL     1      32.256 -21.619 -18.075  0.00  0.00    -0.221 NA
ATOM     28  N   UNL     1      34.659 -21.734 -18.215  0.00  0.00    -0.221 NA
ATOM     29  C   UNL     1      33.439 -20.239 -19.652  0.00  0.00    +0.089 C 
ATOM     30  C   UNL     1      32.281 -20.690 -19.052  0.00  0.00    +0.117 C 
ATOM     31  C   UNL     1      34.610 -20.801 -19.189  0.00  0.00    +0.117 C 
ATOM     32  C   UNL     1      33.463 -22.092 -17.709  0.00  0.00    +0.199 C 
ENDBRANCH  24  29
ENDBRANCH   8  25
TORSDOF 4
ENDMDL
MODEL 4
REMARK VINA RESULT:     -11.5      5.818      8.751
REMARK  Name = 23658582
REMARK  4 active torsions:
REMARK  status: ('A' for Active; 'I' for Inactive)
REMARK    1  A    between atoms: N_3  and  C_13
REMARK    2  A    between atoms: C_8  and  C_25
REMARK    3  A    between atoms: C_15  and  C_22
REMARK    4  A    between atoms: N_24  and  C_29
REMARK                            x       y       z     vdW  Elec       q    Type
REMARK                         _______ _______ _______ _____ _____    ______ ____
ROOT
ATOM      1 CL   UNL     1      34.448 -19.771 -23.605  0.00  0.00    -0.082 Cl
ATOM      2  O   UNL     1      33.706 -15.549 -20.705  0.00  0.00    -0.352 OA
ATOM      3  N   UNL     1      32.989 -13.043 -23.028  0.00  0.00    -0.295 N 
ATOM      4  N   UNL     1      33.392 -14.224 -20.982  0.00  0.00    -0.062 NA
ATOM      5  C   UNL     1      33.521 -15.402 -22.932  0.00  0.00    +0.072 A 
ATOM      6  C   UNL     1      33.781 -16.249 -21.870  0.00  0.00    +0.183 A 
ATOM      7  C   UNL     1      33.287 -14.158 -22.313  0.00  0.00    +0.174 A 
ATOM      8  C   UNL     1      34.075 -17.604 -22.000  0.00  0.00    +0.101 C 
ATOM      9  C   UNL     1      33.546 -15.917 -24.237  0.00  0.00    +0.007 C 
ATOM     10  C   UNL     1      34.097 -18.103 -23.307  0.00  0.00    +0.065 C 
ATOM     11  C   UNL     1      33.838 -17.277 -24.405  0.00  0.00    +0.012 C 
ATOM     12  H   UNL     1      33.044 -13.170 -24.003  0.00  0.00    +0.154 HD
ENDROOT
BRANCH   3  13
ATOM     13  C   UNL     1      32.614 -11.726 -22.640  0.00  0.00    +0.049 C 
ATOM     14  C   UNL     1      31.786 -11.534 -21.535  0.00  0.00    +0.018 C 
ATOM     15  C   UNL     1      31.419 -10.243 -21.154  0.00  0.00    +0.073 C 
ATOM     16  C   UNL     1      33.078 -10.628 -23.364  0.00  0.00    +0.015 C 
ATOM     17  C   UNL     1      31.881  -9.145 -21.878  0.00  0.00    +0.004 C 
ATOM     18  C   UNL     1      32.711  -9.338 -22.984  0.00  0.00    +0.001 C 
BRANCH  15  22
ATOM     19  F   UNL     1      30.381  -8.726 -19.624  0.00  0.00    -0.166 F 
ATOM     20  F   UNL     1      29.260 -10.503 -20.157  0.00  0.00    -0.166 F 
ATOM     21  F   UNL     1      30.993 -10.664 -18.853  0.00  0.00    -0.166 F 
ATOM     22  C   UNL     1      30.531 -10.037 -19.974  0.00  0.00    +0.419 C 
ENDBRANCH  15  22
ENDBRANCH   3  13
BRANCH   8  25
ATOM     23  O   UNL     1      35.358 -18.246 -20.149  0.00  0.00    -0.270 OA
ATOM     24  N   UNL     1      33.379 -19.408 -20.567  0.00  0.00    -0.278 N 
ATOM     25  C   UNL     1      34.336 -18.419 -20.826  0.00  0.00    +0.253 C 
ATOM     26  H   UNL     1      32.613 -19.437 -21.185  0.00  0.00    +0.155 HD
BRANCH  24  29
ATOM     27  N   UNL     1      32.156 -21.783 -18.002  0.00  0.00    -0.221 NA
ATOM     28  N   UNL     1      34.565 -21.803 -18.004  0.00  0.00    -0.221 NA
ATOM     29  C   UNL     1      33.372 -20.374 -19.529  0.00  0.00    +0.089 C 
ATOM     30  C   UNL     1      32.200 -20.864 -18.990  0.00  0.00    +0.117 C 
ATOM     31  C   UNL     1      34.536 -20.884 -18.992  0.00  0.00    +0.117 C 
ATOM     32  C   UNL     1      33.357 -22.202 -17.563  0.00  0.00    +0.199 C 
ENDBRANCH  24  29
ENDBRANCH   8  25
TORSDOF 4
ENDMDL
MODEL 5
REMARK VINA RESULT:     -11.5      7.348     12.072
REMARK  Name = 23658582
REMARK  4 active torsions:
REMARK  status: ('A' for Active; 'I' for Inactive)
REMARK    1  A    between atoms: N_3  and  C_13
REMARK    2  A    between atoms: C_8  and  C_25
REMARK    3  A    between atoms: C_15  and  C_22
REMARK    4  A    between atoms: N_24  and  C_29
REMARK                            x       y       z     vdW  Elec       q    Type
REMARK                         _______ _______ _______ _____ _____    ______ ____
ROOT
ATOM      1 CL   UNL     1      32.214 -12.289 -25.841  0.00  0.00    -0.082 Cl
ATOM      2  O   UNL     1      33.521 -14.321 -21.264  0.00  0.00    -0.352 OA
ATOM      3  N   UNL     1      34.037 -17.704 -21.958  0.00  0.00    -0.295 N 
ATOM      4  N   UNL     1      33.855 -15.598 -20.829  0.00  0.00    -0.062 NA
ATOM      5  C   UNL     1      33.418 -15.645 -23.068  0.00  0.00    +0.072 A 
ATOM      6  C   UNL     1      33.261 -14.352 -22.600  0.00  0.00    +0.183 A 
ATOM      7  C   UNL     1      33.787 -16.370 -21.918  0.00  0.00    +0.174 A 
ATOM      8  C   UNL     1      32.893 -13.269 -23.394  0.00  0.00    +0.101 C 
ATOM      9  C   UNL     1      33.197 -15.909 -24.428  0.00  0.00    +0.007 C 
ATOM     10  C   UNL     1      32.676 -13.548 -24.747  0.00  0.00    +0.065 C 
ATOM     11  C   UNL     1      32.825 -14.842 -25.257  0.00  0.00    +0.012 C 
ATOM     12  H   UNL     1      33.848 -18.118 -22.831  0.00  0.00    +0.154 HD
ENDROOT
BRANCH   3  13
ATOM     13  C   UNL     1      34.519 -18.620 -20.980  0.00  0.00    +0.049 C 
ATOM     14  C   UNL     1      33.633 -19.485 -20.340  0.00  0.00    +0.018 C 
ATOM     15  C   UNL     1      34.105 -20.383 -19.382  0.00  0.00    +0.073 C 
ATOM     16  C   UNL     1      35.877 -18.652 -20.664  0.00  0.00    +0.015 C 
ATOM     17  C   UNL     1      35.462 -20.415 -19.065  0.00  0.00    +0.004 C 
ATOM     18  C   UNL     1      36.349 -19.549 -19.707  0.00  0.00    +0.001 C 
BRANCH  15  22
ATOM     19  F   UNL     1      31.895 -20.805 -18.569  0.00  0.00    -0.166 F 
ATOM     20  F   UNL     1      33.001 -22.505 -19.335  0.00  0.00    -0.166 F 
ATOM     21  F   UNL     1      33.555 -21.620 -17.427  0.00  0.00    -0.166 F 
ATOM     22  C   UNL     1      33.158 -21.308 -18.695  0.00  0.00    +0.419 C 
ENDBRANCH  15  22
ENDBRANCH   3  13
BRANCH   8  25
ATOM     23  O   UNL     1      32.087 -11.769 -21.787  0.00  0.00    -0.270 OA
ATOM     24  N   UNL     1      33.383 -10.917 -23.529  0.00  0.00    -0.278 N 
ATOM     25  C   UNL     1      32.752 -11.944 -22.816  0.00  0.00    +0.253 C 
ATOM     26  H   UNL     1      33.881 -11.195 -24.331  0.00  0.00    +0.155 HD
BRANCH  24  29
ATOM     27  N   UNL     1      34.605  -7.457 -23.030  0.00  0.00    -0.221 NA
ATOM     28  N   UNL     1      32.232  -7.519 -22.614  0.00  0.00    -0.221 NA
ATOM     29  C   UNL     1      33.397  -9.528 -23.243  0.00  0.00    +0.089 C 
ATOM     30  C   UNL     1      34.555  -8.779 -23.295  0.00  0.00    +0.117 C 
ATOM     31  C   UNL     1      32.255  -8.839 -22.892  0.00  0.00    +0.117 C 
ATOM     32  C   UNL     1      33.425  -6.899 -22.701  0.00  0.00    +0.199 C 
ENDBRANCH  24  29
ENDBRANCH   8  25
TORSDOF 4
ENDMDL
MODEL 6
REMARK VINA RESULT:     -11.4      3.365      4.807
REMARK  Name = 23658582
REMARK  4 active torsions:
REMARK  status: ('A' for Active; 'I' for Inactive)
REMARK    1  A    between atoms: N_3  and  C_13
REMARK    2  A    between atoms: C_8  and  C_25
REMARK    3  A    between atoms: C_15  and  C_22
REMARK    4  A    between atoms: N_24  and  C_29
REMARK                            x       y       z     vdW  Elec       q    Type
REMARK                         _______ _______ _______ _____ _____    ______ ____
ROOT
ATOM      1 CL   UNL     1      35.123 -23.447 -14.983  0.00  0.00    -0.082 Cl
ATOM      2  O   UNL     1      32.326 -21.356 -18.802  0.00  0.00    -0.352 OA
ATOM      3  N   UNL     1      34.557 -19.197 -20.399  0.00  0.00    -0.295 N 
ATOM      4  N   UNL     1      32.591 -20.430 -19.804  0.00  0.00    -0.062 NA
ATOM      5  C   UNL     1      34.469 -20.755 -18.550  0.00  0.00    +0.072 A 
ATOM      6  C   UNL     1      33.448 -21.548 -18.057  0.00  0.00    +0.183 A 
ATOM      7  C   UNL     1      33.871 -20.085 -19.636  0.00  0.00    +0.174 A 
ATOM      8  C   UNL     1      33.576 -22.401 -16.963  0.00  0.00    +0.101 C 
ATOM      9  C   UNL     1      35.725 -20.794 -17.927  0.00  0.00    +0.007 C 
ATOM     10  C   UNL     1      34.833 -22.429 -16.352  0.00  0.00    +0.065 C 
ATOM     11  C   UNL     1      35.889 -21.641 -16.822  0.00  0.00    +0.012 C 
ATOM     12  H   UNL     1      35.464 -19.004 -20.067  0.00  0.00    +0.154 HD
ENDROOT
BRANCH   3  13
ATOM     13  C   UNL     1      34.218 -18.489 -21.586  0.00  0.00    +0.049 C 
ATOM     14  C   UNL     1      34.113 -17.098 -21.563  0.00  0.00    +0.018 C 
ATOM     15  C   UNL     1      33.781 -16.404 -22.726  0.00  0.00    +0.073 C 
ATOM     16  C   UNL     1      33.992 -19.185 -22.773  0.00  0.00    +0.015 C 
ATOM     17  C   UNL     1      33.554 -17.100 -23.913  0.00  0.00    +0.004 C 
ATOM     18  C   UNL     1      33.660 -18.492 -23.936  0.00  0.00    +0.001 C 
BRANCH  15  22
ATOM     19  F   UNL     1      32.409 -14.460 -22.974  0.00  0.00    -0.166 F 
ATOM     20  F   UNL     1      33.993 -14.364 -21.497  0.00  0.00    -0.166 F 
ATOM     21  F   UNL     1      34.481 -14.313 -23.615  0.00  0.00    -0.166 F 
ATOM     22  C   UNL     1      33.667 -14.917 -22.702  0.00  0.00    +0.419 C 
ENDBRANCH  15  22
ENDBRANCH   3  13
BRANCH   8  25
ATOM     23  O   UNL     1      32.415 -24.420 -16.712  0.00  0.00    -0.270 OA
ATOM     24  N   UNL     1      31.421 -22.474 -15.893  0.00  0.00    -0.278 N 
ATOM     25  C   UNL     1      32.448 -23.198 -16.513  0.00  0.00    +0.253 C 
ATOM     26  H   UNL     1      31.576 -21.507 -15.798  0.00  0.00    +0.155 HD
BRANCH  24  29
ATOM     27  N   UNL     1      28.974 -24.406 -13.896  0.00  0.00    -0.221 NA
ATOM     28  N   UNL     1      27.783 -22.928 -15.380  0.00  0.00    -0.221 NA
ATOM     29  C   UNL     1      30.189 -22.957 -15.385  0.00  0.00    +0.089 C 
ATOM     30  C   UNL     1      30.127 -23.924 -14.402  0.00  0.00    +0.117 C 
ATOM     31  C   UNL     1      28.973 -22.491 -15.841  0.00  0.00    +0.117 C 
ATOM     32  C   UNL     1      27.855 -23.872 -14.422  0.00  0.00    +0.199 C 
ENDBRANCH  24  29
ENDBRANCH   8  25
TORSDOF 4
ENDMDL
MODEL 7
REMARK VINA RESULT:     -11.2      5.110      9.700
REMARK  Name = 23658582
REMARK  4 active torsions:
REMARK  status: ('A' for Active; 'I' for Inactive)
REMARK    1  A    between atoms: N_3  and  C_13
REMARK    2  A    between atoms: C_8  and  C_25
REMARK    3  A    between atoms: C_15  and  C_22
REMARK    4  A    between atoms: N_24  and  C_29
REMARK                            x       y       z     vdW  Elec       q    Type
REMARK                         _______ _______ _______ _____ _____    ______ ____
ROOT
ATOM      1 CL   UNL     1      36.598 -19.128 -20.962  0.00  0.00    -0.082 Cl
ATOM      2  O   UNL     1      31.884 -20.466 -19.297  0.00  0.00    -0.352 OA
ATOM      3  N   UNL     1      32.512 -22.508 -16.535  0.00  0.00    -0.295 N 
ATOM      4  N   UNL     1      31.411 -21.252 -18.254  0.00  0.00    -0.062 NA
ATOM      5  C   UNL     1      33.692 -21.231 -18.218  0.00  0.00    +0.072 A 
ATOM      6  C   UNL     1      33.245 -20.455 -19.273  0.00  0.00    +0.183 A 
ATOM      7  C   UNL     1      32.502 -21.698 -17.625  0.00  0.00    +0.174 A 
ATOM      8  C   UNL     1      34.080 -19.778 -20.158  0.00  0.00    +0.101 C 
ATOM      9  C   UNL     1      35.072 -21.361 -18.004  0.00  0.00    +0.007 C 
ATOM     10  C   UNL     1      35.453 -19.918 -19.933  0.00  0.00    +0.065 C 
ATOM     11  C   UNL     1      35.942 -20.694 -18.877  0.00  0.00    +0.012 C 
ATOM     12  H   UNL     1      33.412 -22.803 -16.266  0.00  0.00    +0.154 HD
ENDROOT
BRANCH   3  13
ATOM     13  C   UNL     1      31.471 -23.015 -15.707  0.00  0.00    +0.049 C 
ATOM     14  C   UNL     1      30.137 -22.801 -16.055  0.00  0.00    +0.018 C 
ATOM     15  C   UNL     1      29.117 -23.299 -15.244  0.00  0.00    +0.073 C 
ATOM     16  C   UNL     1      31.784 -23.726 -14.549  0.00  0.00    +0.015 C 
ATOM     17  C   UNL     1      29.430 -24.009 -14.086  0.00  0.00    +0.004 C 
ATOM     18  C   UNL     1      30.765 -24.223 -13.738  0.00  0.00    +0.001 C 
BRANCH  15  22
ATOM     19  F   UNL     1      27.496 -21.959 -16.386  0.00  0.00    -0.166 F 
ATOM     20  F   UNL     1      27.138 -24.097 -16.324  0.00  0.00    -0.166 F 
ATOM     21  F   UNL     1      26.885 -22.903 -14.524  0.00  0.00    -0.166 F 
ATOM     22  C   UNL     1      27.690 -23.069 -15.614  0.00  0.00    +0.419 C 
ENDBRANCH  15  22
ENDBRANCH   3  13
BRANCH   8  25
ATOM     23  O   UNL     1      32.568 -19.406 -21.907  0.00  0.00    -0.270 OA
ATOM     24  N   UNL     1      34.167 -17.764 -21.472  0.00  0.00    -0.278 N 
ATOM     25  C   UNL     1      33.522 -18.985 -21.240  0.00  0.00    +0.253 C 
ATOM     26  H   UNL     1      34.913 -17.550 -20.866  0.00  0.00    +0.155 HD
BRANCH  24  29
ATOM     27  N   UNL     1      33.543 -14.499 -23.105  0.00  0.00    -0.221 NA
ATOM     28  N   UNL     1      33.388 -16.245 -24.758  0.00  0.00    -0.221 NA
ATOM     29  C   UNL     1      33.883 -16.796 -22.468  0.00  0.00    +0.089 C 
ATOM     30  C   UNL     1      33.811 -15.447 -22.183  0.00  0.00    +0.117 C 
ATOM     31  C   UNL     1      33.660 -17.140 -23.785  0.00  0.00    +0.117 C 
ATOM     32  C   UNL     1      33.345 -14.961 -24.354  0.00  0.00    +0.199 C 
ENDBRANCH  24  29
ENDBRANCH   8  25
TORSDOF 4
ENDMDL
MODEL 8
REMARK VINA RESULT:     -10.9      2.104      2.583
REMARK  Name = 23658582
REMARK  4 active torsions:
REMARK  status: ('A' for Active; 'I' for Inactive)
REMARK    1  A    between atoms: N_3  and  C_13
REMARK    2  A    between atoms: C_8  and  C_25
REMARK    3  A    between atoms: C_15  and  C_22
REMARK    4  A    between atoms: N_24  and  C_29
REMARK                            x       y       z     vdW  Elec       q    Type
REMARK                         _______ _______ _______ _____ _____    ______ ____
ROOT
ATOM      1 CL   UNL     1      33.208 -23.850 -14.414  0.00  0.00    -0.082 Cl
ATOM      2  O   UNL     1      35.818 -20.955 -17.819  0.00  0.00    -0.352 OA
ATOM      3  N   UNL     1      33.422 -20.095 -20.209  0.00  0.00    -0.295 N 
ATOM      4  N   UNL     1      35.478 -20.298 -18.996  0.00  0.00    -0.062 NA
ATOM      5  C   UNL     1      33.638 -21.348 -18.150  0.00  0.00    +0.072 A 
ATOM      6  C   UNL     1      34.718 -21.579 -17.317  0.00  0.00    +0.183 A 
ATOM      7  C   UNL     1      34.177 -20.546 -19.175  0.00  0.00    +0.174 A 
ATOM      8  C   UNL     1      34.661 -22.339 -16.151  0.00  0.00    +0.101 C 
ATOM      9  C   UNL     1      32.392 -21.903 -17.822  0.00  0.00    +0.007 C 
ATOM     10  C   UNL     1      33.413 -22.886 -15.837  0.00  0.00    +0.065 C 
ATOM     11  C   UNL     1      32.299 -22.674 -16.655  0.00  0.00    +0.012 C 
ATOM     12  H   UNL     1      32.505 -20.455 -20.218  0.00  0.00    +0.154 HD
ENDROOT
BRANCH   3  13
ATOM     13  C   UNL     1      33.700 -19.204 -21.284  0.00  0.00    +0.049 C 
ATOM     14  C   UNL     1      33.675 -17.826 -21.071  0.00  0.00    +0.018 C 
ATOM     15  C   UNL     1      33.948 -16.953 -22.125  0.00  0.00    +0.073 C 
ATOM     16  C   UNL     1      33.999 -19.710 -22.549  0.00  0.00    +0.015 C 
ATOM     17  C   UNL     1      34.246 -17.458 -23.390  0.00  0.00    +0.004 C 
ATOM     18  C   UNL     1      34.272 -18.838 -23.601  0.00  0.00    +0.001 C 
BRANCH  15  22
ATOM     19  F   UNL     1      34.850 -14.795 -22.628  0.00  0.00    -0.166 F 
ATOM     20  F   UNL     1      32.724 -14.900 -22.217  0.00  0.00    -0.166 F 
ATOM     21  F   UNL     1      34.154 -15.143 -20.597  0.00  0.00    -0.166 F 
ATOM     22  C   UNL     1      33.919 -15.479 -21.899  0.00  0.00    +0.419 C 
ENDBRANCH  15  22
ENDBRANCH   3  13
BRANCH   8  25
ATOM     23  O   UNL     1      36.525 -21.562 -14.966  0.00  0.00    -0.270 OA
ATOM     24  N   UNL     1      36.164 -23.865 -15.053  0.00  0.00    -0.278 N 
ATOM     25  C   UNL     1      35.849 -22.530 -15.336  0.00  0.00    +0.253 C 
ATOM     26  H   UNL     1      35.540 -24.538 -15.408  0.00  0.00    +0.155 HD
BRANCH  24  29
ATOM     27  N   UNL     1      39.646 -24.609 -14.037  0.00  0.00    -0.221 NA
ATOM     28  N   UNL     1      38.136 -25.619 -12.456  0.00  0.00    -0.221 NA
ATOM     29  C   UNL     1      37.268 -24.371 -14.321  0.00  0.00    +0.089 C 
ATOM     30  C   UNL     1      38.573 -24.143 -14.709  0.00  0.00    +0.117 C 
ATOM     31  C   UNL     1      37.108 -25.123 -13.176  0.00  0.00    +0.117 C 
ATOM     32  C   UNL     1      39.360 -25.328 -12.936  0.00  0.00    +0.199 C 
ENDBRANCH  24  29
ENDBRANCH   8  25
TORSDOF 4
ENDMDL
MODEL 9
REMARK VINA RESULT:     -10.5      9.181     13.342
REMARK  Name = 23658582
REMARK  4 active torsions:
REMARK  status: ('A' for Active; 'I' for Inactive)
REMARK    1  A    between atoms: N_3  and  C_13
REMARK    2  A    between atoms: C_8  and  C_25
REMARK    3  A    between atoms: C_15  and  C_22
REMARK    4  A    between atoms: N_24  and  C_29
REMARK                            x       y       z     vdW  Elec       q    Type
REMARK                         _______ _______ _______ _____ _____    ______ ____
ROOT
ATOM      1 CL   UNL     1      32.892  -7.625 -24.104  0.00  0.00    -0.082 Cl
ATOM      2  O   UNL     1      31.940 -12.147 -21.774  0.00  0.00    -0.352 OA
ATOM      3  N   UNL     1      33.474 -14.504 -23.844  0.00  0.00    -0.295 N 
ATOM      4  N   UNL     1      32.258 -13.470 -22.057  0.00  0.00    -0.062 NA
ATOM      5  C   UNL     1      33.115 -12.117 -23.680  0.00  0.00    +0.072 A 
ATOM      6  C   UNL     1      32.453 -11.342 -22.744  0.00  0.00    +0.183 A 
ATOM      7  C   UNL     1      32.956 -13.429 -23.195  0.00  0.00    +0.174 A 
ATOM      8  C   UNL     1      32.343  -9.956 -22.809  0.00  0.00    +0.101 C 
ATOM      9  C   UNL     1      33.724 -11.488 -24.776  0.00  0.00    +0.007 C 
ATOM     10  C   UNL     1      32.955  -9.343 -23.907  0.00  0.00    +0.065 C 
ATOM     11  C   UNL     1      33.633 -10.093 -24.874  0.00  0.00    +0.012 C 
ATOM     12  H   UNL     1      33.880 -14.285 -24.714  0.00  0.00    +0.154 HD
ENDROOT
BRANCH   3  13
ATOM     13  C   UNL     1      33.540 -15.886 -23.510  0.00  0.00    +0.049 C 
ATOM     14  C   UNL     1      34.266 -16.299 -22.393  0.00  0.00    +0.018 C 
ATOM     15  C   UNL     1      34.331 -17.653 -22.066  0.00  0.00    +0.073 C 
ATOM     16  C   UNL     1      32.879 -16.827 -24.299  0.00  0.00    +0.015 C 
ATOM     17  C   UNL     1      33.671 -18.594 -22.854  0.00  0.00    +0.004 C 
ATOM     18  C   UNL     1      32.943 -18.180 -23.972  0.00  0.00    +0.001 C 
BRANCH  15  22
ATOM     19  F   UNL     1      34.683 -19.284 -20.351  0.00  0.00    -0.166 F 
ATOM     20  F   UNL     1      36.440 -18.276 -21.123  0.00  0.00    -0.166 F 
ATOM     21  F   UNL     1      35.048 -17.201 -19.844  0.00  0.00    -0.166 F 
ATOM     22  C   UNL     1      35.109 -18.096 -20.873  0.00  0.00    +0.419 C 
ENDBRANCH  15  22
ENDBRANCH   3  13
BRANCH   8  25
ATOM     23  O   UNL     1      30.580  -9.670 -21.294  0.00  0.00    -0.270 OA
ATOM     24  N   UNL     1      32.193  -7.991 -21.427  0.00  0.00    -0.278 N 
ATOM     25  C   UNL     1      31.627  -9.223 -21.778  0.00  0.00    +0.253 C 
ATOM     26  H   UNL     1      33.030  -7.755 -21.888  0.00  0.00    +0.155 HD
BRANCH  24  29
ATOM     27  N   UNL     1      31.820  -6.028 -18.309  0.00  0.00    -0.221 NA
ATOM     28  N   UNL     1      30.204  -5.255 -19.920  0.00  0.00    -0.221 NA
ATOM     29  C   UNL     1      31.714  -7.039 -20.491  0.00  0.00    +0.089 C 
ATOM     30  C   UNL     1      32.250  -6.921 -19.224  0.00  0.00    +0.117 C 
ATOM     31  C   UNL     1      30.684  -6.172 -20.787  0.00  0.00    +0.117 C 
ATOM     32  C   UNL     1      30.809  -5.238 -18.717  0.00  0.00    +0.199 C 
ENDBRANCH  24  29
ENDBRANCH   8  25
TORSDOF 4
ENDMDL
