MODEL 1
REMARK VINA RESULT:     -11.8      0.000      0.000
REMARK  Name = 11659487
REMARK  5 active torsions:
REMARK  status: ('A' for Active; 'I' for Inactive)
REMARK    1  A    between atoms: C_1  and  C_15
REMARK    2  A    between atoms: C_2  and  C_7
REMARK    3  A    between atoms: C_10  and  O_13
REMARK    4  A    between atoms: C_15  and  C_16
REMARK    5  A    between atoms: C_16  and  C_18
REMARK                            x       y       z     vdW  Elec       q    Type
REMARK                         _______ _______ _______ _____ _____    ______ ____
ROOT
ATOM      1  C   UNL     1      33.349 -21.030 -18.826  0.00  0.00    -0.022 C 
ATOM      2  C   UNL     1      34.257 -19.505 -20.466  0.00  0.00    -0.000 C 
ATOM      3  C   UNL     1      33.159 -20.137 -19.881  0.00  0.00    -0.004 C 
ATOM      4  C   UNL     1      34.637 -21.292 -18.358  0.00  0.00    -0.004 C 
ATOM      5  C   UNL     1      35.544 -19.766 -19.997  0.00  0.00    -0.000 C 
ATOM      6  C   UNL     1      35.735 -20.660 -18.943  0.00  0.00    -0.000 C 
ENDROOT
BRANCH   2   7
ATOM      7  C   UNL     1      34.060 -18.577 -21.559  0.00  0.00    +0.003 C 
ATOM      8  C   UNL     1      34.380 -17.230 -21.397  0.00  0.00    +0.037 C 
ATOM      9  C   UNL     1      33.551 -19.031 -22.775  0.00  0.00    +0.000 C 
ATOM     10  C   UNL     1      34.190 -16.336 -22.451  0.00  0.00    +0.139 C 
ATOM     11  C   UNL     1      33.360 -18.138 -23.829  0.00  0.00    +0.003 C 
ATOM     12  C   UNL     1      33.681 -16.790 -23.667  0.00  0.00    +0.037 C 
BRANCH  10  13
ATOM     13  O   UNL     1      34.503 -15.020 -22.293  0.00  0.00    -0.471 OA
ATOM     14  C   UNL     1      33.455 -14.074 -22.494  0.00  0.00    +0.252 C 
ENDBRANCH  10  13
ENDBRANCH   2   7
BRANCH   1  15
ATOM     15  C   UNL     1      32.177 -21.706 -18.200  0.00  0.00    +0.034 C 
BRANCH  15  16
ATOM     16  C   UNL     1      32.531 -22.562 -16.967  0.00  0.00    +0.064 C 
BRANCH  16  18
ATOM     17  N   UNL     1      30.169 -22.463 -16.441  0.00  0.00    -0.396 NA
ATOM     18  C   UNL     1      31.411 -22.640 -15.957  0.00  0.00    +0.110 C 
ATOM     19  C   UNL     1      31.725 -22.880 -14.638  0.00  0.00    +0.023 C 
ATOM     20  C   UNL     1      30.671 -22.947 -13.733  0.00  0.00    -0.015 C 
ATOM     21  C   UNL     1      29.171 -22.533 -15.533  0.00  0.00    +0.158 C 
ATOM     22  C   UNL     1      29.366 -22.771 -14.181  0.00  0.00    +0.100 C 
ATOM     23  N   UNL     1      27.835 -22.357 -15.973  0.00  0.00    -0.336 N 
ATOM     24  H   UNL     1      27.650 -22.185 -16.924  0.00  0.00    +0.144 HD
ATOM     25  H   UNL     1      27.093 -22.404 -15.327  0.00  0.00    +0.144 HD
ENDBRANCH  16  18
ENDBRANCH  15  16
ENDBRANCH   1  15
TORSDOF 5
ENDMDL
MODEL 2
REMARK VINA RESULT:     -11.4      1.577      2.031
REMARK  Name = 11659487
REMARK  5 active torsions:
REMARK  status: ('A' for Active; 'I' for Inactive)
REMARK    1  A    between atoms: C_1  and  C_15
REMARK    2  A    between atoms: C_2  and  C_7
REMARK    3  A    between atoms: C_10  and  O_13
REMARK    4  A    between atoms: C_15  and  C_16
REMARK    5  A    between atoms: C_16  and  C_18
REMARK                            x       y       z     vdW  Elec       q    Type
REMARK                         _______ _______ _______ _____ _____    ______ ____
ROOT
ATOM      1  C   UNL     1      33.505 -20.706 -19.174  0.00  0.00    -0.022 C 
ATOM      2  C   UNL     1      34.320 -19.075 -20.759  0.00  0.00    -0.000 C 
ATOM      3  C   UNL     1      33.260 -19.779 -20.187  0.00  0.00    -0.004 C 
ATOM      4  C   UNL     1      34.809 -20.931 -18.735  0.00  0.00    -0.004 C 
ATOM      5  C   UNL     1      35.625 -19.299 -20.320  0.00  0.00    -0.000 C 
ATOM      6  C   UNL     1      35.869 -20.228 -19.307  0.00  0.00    -0.000 C 
ENDROOT
BRANCH   2   7
ATOM      7  C   UNL     1      34.067 -18.113 -21.809  0.00  0.00    +0.003 C 
ATOM      8  C   UNL     1      34.319 -16.759 -21.590  0.00  0.00    +0.037 C 
ATOM      9  C   UNL     1      33.571 -18.539 -23.041  0.00  0.00    +0.000 C 
ATOM     10  C   UNL     1      34.074 -15.831 -22.602  0.00  0.00    +0.139 C 
ATOM     11  C   UNL     1      33.326 -17.611 -24.053  0.00  0.00    +0.003 C 
ATOM     12  C   UNL     1      33.578 -16.257 -23.834  0.00  0.00    +0.037 C 
BRANCH  10  13
ATOM     13  O   UNL     1      34.320 -14.509 -22.388  0.00  0.00    -0.471 OA
ATOM     14  C   UNL     1      33.434 -13.575 -23.002  0.00  0.00    +0.252 C 
ENDBRANCH  10  13
ENDBRANCH   2   7
BRANCH   1  15
ATOM     15  C   UNL     1      32.372 -21.459 -18.562  0.00  0.00    +0.034 C 
BRANCH  15  16
ATOM     16  C   UNL     1      32.779 -22.812 -17.944  0.00  0.00    +0.064 C 
BRANCH  16  18
ATOM     17  N   UNL     1      33.436 -23.294 -15.663  0.00  0.00    -0.396 NA
ATOM     18  C   UNL     1      32.433 -22.924 -16.478  0.00  0.00    +0.110 C 
ATOM     19  C   UNL     1      31.144 -22.648 -16.080  0.00  0.00    +0.023 C 
ATOM     20  C   UNL     1      30.858 -22.760 -14.723  0.00  0.00    -0.015 C 
ATOM     21  C   UNL     1      33.122 -23.393 -14.353  0.00  0.00    +0.158 C 
ATOM     22  C   UNL     1      31.860 -23.139 -13.837  0.00  0.00    +0.100 C 
ATOM     23  N   UNL     1      34.132 -23.777 -13.437  0.00  0.00    -0.336 N 
ATOM     24  H   UNL     1      35.042 -23.967 -13.759  0.00  0.00    +0.144 HD
ATOM     25  H   UNL     1      33.923 -23.855 -12.478  0.00  0.00    +0.144 HD
ENDBRANCH  16  18
ENDBRANCH  15  16
ENDBRANCH   1  15
TORSDOF 5
ENDMDL
MODEL 3
REMARK VINA RESULT:     -11.4      4.464      8.709
REMARK  Name = 11659487
REMARK  5 active torsions:
REMARK  status: ('A' for Active; 'I' for Inactive)
REMARK    1  A    between atoms: C_1  and  C_15
REMARK    2  A    between atoms: C_2  and  C_7
REMARK    3  A    between atoms: C_10  and  O_13
REMARK    4  A    between atoms: C_15  and  C_16
REMARK    5  A    between atoms: C_16  and  C_18
REMARK                            x       y       z     vdW  Elec       q    Type
REMARK                         _______ _______ _______ _____ _____    ______ ____
ROOT
ATOM      1  C   UNL     1      34.204 -18.622 -21.958  0.00  0.00    -0.022 C 
ATOM      2  C   UNL     1      34.535 -19.896 -19.932  0.00  0.00    -0.000 C 
ATOM      3  C   UNL     1      33.709 -19.481 -20.977  0.00  0.00    -0.004 C 
ATOM      4  C   UNL     1      35.525 -18.177 -21.893  0.00  0.00    -0.004 C 
ATOM      5  C   UNL     1      35.855 -19.452 -19.867  0.00  0.00    -0.000 C 
ATOM      6  C   UNL     1      36.350 -18.592 -20.847  0.00  0.00    -0.000 C 
ENDROOT
BRANCH   2   7
ATOM      7  C   UNL     1      34.021 -20.789 -18.916  0.00  0.00    +0.003 C 
ATOM      8  C   UNL     1      34.874 -21.292 -17.933  0.00  0.00    +0.037 C 
ATOM      9  C   UNL     1      32.673 -21.145 -18.917  0.00  0.00    +0.000 C 
ATOM     10  C   UNL     1      34.378 -22.152 -16.953  0.00  0.00    +0.139 C 
ATOM     11  C   UNL     1      32.177 -22.005 -17.938  0.00  0.00    +0.003 C 
ATOM     12  C   UNL     1      33.029 -22.508 -16.955  0.00  0.00    +0.037 C 
BRANCH  10  13
ATOM     13  O   UNL     1      35.210 -22.643 -15.994  0.00  0.00    -0.471 OA
ATOM     14  C   UNL     1      36.450 -21.966 -15.801  0.00  0.00    +0.252 C 
ENDBRANCH  10  13
ENDBRANCH   2   7
BRANCH   1  15
ATOM     15  C   UNL     1      33.323 -18.177 -23.076  0.00  0.00    +0.034 C 
BRANCH  15  16
ATOM     16  C   UNL     1      34.014 -17.238 -24.084  0.00  0.00    +0.064 C 
BRANCH  16  18
ATOM     17  N   UNL     1      32.789 -15.336 -24.951  0.00  0.00    -0.396 NA
ATOM     18  C   UNL     1      33.569 -15.801 -23.958  0.00  0.00    +0.110 C 
ATOM     19  C   UNL     1      33.980 -15.074 -22.863  0.00  0.00    +0.023 C 
ATOM     20  C   UNL     1      33.552 -13.753 -22.777  0.00  0.00    -0.015 C 
ATOM     21  C   UNL     1      32.394 -14.050 -24.834  0.00  0.00    +0.158 C 
ATOM     22  C   UNL     1      32.744 -13.224 -23.777  0.00  0.00    +0.100 C 
ATOM     23  N   UNL     1      31.569 -13.495 -25.844  0.00  0.00    -0.336 N 
ATOM     24  H   UNL     1      31.297 -14.045 -26.613  0.00  0.00    +0.144 HD
ATOM     25  H   UNL     1      31.271 -12.559 -25.777  0.00  0.00    +0.144 HD
ENDBRANCH  16  18
ENDBRANCH  15  16
ENDBRANCH   1  15
TORSDOF 5
ENDMDL
MODEL 4
REMARK VINA RESULT:     -11.3      4.677      9.494
REMARK  Name = 11659487
REMARK  5 active torsions:
REMARK  status: ('A' for Active; 'I' for Inactive)
REMARK    1  A    between atoms: C_1  and  C_15
REMARK    2  A    between atoms: C_2  and  C_7
REMARK    3  A    between atoms: C_10  and  O_13
REMARK    4  A    between atoms: C_15  and  C_16
REMARK    5  A    between atoms: C_16  and  C_18
REMARK                            x       y       z     vdW  Elec       q    Type
REMARK                         _______ _______ _______ _____ _____    ______ ____
ROOT
ATOM      1  C   UNL     1      34.046 -16.470 -22.042  0.00  0.00    -0.022 C 
ATOM      2  C   UNL     1      34.003 -18.767 -21.295  0.00  0.00    -0.000 C 
ATOM      3  C   UNL     1      34.110 -17.405 -21.010  0.00  0.00    -0.004 C 
ATOM      4  C   UNL     1      33.877 -16.896 -23.360  0.00  0.00    -0.004 C 
ATOM      5  C   UNL     1      33.833 -19.193 -22.611  0.00  0.00    -0.000 C 
ATOM      6  C   UNL     1      33.770 -18.258 -23.644  0.00  0.00    -0.000 C 
ENDROOT
BRANCH   2   7
ATOM      7  C   UNL     1      34.067 -19.737 -20.223  0.00  0.00    +0.003 C 
ATOM      8  C   UNL     1      32.895 -20.299 -19.719  0.00  0.00    +0.037 C 
ATOM      9  C   UNL     1      35.302 -20.112 -19.695  0.00  0.00    +0.000 C 
ATOM     10  C   UNL     1      32.958 -21.235 -18.687  0.00  0.00    +0.139 C 
ATOM     11  C   UNL     1      35.366 -21.047 -18.663  0.00  0.00    +0.003 C 
ATOM     12  C   UNL     1      34.193 -21.610 -18.158  0.00  0.00    +0.037 C 
BRANCH  10  13
ATOM     13  O   UNL     1      31.813 -21.784 -18.194  0.00  0.00    -0.471 OA
ATOM     14  C   UNL     1      31.907 -22.480 -16.953  0.00  0.00    +0.252 C 
ENDBRANCH  10  13
ENDBRANCH   2   7
BRANCH   1  15
ATOM     15  C   UNL     1      34.161 -15.014 -21.739  0.00  0.00    +0.034 C 
BRANCH  15  16
ATOM     16  C   UNL     1      32.854 -14.225 -21.950  0.00  0.00    +0.064 C 
BRANCH  16  18
ATOM     17  N   UNL     1      33.418 -12.101 -22.969  0.00  0.00    -0.396 NA
ATOM     18  C   UNL     1      32.893 -13.324 -23.162  0.00  0.00    +0.110 C 
ATOM     19  C   UNL     1      32.400 -13.800 -24.357  0.00  0.00    +0.023 C 
ATOM     20  C   UNL     1      32.452 -12.946 -25.453  0.00  0.00    -0.015 C 
ATOM     21  C   UNL     1      33.450 -11.299 -24.056  0.00  0.00    +0.158 C 
ATOM     22  C   UNL     1      32.985 -11.670 -25.308  0.00  0.00    +0.100 C 
ATOM     23  N   UNL     1      33.991  -9.996 -23.925  0.00  0.00    -0.336 N 
ATOM     24  H   UNL     1      34.333  -9.690 -23.055  0.00  0.00    +0.144 HD
ATOM     25  H   UNL     1      34.024  -9.396 -24.706  0.00  0.00    +0.144 HD
ENDBRANCH  16  18
ENDBRANCH  15  16
ENDBRANCH   1  15
TORSDOF 5
ENDMDL
MODEL 5
REMARK VINA RESULT:     -11.2      3.874      8.636
REMARK  Name = 11659487
REMARK  5 active torsions:
REMARK  status: ('A' for Active; 'I' for Inactive)
REMARK    1  A    between atoms: C_1  and  C_15
REMARK    2  A    between atoms: C_2  and  C_7
REMARK    3  A    between atoms: C_10  and  O_13
REMARK    4  A    between atoms: C_15  and  C_16
REMARK    5  A    between atoms: C_16  and  C_18
REMARK                            x       y       z     vdW  Elec       q    Type
REMARK                         _______ _______ _______ _____ _____    ______ ____
ROOT
ATOM      1  C   UNL     1      33.257 -22.413 -17.009  0.00  0.00    -0.022 C 
ATOM      2  C   UNL     1      31.449 -22.919 -15.489  0.00  0.00    -0.000 C 
ATOM      3  C   UNL     1      31.897 -22.618 -16.776  0.00  0.00    -0.004 C 
ATOM      4  C   UNL     1      34.168 -22.507 -15.957  0.00  0.00    -0.004 C 
ATOM      5  C   UNL     1      32.359 -23.013 -14.437  0.00  0.00    -0.000 C 
ATOM      6  C   UNL     1      33.719 -22.806 -14.670  0.00  0.00    -0.000 C 
ENDROOT
BRANCH   2   7
ATOM      7  C   UNL     1      30.039 -23.134 -15.246  0.00  0.00    +0.003 C 
ATOM      8  C   UNL     1      29.104 -22.200 -15.693  0.00  0.00    +0.037 C 
ATOM      9  C   UNL     1      29.614 -24.275 -14.567  0.00  0.00    +0.000 C 
ATOM     10  C   UNL     1      27.744 -22.408 -15.460  0.00  0.00    +0.139 C 
ATOM     11  C   UNL     1      28.255 -24.483 -14.334  0.00  0.00    +0.003 C 
ATOM     12  C   UNL     1      27.319 -23.549 -14.781  0.00  0.00    +0.037 C 
BRANCH  10  13
ATOM     13  O   UNL     1      26.831 -21.496 -15.896  0.00  0.00    -0.471 OA
ATOM     14  C   UNL     1      25.909 -21.927 -16.895  0.00  0.00    +0.252 C 
ENDBRANCH  10  13
ENDBRANCH   2   7
BRANCH   1  15
ATOM     15  C   UNL     1      33.738 -22.092 -18.384  0.00  0.00    +0.034 C 
BRANCH  15  16
ATOM     16  C   UNL     1      34.946 -21.135 -18.419  0.00  0.00    +0.064 C 
BRANCH  16  18
ATOM     17  N   UNL     1      36.032 -19.519 -19.859  0.00  0.00    -0.396 NA
ATOM     18  C   UNL     1      34.877 -20.131 -19.545  0.00  0.00    +0.110 C 
ATOM     19  C   UNL     1      33.665 -19.911 -20.161  0.00  0.00    +0.023 C 
ATOM     20  C   UNL     1      33.636 -18.981 -21.195  0.00  0.00    -0.015 C 
ATOM     21  C   UNL     1      35.965 -18.622 -20.867  0.00  0.00    +0.158 C 
ATOM     22  C   UNL     1      34.803 -18.319 -21.560  0.00  0.00    +0.100 C 
ATOM     23  N   UNL     1      37.146 -17.940 -21.253  0.00  0.00    -0.336 N 
ATOM     24  H   UNL     1      37.993 -18.123 -20.788  0.00  0.00    +0.144 HD
ATOM     25  H   UNL     1      37.117 -17.282 -21.985  0.00  0.00    +0.144 HD
ENDBRANCH  16  18
ENDBRANCH  15  16
ENDBRANCH   1  15
TORSDOF 5
ENDMDL
MODEL 6
REMARK VINA RESULT:     -11.1      4.469      8.514
REMARK  Name = 11659487
REMARK  5 active torsions:
REMARK  status: ('A' for Active; 'I' for Inactive)
REMARK    1  A    between atoms: C_1  and  C_15
REMARK    2  A    between atoms: C_2  and  C_7
REMARK    3  A    between atoms: C_10  and  O_13
REMARK    4  A    between atoms: C_15  and  C_16
REMARK    5  A    between atoms: C_16  and  C_18
REMARK                            x       y       z     vdW  Elec       q    Type
REMARK                         _______ _______ _______ _____ _____    ______ ____
ROOT
ATOM      1  C   UNL     1      33.980 -16.340 -22.225  0.00  0.00    -0.022 C 
ATOM      2  C   UNL     1      33.918 -18.633 -21.465  0.00  0.00    -0.000 C 
ATOM      3  C   UNL     1      34.090 -17.274 -21.195  0.00  0.00    -0.004 C 
ATOM      4  C   UNL     1      33.702 -16.764 -23.524  0.00  0.00    -0.004 C 
ATOM      5  C   UNL     1      33.640 -19.056 -22.764  0.00  0.00    -0.000 C 
ATOM      6  C   UNL     1      33.532 -18.122 -23.794  0.00  0.00    -0.000 C 
ENDROOT
BRANCH   2   7
ATOM      7  C   UNL     1      34.030 -19.601 -20.396  0.00  0.00    +0.003 C 
ATOM      8  C   UNL     1      32.882 -20.177 -19.854  0.00  0.00    +0.037 C 
ATOM      9  C   UNL     1      35.286 -19.961 -19.909  0.00  0.00    +0.000 C 
ATOM     10  C   UNL     1      32.990 -21.112 -18.824  0.00  0.00    +0.139 C 
ATOM     11  C   UNL     1      35.395 -20.895 -18.880  0.00  0.00    +0.003 C 
ATOM     12  C   UNL     1      34.246 -21.471 -18.337  0.00  0.00    +0.037 C 
BRANCH  10  13
ATOM     13  O   UNL     1      31.868 -21.674 -18.294  0.00  0.00    -0.471 OA
ATOM     14  C   UNL     1      32.029 -22.450 -17.108  0.00  0.00    +0.252 C 
ENDBRANCH  10  13
ENDBRANCH   2   7
BRANCH   1  15
ATOM     15  C   UNL     1      34.163 -14.888 -21.938  0.00  0.00    +0.034 C 
BRANCH  15  16
ATOM     16  C   UNL     1      33.094 -13.982 -22.582  0.00  0.00    +0.064 C 
BRANCH  16  18
ATOM     17  N   UNL     1      32.040 -11.898 -21.940  0.00  0.00    -0.396 NA
ATOM     18  C   UNL     1      32.327 -13.159 -21.574  0.00  0.00    +0.110 C 
ATOM     19  C   UNL     1      31.981 -13.738 -20.373  0.00  0.00    +0.023 C 
ATOM     20  C   UNL     1      31.275 -12.954 -19.467  0.00  0.00    -0.015 C 
ATOM     21  C   UNL     1      31.354 -11.166 -21.035  0.00  0.00    +0.158 C 
ATOM     22  C   UNL     1      30.951 -11.642 -19.797  0.00  0.00    +0.100 C 
ATOM     23  N   UNL     1      31.016  -9.828 -21.356  0.00  0.00    -0.336 N 
ATOM     24  H   UNL     1      31.281  -9.448 -22.224  0.00  0.00    +0.144 HD
ATOM     25  H   UNL     1      30.516  -9.278 -20.709  0.00  0.00    +0.144 HD
ENDBRANCH  16  18
ENDBRANCH  15  16
ENDBRANCH   1  15
TORSDOF 5
ENDMDL
MODEL 7
REMARK VINA RESULT:     -10.8      4.788      9.481
REMARK  Name = 11659487
REMARK  5 active torsions:
REMARK  status: ('A' for Active; 'I' for Inactive)
REMARK    1  A    between atoms: C_1  and  C_15
REMARK    2  A    between atoms: C_2  and  C_7
REMARK    3  A    between atoms: C_10  and  O_13
REMARK    4  A    between atoms: C_15  and  C_16
REMARK    5  A    between atoms: C_16  and  C_18
REMARK                            x       y       z     vdW  Elec       q    Type
REMARK                         _______ _______ _______ _____ _____    ______ ____
ROOT
ATOM      1  C   UNL     1      32.321 -22.933 -15.952  0.00  0.00    -0.022 C 
ATOM      2  C   UNL     1      33.287 -23.845 -13.933  0.00  0.00    -0.000 C 
ATOM      3  C   UNL     1      33.422 -23.443 -15.263  0.00  0.00    -0.004 C 
ATOM      4  C   UNL     1      31.086 -22.828 -15.313  0.00  0.00    -0.004 C 
ATOM      5  C   UNL     1      32.052 -23.740 -13.294  0.00  0.00    -0.000 C 
ATOM      6  C   UNL     1      30.951 -23.231 -13.984  0.00  0.00    -0.000 C 
ENDROOT
BRANCH   2   7
ATOM      7  C   UNL     1      34.429 -24.372 -13.218  0.00  0.00    +0.003 C 
ATOM      8  C   UNL     1      35.430 -25.055 -13.908  0.00  0.00    +0.037 C 
ATOM      9  C   UNL     1      34.529 -24.196 -11.838  0.00  0.00    +0.000 C 
ATOM     10  C   UNL     1      36.531 -25.562 -13.218  0.00  0.00    +0.139 C 
ATOM     11  C   UNL     1      35.629 -24.703 -11.148  0.00  0.00    +0.003 C 
ATOM     12  C   UNL     1      36.631 -25.386 -11.838  0.00  0.00    +0.037 C 
BRANCH  10  13
ATOM     13  O   UNL     1      37.509 -26.229 -13.892  0.00  0.00    -0.471 OA
ATOM     14  C   UNL     1      38.793 -25.611 -13.953  0.00  0.00    +0.252 C 
ENDBRANCH  10  13
ENDBRANCH   2   7
BRANCH   1  15
ATOM     15  C   UNL     1      32.464 -22.502 -17.373  0.00  0.00    +0.034 C 
BRANCH  15  16
ATOM     16  C   UNL     1      33.899 -22.097 -17.764  0.00  0.00    +0.064 C 
BRANCH  16  18
ATOM     17  N   UNL     1      35.147 -20.419 -18.986  0.00  0.00    -0.396 NA
ATOM     18  C   UNL     1      33.945 -20.987 -18.786  0.00  0.00    +0.110 C 
ATOM     19  C   UNL     1      32.781 -20.634 -19.433  0.00  0.00    +0.023 C 
ATOM     20  C   UNL     1      32.857 -19.608 -20.369  0.00  0.00    -0.015 C 
ATOM     21  C   UNL     1      35.182 -19.426 -19.901  0.00  0.00    +0.158 C 
ATOM     22  C   UNL     1      34.076 -18.987 -20.613  0.00  0.00    +0.100 C 
ATOM     23  N   UNL     1      36.418 -18.783 -20.163  0.00  0.00    -0.336 N 
ATOM     24  H   UNL     1      37.229 -19.062 -19.680  0.00  0.00    +0.144 HD
ATOM     25  H   UNL     1      36.465 -18.057 -20.827  0.00  0.00    +0.144 HD
ENDBRANCH  16  18
ENDBRANCH  15  16
ENDBRANCH   1  15
TORSDOF 5
ENDMDL
MODEL 8
REMARK VINA RESULT:     -10.8      3.015      5.707
REMARK  Name = 11659487
REMARK  5 active torsions:
REMARK  status: ('A' for Active; 'I' for Inactive)
REMARK    1  A    between atoms: C_1  and  C_15
REMARK    2  A    between atoms: C_2  and  C_7
REMARK    3  A    between atoms: C_10  and  O_13
REMARK    4  A    between atoms: C_15  and  C_16
REMARK    5  A    between atoms: C_16  and  C_18
REMARK                            x       y       z     vdW  Elec       q    Type
REMARK                         _______ _______ _______ _____ _____    ______ ____
ROOT
ATOM      1  C   UNL     1      34.211 -16.290 -21.216  0.00  0.00    -0.022 C 
ATOM      2  C   UNL     1      33.367 -14.284 -22.265  0.00  0.00    -0.000 C 
ATOM      3  C   UNL     1      33.950 -15.548 -22.367  0.00  0.00    -0.004 C 
ATOM      4  C   UNL     1      33.891 -15.768 -19.962  0.00  0.00    -0.004 C 
ATOM      5  C   UNL     1      33.047 -13.762 -21.012  0.00  0.00    -0.000 C 
ATOM      6  C   UNL     1      33.309 -14.504 -19.860  0.00  0.00    -0.000 C 
ENDROOT
BRANCH   2   7
ATOM      7  C   UNL     1      33.094 -13.515 -23.460  0.00  0.00    +0.003 C 
ATOM      8  C   UNL     1      33.255 -12.130 -23.450  0.00  0.00    +0.037 C 
ATOM      9  C   UNL     1      32.672 -14.159 -24.623  0.00  0.00    +0.000 C 
ATOM     10  C   UNL     1      32.992 -11.388 -24.602  0.00  0.00    +0.139 C 
ATOM     11  C   UNL     1      32.409 -13.418 -25.775  0.00  0.00    +0.003 C 
ATOM     12  C   UNL     1      32.570 -12.032 -25.765  0.00  0.00    +0.037 C 
BRANCH  10  13
ATOM     13  O   UNL     1      33.149 -10.036 -24.592  0.00  0.00    -0.471 OA
ATOM     14  C   UNL     1      34.029  -9.491 -23.611  0.00  0.00    +0.252 C 
ENDBRANCH  10  13
ENDBRANCH   2   7
BRANCH   1  15
ATOM     15  C   UNL     1      34.833 -17.641 -21.324  0.00  0.00    +0.034 C 
BRANCH  15  16
ATOM     16  C   UNL     1      33.816 -18.797 -21.400  0.00  0.00    +0.064 C 
BRANCH  16  18
ATOM     17  N   UNL     1      32.799 -20.263 -19.762  0.00  0.00    -0.396 NA
ATOM     18  C   UNL     1      33.950 -19.783 -20.265  0.00  0.00    +0.110 C 
ATOM     19  C   UNL     1      35.212 -20.118 -19.826  0.00  0.00    +0.023 C 
ATOM     20  C   UNL     1      35.301 -21.029 -18.779  0.00  0.00    -0.015 C 
ATOM     21  C   UNL     1      32.925 -21.144 -18.746  0.00  0.00    +0.158 C 
ATOM     22  C   UNL     1      34.140 -21.557 -18.223  0.00  0.00    +0.100 C 
ATOM     23  N   UNL     1      31.752 -21.692 -18.170  0.00  0.00    -0.336 N 
ATOM     24  H   UNL     1      30.867 -21.427 -18.510  0.00  0.00    +0.144 HD
ATOM     25  H   UNL     1      31.822 -22.336 -17.428  0.00  0.00    +0.144 HD
ENDBRANCH  16  18
ENDBRANCH  15  16
ENDBRANCH   1  15
TORSDOF 5
ENDMDL
MODEL 9
REMARK VINA RESULT:     -10.8      3.881      8.224
REMARK  Name = 11659487
REMARK  5 active torsions:
REMARK  status: ('A' for Active; 'I' for Inactive)
REMARK    1  A    between atoms: C_1  and  C_15
REMARK    2  A    between atoms: C_2  and  C_7
REMARK    3  A    between atoms: C_10  and  O_13
REMARK    4  A    between atoms: C_15  and  C_16
REMARK    5  A    between atoms: C_16  and  C_18
REMARK                            x       y       z     vdW  Elec       q    Type
REMARK                         _______ _______ _______ _____ _____    ______ ____
ROOT
ATOM      1  C   UNL     1      35.085 -22.324 -15.485  0.00  0.00    -0.022 C 
ATOM      2  C   UNL     1      33.128 -23.361 -14.520  0.00  0.00    -0.000 C 
ATOM      3  C   UNL     1      33.698 -22.417 -15.376  0.00  0.00    -0.004 C 
ATOM      4  C   UNL     1      35.903 -23.172 -14.737  0.00  0.00    -0.004 C 
ATOM      5  C   UNL     1      33.945 -24.209 -13.773  0.00  0.00    -0.000 C 
ATOM      6  C   UNL     1      35.332 -24.115 -13.881  0.00  0.00    -0.000 C 
ENDROOT
BRANCH   2   7
ATOM      7  C   UNL     1      31.689 -23.459 -14.409  0.00  0.00    +0.003 C 
ATOM      8  C   UNL     1      30.872 -22.819 -15.339  0.00  0.00    +0.037 C 
ATOM      9  C   UNL     1      31.119 -24.196 -13.371  0.00  0.00    +0.000 C 
ATOM     10  C   UNL     1      29.484 -22.914 -15.232  0.00  0.00    +0.139 C 
ATOM     11  C   UNL     1      29.732 -24.292 -13.263  0.00  0.00    +0.003 C 
ATOM     12  C   UNL     1      28.914 -23.651 -14.194  0.00  0.00    +0.037 C 
BRANCH  10  13
ATOM     13  O   UNL     1      28.685 -22.289 -16.140  0.00  0.00    -0.471 OA
ATOM     14  C   UNL     1      27.304 -22.643 -16.144  0.00  0.00    +0.252 C 
ENDBRANCH  10  13
ENDBRANCH   2   7
BRANCH   1  15
ATOM     15  C   UNL     1      35.696 -21.316 -16.399  0.00  0.00    +0.034 C 
BRANCH  15  16
ATOM     16  C   UNL     1      35.698 -21.735 -17.883  0.00  0.00    +0.064 C 
BRANCH  16  18
ATOM     17  N   UNL     1      35.090 -20.053 -19.516  0.00  0.00    -0.396 NA
ATOM     18  C   UNL     1      34.646 -21.026 -18.702  0.00  0.00    +0.110 C 
ATOM     19  C   UNL     1      33.331 -21.412 -18.566  0.00  0.00    +0.023 C 
ATOM     20  C   UNL     1      32.387 -20.740 -19.335  0.00  0.00    -0.015 C 
ATOM     21  C   UNL     1      34.145 -19.422 -20.246  0.00  0.00    +0.158 C 
ATOM     22  C   UNL     1      32.793 -19.724 -20.193  0.00  0.00    +0.100 C 
ATOM     23  N   UNL     1      34.543 -18.385 -21.127  0.00  0.00    -0.336 N 
ATOM     24  H   UNL     1      35.492 -18.137 -21.197  0.00  0.00    +0.144 HD
ATOM     25  H   UNL     1      33.869 -17.913 -21.668  0.00  0.00    +0.144 HD
ENDBRANCH  16  18
ENDBRANCH  15  16
ENDBRANCH   1  15
TORSDOF 5
ENDMDL
