MODEL 1
REMARK VINA RESULT:     -13.5      0.000      0.000
REMARK  Name = 89670174
REMARK  4 active torsions:
REMARK  status: ('A' for Active; 'I' for Inactive)
REMARK    1  A    between atoms: C_3  and  C_13
REMARK    2  A    between atoms: C_9  and  O_26
REMARK    3  A    between atoms: C_18  and  C_25
REMARK    4  A    between atoms: O_26  and  C_30
REMARK                            x       y       z     vdW  Elec       q    Type
REMARK                         _______ _______ _______ _____ _____    ______ ____
ROOT
ATOM      1  O   UNL     1      33.683 -19.183 -23.285  0.00  0.00    -0.479 OA
ATOM      2  C   UNL     1      34.315 -18.421 -21.049  0.00  0.00    +0.072 C 
ATOM      3  C   UNL     1      33.176 -19.391 -20.777  0.00  0.00    +0.085 C 
ATOM      4  C   UNL     1      34.107 -19.637 -21.945  0.00  0.00    +0.174 C 
ATOM      5  C   UNL     1      34.132 -17.299 -22.004  0.00  0.00    +0.018 C 
ATOM      6  C   UNL     1      33.782 -17.801 -23.265  0.00  0.00    +0.135 C 
ATOM      7  C   UNL     1      34.253 -15.929 -21.826  0.00  0.00    +0.036 C 
ATOM      8  C   UNL     1      33.542 -16.988 -24.356  0.00  0.00    +0.040 C 
ATOM      9  C   UNL     1      34.018 -15.086 -22.917  0.00  0.00    +0.145 C 
ATOM     10  C   UNL     1      33.666 -15.612 -24.172  0.00  0.00    +0.041 C 
ENDROOT
BRANCH   3  13
ATOM     11  N   UNL     1      34.374 -20.541 -18.849  0.00  0.00    -0.318 N 
ATOM     12  N   UNL     1      32.196 -20.926 -19.069  0.00  0.00    -0.318 N 
ATOM     13  C   UNL     1      33.235 -20.291 -19.562  0.00  0.00    +0.148 C 
ATOM     14  C   UNL     1      34.048 -21.395 -17.826  0.00  0.00    +0.059 C 
ATOM     15  C   UNL     1      32.683 -21.620 -17.984  0.00  0.00    +0.059 C 
ATOM     16  C   UNL     1      34.807 -21.972 -16.807  0.00  0.00    +0.019 C 
ATOM     17  C   UNL     1      32.020 -22.468 -17.082  0.00  0.00    +0.016 C 
ATOM     18  C   UNL     1      34.130 -22.813 -15.917  0.00  0.00    +0.073 C 
ATOM     19  C   UNL     1      32.761 -23.058 -16.051  0.00  0.00    +0.005 C 
ATOM     20  H   UNL     1      35.268 -20.175 -19.036  0.00  0.00    +0.148 HD
ATOM     21  H   UNL     1      31.269 -20.909 -19.401  0.00  0.00    +0.148 HD
BRANCH  18  25
ATOM     22  F   UNL     1      34.696 -22.853 -13.595  0.00  0.00    -0.166 F 
ATOM     23  F   UNL     1      34.556 -24.767 -14.605  0.00  0.00    -0.166 F 
ATOM     24  F   UNL     1      36.234 -23.447 -15.013  0.00  0.00    -0.166 F 
ATOM     25  C   UNL     1      34.886 -23.458 -14.804  0.00  0.00    +0.419 C 
ENDBRANCH  18  25
ENDBRANCH   3  13
BRANCH   9  26
ATOM     26  O   UNL     1      34.132 -13.716 -22.760  0.00  0.00    -0.454 OA
BRANCH  26  30
ATOM     27  O   UNL     1      31.515  -7.953 -23.103  0.00  0.00    -0.275 OA
ATOM     28  N   UNL     1      31.327  -9.897 -21.895  0.00  0.00    -0.270 N 
ATOM     29  N   UNL     1      31.143 -11.845 -20.564  0.00  0.00    -0.229 NA
ATOM     30  C   UNL     1      33.168 -13.079 -22.037  0.00  0.00    +0.146 C 
ATOM     31  C   UNL     1      32.773 -11.776 -22.348  0.00  0.00    +0.045 C 
ATOM     32  C   UNL     1      33.329 -11.051 -23.535  0.00  0.00    +0.042 C 
ATOM     33  C   UNL     1      32.564 -13.753 -20.982  0.00  0.00    +0.058 C 
ATOM     34  C   UNL     1      31.760 -11.200 -21.583  0.00  0.00    +0.133 C 
ATOM     35  C   UNL     1      33.294  -9.547 -23.314  0.00  0.00    +0.090 C 
ATOM     36  C   UNL     1      31.954  -9.062 -22.799  0.00  0.00    +0.227 C 
ATOM     37  C   UNL     1      31.564 -13.098 -20.286  0.00  0.00    +0.103 C 
ATOM     38  H   UNL     1      30.524  -9.558 -21.437  0.00  0.00    +0.156 HD
ENDBRANCH  26  30
ENDBRANCH   9  26
TORSDOF 4
ENDMDL
MODEL 2
REMARK VINA RESULT:     -13.2      5.888     11.563
REMARK  Name = 89670174
REMARK  4 active torsions:
REMARK  status: ('A' for Active; 'I' for Inactive)
REMARK    1  A    between atoms: C_3  and  C_13
REMARK    2  A    between atoms: C_9  and  O_26
REMARK    3  A    between atoms: C_18  and  C_25
REMARK    4  A    between atoms: O_26  and  C_30
REMARK                            x       y       z     vdW  Elec       q    Type
REMARK                         _______ _______ _______ _____ _____    ______ ____
ROOT
ATOM      1  O   UNL     1      35.840 -19.396 -20.632  0.00  0.00    -0.479 OA
ATOM      2  C   UNL     1      33.551 -18.687 -21.115  0.00  0.00    +0.072 C 
ATOM      3  C   UNL     1      34.283 -17.372 -20.897  0.00  0.00    +0.085 C 
ATOM      4  C   UNL     1      35.015 -18.545 -21.513  0.00  0.00    +0.174 C 
ATOM      5  C   UNL     1      33.612 -19.759 -20.089  0.00  0.00    +0.018 C 
ATOM      6  C   UNL     1      34.945 -20.126 -19.866  0.00  0.00    +0.135 C 
ATOM      7  C   UNL     1      32.603 -20.393 -19.380  0.00  0.00    +0.036 C 
ATOM      8  C   UNL     1      35.313 -21.099 -18.957  0.00  0.00    +0.040 C 
ATOM      9  C   UNL     1      32.950 -21.384 -18.457  0.00  0.00    +0.145 C 
ATOM     10  C   UNL     1      34.295 -21.735 -18.247  0.00  0.00    +0.041 C 
ENDROOT
BRANCH   3  13
ATOM     11  N   UNL     1      34.066 -14.874 -21.333  0.00  0.00    -0.318 N 
ATOM     12  N   UNL     1      33.460 -16.251 -22.970  0.00  0.00    -0.318 N 
ATOM     13  C   UNL     1      33.932 -16.171 -21.747  0.00  0.00    +0.148 C 
ATOM     14  C   UNL     1      33.653 -14.064 -22.359  0.00  0.00    +0.059 C 
ATOM     15  C   UNL     1      33.280 -14.945 -23.369  0.00  0.00    +0.059 C 
ATOM     16  C   UNL     1      33.577 -12.676 -22.486  0.00  0.00    +0.019 C 
ATOM     17  C   UNL     1      32.800 -14.431 -24.585  0.00  0.00    +0.016 C 
ATOM     18  C   UNL     1      33.096 -12.180 -23.703  0.00  0.00    +0.073 C 
ATOM     19  C   UNL     1      32.715 -13.041 -24.734  0.00  0.00    +0.005 C 
ATOM     20  H   UNL     1      34.399 -14.577 -20.456  0.00  0.00    +0.148 HD
ATOM     21  H   UNL     1      33.275 -17.066 -23.490  0.00  0.00    +0.148 HD
BRANCH  18  25
ATOM     22  F   UNL     1      32.361 -10.060 -22.876  0.00  0.00    -0.166 F 
ATOM     23  F   UNL     1      34.203 -10.084 -24.020  0.00  0.00    -0.166 F 
ATOM     24  F   UNL     1      32.298 -10.375 -25.027  0.00  0.00    -0.166 F 
ATOM     25  C   UNL     1      32.993 -10.704 -23.900  0.00  0.00    +0.419 C 
ENDBRANCH  18  25
ENDBRANCH   3  13
BRANCH   9  26
ATOM     26  O   UNL     1      31.958 -22.027 -17.738  0.00  0.00    -0.454 OA
BRANCH  26  30
ATOM     27  O   UNL     1      28.599 -24.638 -13.040  0.00  0.00    -0.275 OA
ATOM     28  N   UNL     1      30.780 -24.175 -13.591  0.00  0.00    -0.270 N 
ATOM     29  N   UNL     1      33.036 -23.650 -14.069  0.00  0.00    -0.229 NA
ATOM     30  C   UNL     1      32.291 -22.545 -16.522  0.00  0.00    +0.146 C 
ATOM     31  C   UNL     1      31.319 -23.074 -15.670  0.00  0.00    +0.045 C 
ATOM     32  C   UNL     1      29.883 -23.172 -16.085  0.00  0.00    +0.042 C 
ATOM     33  C   UNL     1      33.627 -22.553 -16.139  0.00  0.00    +0.058 C 
ATOM     34  C   UNL     1      31.738 -23.612 -14.455  0.00  0.00    +0.133 C 
ATOM     35  C   UNL     1      28.967 -23.135 -14.872  0.00  0.00    +0.090 C 
ATOM     36  C   UNL     1      29.414 -24.078 -13.773  0.00  0.00    +0.227 C 
ATOM     37  C   UNL     1      33.944 -23.115 -14.916  0.00  0.00    +0.103 C 
ATOM     38  H   UNL     1      31.104 -24.670 -12.804  0.00  0.00    +0.156 HD
ENDBRANCH  26  30
ENDBRANCH   9  26
TORSDOF 4
ENDMDL
MODEL 3
REMARK VINA RESULT:     -13.0      0.735      1.342
REMARK  Name = 89670174
REMARK  4 active torsions:
REMARK  status: ('A' for Active; 'I' for Inactive)
REMARK    1  A    between atoms: C_3  and  C_13
REMARK    2  A    between atoms: C_9  and  O_26
REMARK    3  A    between atoms: C_18  and  C_25
REMARK    4  A    between atoms: O_26  and  C_30
REMARK                            x       y       z     vdW  Elec       q    Type
REMARK                         _______ _______ _______ _____ _____    ______ ____
ROOT
ATOM      1  O   UNL     1      33.714 -19.413 -23.057  0.00  0.00    -0.479 OA
ATOM      2  C   UNL     1      34.748 -18.511 -21.034  0.00  0.00    +0.072 C 
ATOM      3  C   UNL     1      33.716 -19.487 -20.491  0.00  0.00    +0.085 C 
ATOM      4  C   UNL     1      34.407 -19.780 -21.806  0.00  0.00    +0.174 C 
ATOM      5  C   UNL     1      34.345 -17.449 -21.991  0.00  0.00    +0.018 C 
ATOM      6  C   UNL     1      33.770 -18.030 -23.130  0.00  0.00    +0.135 C 
ATOM      7  C   UNL     1      34.455 -16.069 -21.913  0.00  0.00    +0.036 C 
ATOM      8  C   UNL     1      33.295 -17.287 -24.192  0.00  0.00    +0.040 C 
ATOM      9  C   UNL     1      33.983 -15.295 -22.978  0.00  0.00    +0.145 C 
ATOM     10  C   UNL     1      33.408 -15.900 -24.109  0.00  0.00    +0.041 C 
ENDROOT
BRANCH   3  13
ATOM     11  N   UNL     1      33.131 -21.088 -18.602  0.00  0.00    -0.318 N 
ATOM     12  N   UNL     1      35.232 -20.372 -18.716  0.00  0.00    -0.318 N 
ATOM     13  C   UNL     1      34.041 -20.314 -19.267  0.00  0.00    +0.148 C 
ATOM     14  C   UNL     1      33.779 -21.686 -17.551  0.00  0.00    +0.059 C 
ATOM     15  C   UNL     1      35.088 -21.224 -17.644  0.00  0.00    +0.059 C 
ATOM     16  C   UNL     1      33.345 -22.565 -16.558  0.00  0.00    +0.019 C 
ATOM     17  C   UNL     1      36.035 -21.653 -16.699  0.00  0.00    +0.016 C 
ATOM     18  C   UNL     1      34.300 -22.982 -15.625  0.00  0.00    +0.073 C 
ATOM     19  C   UNL     1      35.622 -22.536 -15.693  0.00  0.00    +0.005 C 
ATOM     20  H   UNL     1      32.180 -21.196 -18.835  0.00  0.00    +0.148 HD
ATOM     21  H   UNL     1      36.050 -19.908 -19.007  0.00  0.00    +0.148 HD
BRANCH  18  25
ATOM     22  F   UNL     1      32.546 -24.025 -14.380  0.00  0.00    -0.166 F 
ATOM     23  F   UNL     1      34.330 -25.204 -14.739  0.00  0.00    -0.166 F 
ATOM     24  F   UNL     1      34.386 -23.557 -13.321  0.00  0.00    -0.166 F 
ATOM     25  C   UNL     1      33.898 -23.925 -14.540  0.00  0.00    +0.419 C 
ENDBRANCH  18  25
ENDBRANCH   3  13
BRANCH   9  26
ATOM     26  O   UNL     1      34.082 -13.916 -22.918  0.00  0.00    -0.454 OA
BRANCH  26  30
ATOM     27  O   UNL     1      31.630  -8.074 -23.101  0.00  0.00    -0.275 OA
ATOM     28  N   UNL     1      31.458 -10.013 -21.882  0.00  0.00    -0.270 N 
ATOM     29  N   UNL     1      31.296 -11.955 -20.541  0.00  0.00    -0.229 NA
ATOM     30  C   UNL     1      33.186 -13.250 -22.137  0.00  0.00    +0.146 C 
ATOM     31  C   UNL     1      32.812 -11.936 -22.424  0.00  0.00    +0.045 C 
ATOM     32  C   UNL     1      33.316 -11.227 -23.643  0.00  0.00    +0.042 C 
ATOM     33  C   UNL     1      32.628 -13.906 -21.046  0.00  0.00    +0.058 C 
ATOM     34  C   UNL     1      31.868 -11.329 -21.597  0.00  0.00    +0.133 C 
ATOM     35  C   UNL     1      33.342  -9.723 -23.421  0.00  0.00    +0.090 C 
ATOM     36  C   UNL     1      32.052  -9.197 -22.824  0.00  0.00    +0.227 C 
ATOM     37  C   UNL     1      31.695 -13.222 -20.289  0.00  0.00    +0.103 C 
ATOM     38  H   UNL     1      30.696  -9.649 -21.375  0.00  0.00    +0.156 HD
ENDBRANCH  26  30
ENDBRANCH   9  26
TORSDOF 4
ENDMDL
MODEL 4
REMARK VINA RESULT:     -12.9      5.781     11.428
REMARK  Name = 89670174
REMARK  4 active torsions:
REMARK  status: ('A' for Active; 'I' for Inactive)
REMARK    1  A    between atoms: C_3  and  C_13
REMARK    2  A    between atoms: C_9  and  O_26
REMARK    3  A    between atoms: C_18  and  C_25
REMARK    4  A    between atoms: O_26  and  C_30
REMARK                            x       y       z     vdW  Elec       q    Type
REMARK                         _______ _______ _______ _____ _____    ______ ____
ROOT
ATOM      1  O   UNL     1      36.415 -19.243 -19.228  0.00  0.00    -0.479 OA
ATOM      2  C   UNL     1      34.393 -19.350 -20.598  0.00  0.00    +0.072 C 
ATOM      3  C   UNL     1      34.516 -17.869 -20.273  0.00  0.00    +0.085 C 
ATOM      4  C   UNL     1      35.765 -18.706 -20.441  0.00  0.00    +0.174 C 
ATOM      5  C   UNL     1      34.398 -20.359 -19.509  0.00  0.00    +0.018 C 
ATOM      6  C   UNL     1      35.583 -20.253 -18.770  0.00  0.00    +0.135 C 
ATOM      7  C   UNL     1      33.458 -21.316 -19.157  0.00  0.00    +0.036 C 
ATOM      8  C   UNL     1      35.867 -21.063 -17.687  0.00  0.00    +0.040 C 
ATOM      9  C   UNL     1      33.724 -22.150 -18.065  0.00  0.00    +0.145 C 
ATOM     10  C   UNL     1      34.920 -22.024 -17.337  0.00  0.00    +0.041 C 
ENDROOT
BRANCH   3  13
ATOM     11  N   UNL     1      34.134 -15.492 -21.098  0.00  0.00    -0.318 N 
ATOM     12  N   UNL     1      33.807 -17.140 -22.553  0.00  0.00    -0.318 N 
ATOM     13  C   UNL     1      34.150 -16.841 -21.321  0.00  0.00    +0.148 C 
ATOM     14  C   UNL     1      33.757 -14.879 -22.266  0.00  0.00    +0.059 C 
ATOM     15  C   UNL     1      33.559 -15.928 -23.159  0.00  0.00    +0.059 C 
ATOM     16  C   UNL     1      33.577 -13.538 -22.607  0.00  0.00    +0.019 C 
ATOM     17  C   UNL     1      33.159 -15.642 -24.475  0.00  0.00    +0.016 C 
ATOM     18  C   UNL     1      33.178 -13.270 -23.921  0.00  0.00    +0.073 C 
ATOM     19  C   UNL     1      32.972 -14.302 -24.839  0.00  0.00    +0.005 C 
ATOM     20  H   UNL     1      34.353 -15.041 -20.251  0.00  0.00    +0.148 HD
ATOM     21  H   UNL     1      33.743 -18.035 -22.958  0.00  0.00    +0.148 HD
BRANCH  18  25
ATOM     22  F   UNL     1      32.277 -11.108 -23.439  0.00  0.00    -0.166 F 
ATOM     23  F   UNL     1      34.136 -11.172 -24.555  0.00  0.00    -0.166 F 
ATOM     24  F   UNL     1      32.274 -11.757 -25.515  0.00  0.00    -0.166 F 
ATOM     25  C   UNL     1      32.972 -11.855 -24.347  0.00  0.00    +0.419 C 
ENDBRANCH  18  25
ENDBRANCH   3  13
BRANCH   9  26
ATOM     26  O   UNL     1      32.799 -23.110 -17.697  0.00  0.00    -0.454 OA
BRANCH  26  30
ATOM     27  O   UNL     1      33.810 -24.063 -11.513  0.00  0.00    -0.275 OA
ATOM     28  N   UNL     1      32.222 -23.176 -12.916  0.00  0.00    -0.270 N 
ATOM     29  N   UNL     1      30.518 -22.322 -14.316  0.00  0.00    -0.229 NA
ATOM     30  C   UNL     1      32.056 -22.878 -16.578  0.00  0.00    +0.146 C 
ATOM     31  C   UNL     1      32.545 -23.188 -15.308  0.00  0.00    +0.045 C 
ATOM     32  C   UNL     1      33.933 -23.714 -15.109  0.00  0.00    +0.042 C 
ATOM     33  C   UNL     1      30.796 -22.308 -16.716  0.00  0.00    +0.058 C 
ATOM     34  C   UNL     1      31.740 -22.895 -14.208  0.00  0.00    +0.133 C 
ATOM     35  C   UNL     1      34.016 -24.561 -13.849  0.00  0.00    +0.090 C 
ATOM     36  C   UNL     1      33.373 -23.891 -12.651  0.00  0.00    +0.227 C 
ATOM     37  C   UNL     1      30.076 -22.050 -15.563  0.00  0.00    +0.103 C 
ATOM     38  H   UNL     1      31.704 -22.841 -12.148  0.00  0.00    +0.156 HD
ENDBRANCH  26  30
ENDBRANCH   9  26
TORSDOF 4
ENDMDL
MODEL 5
REMARK VINA RESULT:     -12.3      2.037      3.336
REMARK  Name = 89670174
REMARK  4 active torsions:
REMARK  status: ('A' for Active; 'I' for Inactive)
REMARK    1  A    between atoms: C_3  and  C_13
REMARK    2  A    between atoms: C_9  and  O_26
REMARK    3  A    between atoms: C_18  and  C_25
REMARK    4  A    between atoms: O_26  and  C_30
REMARK                            x       y       z     vdW  Elec       q    Type
REMARK                         _______ _______ _______ _____ _____    ______ ____
ROOT
ATOM      1  O   UNL     1      34.009 -16.657 -24.583  0.00  0.00    -0.479 OA
ATOM      2  C   UNL     1      33.910 -16.222 -22.179  0.00  0.00    +0.072 C 
ATOM      3  C   UNL     1      33.253 -17.588 -22.314  0.00  0.00    +0.085 C 
ATOM      4  C   UNL     1      34.371 -17.197 -23.257  0.00  0.00    +0.174 C 
ATOM      5  C   UNL     1      33.424 -15.075 -22.987  0.00  0.00    +0.018 C 
ATOM      6  C   UNL     1      33.517 -15.382 -24.351  0.00  0.00    +0.135 C 
ATOM      7  C   UNL     1      32.932 -13.838 -22.599  0.00  0.00    +0.036 C 
ATOM      8  C   UNL     1      33.131 -14.504 -25.345  0.00  0.00    +0.040 C 
ATOM      9  C   UNL     1      32.538 -12.930 -23.588  0.00  0.00    +0.145 C 
ATOM     10  C   UNL     1      32.637 -13.262 -24.951  0.00  0.00    +0.041 C 
ENDROOT
BRANCH   3  13
ATOM     11  N   UNL     1      32.498 -19.316 -20.606  0.00  0.00    -0.318 N 
ATOM     12  N   UNL     1      34.686 -19.011 -20.846  0.00  0.00    -0.318 N 
ATOM     13  C   UNL     1      33.494 -18.640 -21.254  0.00  0.00    +0.148 C 
ATOM     14  C   UNL     1      33.088 -20.183 -19.721  0.00  0.00    +0.059 C 
ATOM     15  C   UNL     1      34.453 -19.974 -19.890  0.00  0.00    +0.059 C 
ATOM     16  C   UNL     1      32.559 -21.103 -18.815  0.00  0.00    +0.019 C 
ATOM     17  C   UNL     1      35.361 -20.718 -19.118  0.00  0.00    +0.016 C 
ATOM     18  C   UNL     1      33.477 -21.836 -18.054  0.00  0.00    +0.073 C 
ATOM     19  C   UNL     1      34.853 -21.648 -18.202  0.00  0.00    +0.005 C 
ATOM     20  H   UNL     1      31.531 -19.202 -20.748  0.00  0.00    +0.148 HD
ATOM     21  H   UNL     1      35.558 -18.676 -21.157  0.00  0.00    +0.148 HD
BRANCH  18  25
ATOM     22  F   UNL     1      33.846 -23.085 -16.049  0.00  0.00    -0.166 F 
ATOM     23  F   UNL     1      31.808 -22.469 -16.461  0.00  0.00    -0.166 F 
ATOM     24  F   UNL     1      32.722 -24.051 -17.640  0.00  0.00    -0.166 F 
ATOM     25  C   UNL     1      32.973 -22.838 -17.069  0.00  0.00    +0.419 C 
ENDBRANCH  18  25
ENDBRANCH   3  13
BRANCH   9  26
ATOM     26  O   UNL     1      32.043 -11.692 -23.222  0.00  0.00    -0.454 OA
BRANCH  26  30
ATOM     27  O   UNL     1      32.016  -5.756 -20.998  0.00  0.00    -0.275 OA
ATOM     28  N   UNL     1      33.252  -7.105 -22.386  0.00  0.00    -0.270 N 
ATOM     29  N   UNL     1      34.518  -8.423 -23.889  0.00  0.00    -0.229 NA
ATOM     30  C   UNL     1      32.831 -10.603 -23.444  0.00  0.00    +0.146 C 
ATOM     31  C   UNL     1      32.592  -9.391 -22.794  0.00  0.00    +0.045 C 
ATOM     32  C   UNL     1      31.512  -9.253 -21.766  0.00  0.00    +0.042 C 
ATOM     33  C   UNL     1      33.900 -10.717 -24.326  0.00  0.00    +0.058 C 
ATOM     34  C   UNL     1      33.458  -8.329 -23.050  0.00  0.00    +0.133 C 
ATOM     35  C   UNL     1      31.012  -7.819 -21.695  0.00  0.00    +0.090 C 
ATOM     36  C   UNL     1      32.139  -6.809 -21.624  0.00  0.00    +0.227 C 
ATOM     37  C   UNL     1      34.706  -9.608 -24.509  0.00  0.00    +0.103 C 
ATOM     38  H   UNL     1      33.946  -6.412 -22.472  0.00  0.00    +0.156 HD
ENDBRANCH  26  30
ENDBRANCH   9  26
TORSDOF 4
ENDMDL
MODEL 6
REMARK VINA RESULT:     -12.2      6.561     12.403
REMARK  Name = 89670174
REMARK  4 active torsions:
REMARK  status: ('A' for Active; 'I' for Inactive)
REMARK    1  A    between atoms: C_3  and  C_13
REMARK    2  A    between atoms: C_9  and  O_26
REMARK    3  A    between atoms: C_18  and  C_25
REMARK    4  A    between atoms: O_26  and  C_30
REMARK                            x       y       z     vdW  Elec       q    Type
REMARK                         _______ _______ _______ _____ _____    ______ ____
ROOT
ATOM      1  O   UNL     1      30.264 -23.151 -15.764  0.00  0.00    -0.479 OA
ATOM      2  C   UNL     1      32.452 -22.068 -15.631  0.00  0.00    +0.072 C 
ATOM      3  C   UNL     1      32.365 -22.500 -17.086  0.00  0.00    +0.085 C 
ATOM      4  C   UNL     1      31.108 -22.090 -16.350  0.00  0.00    +0.174 C 
ATOM      5  C   UNL     1      32.236 -23.055 -14.542  0.00  0.00    +0.018 C 
ATOM      6  C   UNL     1      30.965 -23.631 -14.669  0.00  0.00    +0.135 C 
ATOM      7  C   UNL     1      33.062 -23.449 -13.501  0.00  0.00    +0.036 C 
ATOM      8  C   UNL     1      30.487 -24.591 -13.799  0.00  0.00    +0.040 C 
ATOM      9  C   UNL     1      32.598 -24.417 -12.604  0.00  0.00    +0.145 C 
ATOM     10  C   UNL     1      31.320 -24.984 -12.752  0.00  0.00    +0.041 C 
ENDROOT
BRANCH   3  13
ATOM     11  N   UNL     1      32.173 -20.948 -19.095  0.00  0.00    -0.318 N 
ATOM     12  N   UNL     1      34.215 -21.367 -18.323  0.00  0.00    -0.318 N 
ATOM     13  C   UNL     1      32.933 -21.604 -18.166  0.00  0.00    +0.148 C 
ATOM     14  C   UNL     1      33.023 -20.239 -19.905  0.00  0.00    +0.059 C 
ATOM     15  C   UNL     1      34.291 -20.516 -19.403  0.00  0.00    +0.059 C 
ATOM     16  C   UNL     1      32.798 -19.404 -21.000  0.00  0.00    +0.019 C 
ATOM     17  C   UNL     1      35.413 -19.935 -20.017  0.00  0.00    +0.016 C 
ATOM     18  C   UNL     1      33.926 -18.834 -21.600  0.00  0.00    +0.073 C 
ATOM     19  C   UNL     1      35.211 -19.093 -21.118  0.00  0.00    +0.005 C 
ATOM     20  H   UNL     1      31.192 -20.980 -19.169  0.00  0.00    +0.148 HD
ATOM     21  H   UNL     1      34.961 -21.719 -17.785  0.00  0.00    +0.148 HD
BRANCH  18  25
ATOM     22  F   UNL     1      32.718 -18.293 -23.592  0.00  0.00    -0.166 F 
ATOM     23  F   UNL     1      33.495 -16.633 -22.432  0.00  0.00    -0.166 F 
ATOM     24  F   UNL     1      34.854 -17.889 -23.573  0.00  0.00    -0.166 F 
ATOM     25  C   UNL     1      33.749 -17.930 -22.774  0.00  0.00    +0.419 C 
ENDBRANCH  18  25
ENDBRANCH   3  13
BRANCH   9  26
ATOM     26  O   UNL     1      33.407 -24.825 -11.558  0.00  0.00    -0.454 OA
BRANCH  26  30
ATOM     27  O   UNL     1      38.895 -25.984 -14.511  0.00  0.00    -0.275 OA
ATOM     28  N   UNL     1      38.007 -24.543 -12.959  0.00  0.00    -0.270 N 
ATOM     29  N   UNL     1      37.169 -23.082 -11.298  0.00  0.00    -0.229 NA
ATOM     30  C   UNL     1      34.653 -24.280 -11.471  0.00  0.00    +0.146 C 
ATOM     31  C   UNL     1      35.702 -24.739 -12.270  0.00  0.00    +0.045 C 
ATOM     32  C   UNL     1      35.489 -25.794 -13.312  0.00  0.00    +0.042 C 
ATOM     33  C   UNL     1      34.868 -23.237 -10.577  0.00  0.00    +0.058 C 
ATOM     34  C   UNL     1      36.941 -24.113 -12.146  0.00  0.00    +0.133 C 
ATOM     35  C   UNL     1      36.772 -26.571 -13.564  0.00  0.00    +0.090 C 
ATOM     36  C   UNL     1      37.974 -25.669 -13.757  0.00  0.00    +0.227 C 
ATOM     37  C   UNL     1      36.132 -22.676 -10.533  0.00  0.00    +0.103 C 
ATOM     38  H   UNL     1      38.832 -24.005 -12.958  0.00  0.00    +0.156 HD
ENDBRANCH  26  30
ENDBRANCH   9  26
TORSDOF 4
ENDMDL
MODEL 7
REMARK VINA RESULT:     -12.2      1.625      2.441
REMARK  Name = 89670174
REMARK  4 active torsions:
REMARK  status: ('A' for Active; 'I' for Inactive)
REMARK    1  A    between atoms: C_3  and  C_13
REMARK    2  A    between atoms: C_9  and  O_26
REMARK    3  A    between atoms: C_18  and  C_25
REMARK    4  A    between atoms: O_26  and  C_30
REMARK                            x       y       z     vdW  Elec       q    Type
REMARK                         _______ _______ _______ _____ _____    ______ ____
ROOT
ATOM      1  O   UNL     1      33.624 -17.172 -24.403  0.00  0.00    -0.479 OA
ATOM      2  C   UNL     1      34.184 -16.660 -22.079  0.00  0.00    +0.072 C 
ATOM      3  C   UNL     1      33.216 -17.828 -21.955  0.00  0.00    +0.085 C 
ATOM      4  C   UNL     1      34.146 -17.747 -23.147  0.00  0.00    +0.174 C 
ATOM      5  C   UNL     1      33.804 -15.452 -22.854  0.00  0.00    +0.018 C 
ATOM      6  C   UNL     1      33.506 -15.810 -24.176  0.00  0.00    +0.135 C 
ATOM      7  C   UNL     1      33.714 -14.122 -22.472  0.00  0.00    +0.036 C 
ATOM      8  C   UNL     1      33.116 -14.892 -25.131  0.00  0.00    +0.040 C 
ATOM      9  C   UNL     1      33.324 -13.174 -23.423  0.00  0.00    +0.145 C 
ATOM     10  C   UNL     1      33.027 -13.556 -24.743  0.00  0.00    +0.041 C 
ENDROOT
BRANCH   3  13
ATOM     11  N   UNL     1      32.441 -19.562 -20.262  0.00  0.00    -0.318 N 
ATOM     12  N   UNL     1      34.631 -19.238 -20.458  0.00  0.00    -0.318 N 
ATOM     13  C   UNL     1      33.444 -18.877 -20.890  0.00  0.00    +0.148 C 
ATOM     14  C   UNL     1      33.020 -20.423 -19.365  0.00  0.00    +0.059 C 
ATOM     15  C   UNL     1      34.387 -20.202 -19.506  0.00  0.00    +0.059 C 
ATOM     16  C   UNL     1      32.481 -21.348 -18.469  0.00  0.00    +0.019 C 
ATOM     17  C   UNL     1      35.285 -20.938 -18.714  0.00  0.00    +0.016 C 
ATOM     18  C   UNL     1      33.390 -22.071 -17.689  0.00  0.00    +0.073 C 
ATOM     19  C   UNL     1      34.767 -21.871 -17.809  0.00  0.00    +0.005 C 
ATOM     20  H   UNL     1      31.476 -19.457 -20.425  0.00  0.00    +0.148 HD
ATOM     21  H   UNL     1      35.506 -18.894 -20.751  0.00  0.00    +0.148 HD
BRANCH  18  25
ATOM     22  F   UNL     1      33.758 -23.370 -15.715  0.00  0.00    -0.166 F 
ATOM     23  F   UNL     1      31.732 -22.687 -16.078  0.00  0.00    -0.166 F 
ATOM     24  F   UNL     1      32.578 -24.271 -17.303  0.00  0.00    -0.166 F 
ATOM     25  C   UNL     1      32.875 -23.078 -16.714  0.00  0.00    +0.419 C 
ENDBRANCH  18  25
ENDBRANCH   3  13
BRANCH   9  26
ATOM     26  O   UNL     1      33.227 -11.842 -23.061  0.00  0.00    -0.454 OA
BRANCH  26  30
ATOM     27  O   UNL     1      30.564  -6.361 -21.316  0.00  0.00    -0.275 OA
ATOM     28  N   UNL     1      30.451  -8.602 -20.826  0.00  0.00    -0.270 N 
ATOM     29  N   UNL     1      30.348 -10.887 -20.223  0.00  0.00    -0.229 NA
ATOM     30  C   UNL     1      32.299 -11.507 -22.121  0.00  0.00    +0.146 C 
ATOM     31  C   UNL     1      31.881 -10.186 -21.955  0.00  0.00    +0.045 C 
ATOM     32  C   UNL     1      32.370  -9.090 -22.853  0.00  0.00    +0.042 C 
ATOM     33  C   UNL     1      31.755 -12.510 -21.327  0.00  0.00    +0.058 C 
ATOM     34  C   UNL     1      30.907  -9.923 -20.993  0.00  0.00    +0.133 C 
ATOM     35  C   UNL     1      32.338  -7.750 -22.136  0.00  0.00    +0.090 C 
ATOM     36  C   UNL     1      31.024  -7.498 -21.424  0.00  0.00    +0.227 C 
ATOM     37  C   UNL     1      30.790 -12.151 -20.404  0.00  0.00    +0.103 C 
ATOM     38  H   UNL     1      29.671  -8.455 -20.243  0.00  0.00    +0.156 HD
ENDBRANCH  26  30
ENDBRANCH   9  26
TORSDOF 4
ENDMDL
MODEL 8
REMARK VINA RESULT:     -11.9      4.913      8.028
REMARK  Name = 89670174
REMARK  4 active torsions:
REMARK  status: ('A' for Active; 'I' for Inactive)
REMARK    1  A    between atoms: C_3  and  C_13
REMARK    2  A    between atoms: C_9  and  O_26
REMARK    3  A    between atoms: C_18  and  C_25
REMARK    4  A    between atoms: O_26  and  C_30
REMARK                            x       y       z     vdW  Elec       q    Type
REMARK                         _______ _______ _______ _____ _____    ______ ____
ROOT
ATOM      1  O   UNL     1      31.048 -10.813 -18.935  0.00  0.00    -0.479 OA
ATOM      2  C   UNL     1      31.287 -11.203 -21.337  0.00  0.00    +0.072 C 
ATOM      3  C   UNL     1      32.442 -11.992 -20.739  0.00  0.00    +0.085 C 
ATOM      4  C   UNL     1      31.145 -11.862 -19.970  0.00  0.00    +0.174 C 
ATOM      5  C   UNL     1      31.111  -9.766 -21.007  0.00  0.00    +0.018 C 
ATOM      6  C   UNL     1      30.970  -9.611 -19.622  0.00  0.00    +0.135 C 
ATOM      7  C   UNL     1      31.071  -8.647 -21.825  0.00  0.00    +0.036 C 
ATOM      8  C   UNL     1      30.795  -8.381 -19.018  0.00  0.00    +0.040 C 
ATOM      9  C   UNL     1      30.892  -7.391 -21.238  0.00  0.00    +0.145 C 
ATOM     10  C   UNL     1      30.755  -7.259 -19.845  0.00  0.00    +0.041 C 
ENDROOT
BRANCH   3  13
ATOM     11  N   UNL     1      33.427 -14.337 -20.648  0.00  0.00    -0.318 N 
ATOM     12  N   UNL     1      32.635 -13.641 -22.604  0.00  0.00    -0.318 N 
ATOM     13  C   UNL     1      32.830 -13.323 -21.345  0.00  0.00    +0.148 C 
ATOM     14  C   UNL     1      33.629 -15.379 -21.517  0.00  0.00    +0.059 C 
ATOM     15  C   UNL     1      33.126 -14.921 -22.731  0.00  0.00    +0.059 C 
ATOM     16  C   UNL     1      34.192 -16.645 -21.349  0.00  0.00    +0.019 C 
ATOM     17  C   UNL     1      33.180 -15.761 -23.855  0.00  0.00    +0.016 C 
ATOM     18  C   UNL     1      34.238 -17.468 -22.479  0.00  0.00    +0.073 C 
ATOM     19  C   UNL     1      33.740 -17.036 -23.710  0.00  0.00    +0.005 C 
ATOM     20  H   UNL     1      33.669 -14.322 -19.694  0.00  0.00    +0.148 HD
ATOM     21  H   UNL     1      32.225 -13.085 -23.306  0.00  0.00    +0.148 HD
BRANCH  18  25
ATOM     22  F   UNL     1      34.424 -19.508 -21.244  0.00  0.00    -0.166 F 
ATOM     23  F   UNL     1      34.509 -19.657 -23.406  0.00  0.00    -0.166 F 
ATOM     24  F   UNL     1      36.188 -18.816 -22.310  0.00  0.00    -0.166 F 
ATOM     25  C   UNL     1      34.825 -18.835 -22.363  0.00  0.00    +0.419 C 
ENDBRANCH  18  25
ENDBRANCH   3  13
BRANCH   9  26
ATOM     26  O   UNL     1      30.850  -6.262 -22.037  0.00  0.00    -0.454 OA
BRANCH  26  30
ATOM     27  O   UNL     1      30.785  -5.941 -28.366  0.00  0.00    -0.275 OA
ATOM     28  N   UNL     1      32.268  -5.813 -26.618  0.00  0.00    -0.270 N 
ATOM     29  N   UNL     1      33.853  -5.753 -24.862  0.00  0.00    -0.229 NA
ATOM     30  C   UNL     1      31.824  -6.116 -22.978  0.00  0.00    +0.146 C 
ATOM     31  C   UNL     1      31.514  -6.069 -24.339  0.00  0.00    +0.045 C 
ATOM     32  C   UNL     1      30.096  -6.095 -24.821  0.00  0.00    +0.042 C 
ATOM     33  C   UNL     1      33.146  -6.000 -22.565  0.00  0.00    +0.058 C 
ATOM     34  C   UNL     1      32.560  -5.889 -25.242  0.00  0.00    +0.133 C 
ATOM     35  C   UNL     1      30.011  -6.681 -26.221  0.00  0.00    +0.090 C 
ATOM     36  C   UNL     1      31.031  -6.082 -27.168  0.00  0.00    +0.227 C 
ATOM     37  C   UNL     1      34.113  -5.818 -23.537  0.00  0.00    +0.103 C 
ATOM     38  H   UNL     1      32.995  -5.551 -27.228  0.00  0.00    +0.156 HD
ENDBRANCH  26  30
ENDBRANCH   9  26
TORSDOF 4
ENDMDL
MODEL 9
REMARK VINA RESULT:     -11.9      5.306      9.375
REMARK  Name = 89670174
REMARK  4 active torsions:
REMARK  status: ('A' for Active; 'I' for Inactive)
REMARK    1  A    between atoms: C_3  and  C_13
REMARK    2  A    between atoms: C_9  and  O_26
REMARK    3  A    between atoms: C_18  and  C_25
REMARK    4  A    between atoms: O_26  and  C_30
REMARK                            x       y       z     vdW  Elec       q    Type
REMARK                         _______ _______ _______ _____ _____    ______ ____
ROOT
ATOM      1  O   UNL     1      31.976  -8.584 -22.078  0.00  0.00    -0.479 OA
ATOM      2  C   UNL     1      32.783  -9.753 -24.068  0.00  0.00    +0.072 C 
ATOM      3  C   UNL     1      33.310 -10.607 -22.925  0.00  0.00    +0.085 C 
ATOM      4  C   UNL     1      31.987  -9.887 -22.775  0.00  0.00    +0.174 C 
ATOM      5  C   UNL     1      33.067  -8.296 -24.108  0.00  0.00    +0.018 C 
ATOM      6  C   UNL     1      32.572  -7.685 -22.948  0.00  0.00    +0.135 C 
ATOM      7  C   UNL     1      33.706  -7.524 -25.066  0.00  0.00    +0.036 C 
ATOM      8  C   UNL     1      32.695  -6.331 -22.703  0.00  0.00    +0.040 C 
ATOM      9  C   UNL     1      33.839  -6.150 -24.842  0.00  0.00    +0.145 C 
ATOM     10  C   UNL     1      33.338  -5.558 -23.670  0.00  0.00    +0.041 C 
ENDROOT
BRANCH   3  13
ATOM     11  N   UNL     1      33.831 -12.964 -22.119  0.00  0.00    -0.318 N 
ATOM     12  N   UNL     1      32.887 -12.758 -24.121  0.00  0.00    -0.318 N 
ATOM     13  C   UNL     1      33.336 -12.113 -23.069  0.00  0.00    +0.148 C 
ATOM     14  C   UNL     1      33.691 -14.244 -22.592  0.00  0.00    +0.059 C 
ATOM     15  C   UNL     1      33.100 -14.090 -23.842  0.00  0.00    +0.059 C 
ATOM     16  C   UNL     1      34.022 -15.487 -22.049  0.00  0.00    +0.019 C 
ATOM     17  C   UNL     1      32.813 -15.230 -24.611  0.00  0.00    +0.016 C 
ATOM     18  C   UNL     1      33.730 -16.612 -22.827  0.00  0.00    +0.073 C 
ATOM     19  C   UNL     1      33.136 -16.487 -24.085  0.00  0.00    +0.005 C 
ATOM     20  H   UNL     1      34.219 -12.705 -21.253  0.00  0.00    +0.148 HD
ATOM     21  H   UNL     1      32.485 -12.374 -24.934  0.00  0.00    +0.148 HD
BRANCH  18  25
ATOM     22  F   UNL     1      34.151 -18.016 -20.939  0.00  0.00    -0.166 F 
ATOM     23  F   UNL     1      33.134 -18.920 -22.627  0.00  0.00    -0.166 F 
ATOM     24  F   UNL     1      35.249 -18.438 -22.768  0.00  0.00    -0.166 F 
ATOM     25  C   UNL     1      34.057 -17.969 -22.300  0.00  0.00    +0.419 C 
ENDBRANCH  18  25
ENDBRANCH   3  13
BRANCH   9  26
ATOM     26  O   UNL     1      34.475  -5.362 -25.785  0.00  0.00    -0.454 OA
BRANCH  26  30
ATOM     27  O   UNL     1      29.766  -4.886 -30.000  0.00  0.00    -0.275 OA
ATOM     28  N   UNL     1      31.948  -5.590 -29.879  0.00  0.00    -0.270 N 
ATOM     29  N   UNL     1      34.168  -6.403 -29.795  0.00  0.00    -0.229 NA
ATOM     30  C   UNL     1      34.349  -5.716 -27.095  0.00  0.00    +0.146 C 
ATOM     31  C   UNL     1      33.167  -5.479 -27.798  0.00  0.00    +0.045 C 
ATOM     32  C   UNL     1      32.014  -4.755 -27.172  0.00  0.00    +0.042 C 
ATOM     33  C   UNL     1      35.430  -6.310 -27.736  0.00  0.00    +0.058 C 
ATOM     34  C   UNL     1      33.122  -5.842 -29.143  0.00  0.00    +0.133 C 
ATOM     35  C   UNL     1      30.700  -5.176 -27.811  0.00  0.00    +0.090 C 
ATOM     36  C   UNL     1      30.757  -5.166 -29.326  0.00  0.00    +0.227 C 
ATOM     37  C   UNL     1      35.290  -6.628 -29.075  0.00  0.00    +0.103 C 
ATOM     38  H   UNL     1      31.979  -5.725 -30.854  0.00  0.00    +0.156 HD
ENDBRANCH  26  30
ENDBRANCH   9  26
TORSDOF 4
ENDMDL
