MODEL 1
REMARK VINA RESULT:     -13.6      0.000      0.000
REMARK  Name = 25171648
REMARK  8 active torsions:
REMARK  status: ('A' for Active; 'I' for Inactive)
REMARK    1  A    between atoms: C_1  and  C_12
REMARK    2  A    between atoms: C_2  and  C_23
REMARK    3  A    between atoms: C_9  and  O_13
REMARK    4  A    between atoms: O_13  and  C_14
REMARK    5  A    between atoms: C_14  and  C_16
REMARK    6  A    between atoms: C_23  and  N_25
REMARK    7  A    between atoms: C_27  and  C_31
REMARK    8  A    between atoms: C_34  and  C_38
REMARK                            x       y       z     vdW  Elec       q    Type
REMARK                         _______ _______ _______ _____ _____    ______ ____
ROOT
ATOM      1  C   UNL     1      34.463 -20.143 -19.500  0.00  0.00    +0.062 C 
ATOM      2  C   UNL     1      33.424 -21.894 -18.199  0.00  0.00    +0.000 C 
ATOM      3  C   UNL     1      33.355 -20.942 -19.217  0.00  0.00    +0.007 C 
ATOM      4  C   UNL     1      35.638 -20.295 -18.765  0.00  0.00    +0.010 C 
ATOM      5  C   UNL     1      34.600 -22.047 -17.465  0.00  0.00    -0.003 C 
ATOM      6  C   UNL     1      35.707 -21.248 -17.749  0.00  0.00    +0.000 C 
ENDROOT
BRANCH   1  12
ATOM      7  N   UNL     1      33.816 -19.552 -21.702  0.00  0.00    -0.212 NA
ATOM      8  N   UNL     1      34.907 -17.947 -20.273  0.00  0.00    -0.190 NA
ATOM      9  C   UNL     1      34.259 -17.327 -22.507  0.00  0.00    +0.161 C 
ATOM     10  C   UNL     1      33.767 -18.606 -22.663  0.00  0.00    +0.201 C 
ATOM     11  C   UNL     1      34.823 -17.050 -21.278  0.00  0.00    +0.144 C 
ATOM     12  C   UNL     1      34.392 -19.160 -20.550  0.00  0.00    +0.031 C 
BRANCH   9  13
ATOM     13  O   UNL     1      34.190 -16.389 -23.508  0.00  0.00    -0.476 OA
BRANCH  13  14
ATOM     14  C   UNL     1      32.927 -16.183 -24.111  0.00  0.00    +0.205 C 
BRANCH  14  16
ATOM     15  N   UNL     1      33.369 -11.890 -24.291  0.00  0.00    +0.386 N 
ATOM     16  C   UNL     1      32.579 -14.701 -24.017  0.00  0.00    +0.040 C 
ATOM     17  C   UNL     1      32.720 -14.015 -25.380  0.00  0.00    -0.019 C 
ATOM     18  C   UNL     1      33.463 -13.991 -22.987  0.00  0.00    -0.019 C 
ATOM     19  C   UNL     1      32.470 -12.509 -25.275  0.00  0.00    -0.077 C 
ATOM     20  C   UNL     1      33.188 -12.486 -22.960  0.00  0.00    -0.077 C 
ATOM     21  C   UNL     1      33.153 -10.444 -24.239  0.00  0.00    -0.101 C 
ATOM     22  H   UNL     1      34.329 -12.068 -24.587  0.00  0.00    -0.080 HD
ENDBRANCH  14  16
ENDBRANCH  13  14
ENDBRANCH   9  13
ENDBRANCH   1  12
BRANCH   2  23
ATOM     23  C   UNL     1      32.240 -22.749 -17.896  0.00  0.00    +0.146 C 
BRANCH  23  25
ATOM     24  O   UNL     1      29.856 -21.923 -16.537  0.00  0.00    -0.268 OA
ATOM     25  N   UNL     1      31.985 -22.853 -16.469  0.00  0.00    -0.173 N 
ATOM     26  N   UNL     1      33.008 -23.392 -15.743  0.00  0.00    -0.175 NA
ATOM     27  C   UNL     1      32.855 -23.508 -14.463  0.00  0.00    +0.099 C 
ATOM     28  C   UNL     1      30.790 -22.423 -15.910  0.00  0.00    +0.268 C 
ATOM     29  C   UNL     1      31.636 -23.121 -13.728  0.00  0.00    +0.025 C 
ATOM     30  C   UNL     1      30.648 -22.595 -14.449  0.00  0.00    +0.061 C 
BRANCH  27  31
ATOM     31  C   UNL     1      33.965 -24.089 -13.660  0.00  0.00    +0.020 C 
ATOM     32  C   UNL     1      34.033 -23.850 -12.287  0.00  0.00    +0.012 C 
ATOM     33  C   UNL     1      34.937 -24.874 -14.280  0.00  0.00    +0.002 C 
ATOM     34  C   UNL     1      35.073 -24.395 -11.536  0.00  0.00    +0.068 C 
ATOM     35  C   UNL     1      35.978 -25.419 -13.528  0.00  0.00    +0.001 C 
ATOM     36  C   UNL     1      36.046 -25.180 -12.156  0.00  0.00    +0.010 C 
BRANCH  34  38
ATOM     37  N   UNL     1      35.202 -23.951  -8.987  0.00  0.00    -0.191 NA
ATOM     38  C   UNL     1      35.144 -24.150 -10.129  0.00  0.00    +0.100 C 
ENDBRANCH  34  38
ENDBRANCH  27  31
ENDBRANCH  23  25
ENDBRANCH   2  23
TORSDOF 8
ENDMDL
MODEL 2
REMARK VINA RESULT:     -13.4      2.175      3.725
REMARK  Name = 25171648
REMARK  8 active torsions:
REMARK  status: ('A' for Active; 'I' for Inactive)
REMARK    1  A    between atoms: C_1  and  C_12
REMARK    2  A    between atoms: C_2  and  C_23
REMARK    3  A    between atoms: C_9  and  O_13
REMARK    4  A    between atoms: O_13  and  C_14
REMARK    5  A    between atoms: C_14  and  C_16
REMARK    6  A    between atoms: C_23  and  N_25
REMARK    7  A    between atoms: C_27  and  C_31
REMARK    8  A    between atoms: C_34  and  C_38
REMARK                            x       y       z     vdW  Elec       q    Type
REMARK                         _______ _______ _______ _____ _____    ______ ____
ROOT
ATOM      1  C   UNL     1      33.581 -19.947 -19.812  0.00  0.00    +0.062 C 
ATOM      2  C   UNL     1      34.538 -21.431 -18.163  0.00  0.00    +0.000 C 
ATOM      3  C   UNL     1      34.694 -20.436 -19.129  0.00  0.00    +0.007 C 
ATOM      4  C   UNL     1      32.312 -20.452 -19.529  0.00  0.00    +0.010 C 
ATOM      5  C   UNL     1      33.269 -21.936 -17.881  0.00  0.00    -0.003 C 
ATOM      6  C   UNL     1      32.156 -21.446 -18.563  0.00  0.00    +0.000 C 
ENDROOT
BRANCH   1  12
ATOM      7  N   UNL     1      33.284 -19.203 -22.042  0.00  0.00    -0.212 NA
ATOM      8  N   UNL     1      34.335 -17.780 -20.407  0.00  0.00    -0.190 NA
ATOM      9  C   UNL     1      34.043 -17.006 -22.667  0.00  0.00    +0.161 C 
ATOM     10  C   UNL     1      33.451 -18.220 -22.951  0.00  0.00    +0.201 C 
ATOM     11  C   UNL     1      34.470 -16.840 -21.365  0.00  0.00    +0.144 C 
ATOM     12  C   UNL     1      33.742 -18.921 -20.809  0.00  0.00    +0.031 C 
BRANCH   9  13
ATOM     13  O   UNL     1      34.196 -16.027 -23.617  0.00  0.00    -0.476 OA
BRANCH  13  14
ATOM     14  C   UNL     1      33.083 -15.757 -24.449  0.00  0.00    +0.205 C 
BRANCH  14  16
ATOM     15  N   UNL     1      33.372 -11.451 -24.278  0.00  0.00    +0.386 N 
ATOM     16  C   UNL     1      32.676 -14.299 -24.259  0.00  0.00    +0.040 C 
ATOM     17  C   UNL     1      32.855 -13.505 -25.558  0.00  0.00    -0.019 C 
ATOM     18  C   UNL     1      33.484 -13.642 -23.135  0.00  0.00    -0.019 C 
ATOM     19  C   UNL     1      32.544 -12.021 -25.350  0.00  0.00    -0.077 C 
ATOM     20  C   UNL     1      33.152 -12.154 -23.007  0.00  0.00    -0.077 C 
ATOM     21  C   UNL     1      33.100 -10.021 -24.127  0.00  0.00    -0.101 C 
ATOM     22  H   UNL     1      34.350 -11.572 -24.539  0.00  0.00    -0.080 HD
ENDBRANCH  14  16
ENDBRANCH  13  14
ENDBRANCH   9  13
ENDBRANCH   1  12
BRANCH   2  23
ATOM     23  C   UNL     1      35.728 -21.955 -17.432  0.00  0.00    +0.146 C 
BRANCH  23  25
ATOM     24  O   UNL     1      37.585 -21.981 -15.249  0.00  0.00    -0.268 OA
ATOM     25  N   UNL     1      35.425 -22.288 -16.050  0.00  0.00    -0.173 N 
ATOM     26  N   UNL     1      34.122 -22.623 -15.815  0.00  0.00    -0.175 NA
ATOM     27  C   UNL     1      33.779 -22.939 -14.607  0.00  0.00    +0.099 C 
ATOM     28  C   UNL     1      36.402 -22.267 -15.066  0.00  0.00    +0.268 C 
ATOM     29  C   UNL     1      34.696 -22.939 -13.452  0.00  0.00    +0.025 C 
ATOM     30  C   UNL     1      35.964 -22.612 -13.697  0.00  0.00    +0.061 C 
BRANCH  27  31
ATOM     31  C   UNL     1      32.365 -23.311 -14.339  0.00  0.00    +0.020 C 
ATOM     32  C   UNL     1      31.337 -22.733 -15.085  0.00  0.00    +0.012 C 
ATOM     33  C   UNL     1      32.065 -24.240 -13.342  0.00  0.00    +0.002 C 
ATOM     34  C   UNL     1      30.011 -23.083 -14.832  0.00  0.00    +0.068 C 
ATOM     35  C   UNL     1      30.739 -24.591 -13.090  0.00  0.00    +0.001 C 
ATOM     36  C   UNL     1      29.711 -24.012 -13.836  0.00  0.00    +0.010 C 
BRANCH  34  38
ATOM     37  N   UNL     1      28.102 -22.009 -16.214  0.00  0.00    -0.191 NA
ATOM     38  C   UNL     1      28.957 -22.490 -15.595  0.00  0.00    +0.100 C 
ENDBRANCH  34  38
ENDBRANCH  27  31
ENDBRANCH  23  25
ENDBRANCH   2  23
TORSDOF 8
ENDMDL
MODEL 3
REMARK VINA RESULT:     -13.3      1.125      1.709
REMARK  Name = 25171648
REMARK  8 active torsions:
REMARK  status: ('A' for Active; 'I' for Inactive)
REMARK    1  A    between atoms: C_1  and  C_12
REMARK    2  A    between atoms: C_2  and  C_23
REMARK    3  A    between atoms: C_9  and  O_13
REMARK    4  A    between atoms: O_13  and  C_14
REMARK    5  A    between atoms: C_14  and  C_16
REMARK    6  A    between atoms: C_23  and  N_25
REMARK    7  A    between atoms: C_27  and  C_31
REMARK    8  A    between atoms: C_34  and  C_38
REMARK                            x       y       z     vdW  Elec       q    Type
REMARK                         _______ _______ _______ _____ _____    ______ ____
ROOT
ATOM      1  C   UNL     1      34.572 -20.307 -19.333  0.00  0.00    +0.062 C 
ATOM      2  C   UNL     1      33.542 -22.033 -17.992  0.00  0.00    +0.000 C 
ATOM      3  C   UNL     1      33.482 -21.132 -19.056  0.00  0.00    +0.007 C 
ATOM      4  C   UNL     1      35.721 -20.383 -18.546  0.00  0.00    +0.010 C 
ATOM      5  C   UNL     1      34.691 -22.108 -17.205  0.00  0.00    -0.003 C 
ATOM      6  C   UNL     1      35.781 -21.284 -17.483  0.00  0.00    +0.000 C 
ENDROOT
BRANCH   1  12
ATOM      7  N   UNL     1      35.443 -18.408 -20.450  0.00  0.00    -0.212 NA
ATOM      8  N   UNL     1      33.526 -19.573 -21.329  0.00  0.00    -0.190 NA
ATOM      9  C   UNL     1      34.395 -17.645 -22.479  0.00  0.00    +0.161 C 
ATOM     10  C   UNL     1      35.356 -17.555 -21.493  0.00  0.00    +0.201 C 
ATOM     11  C   UNL     1      33.497 -18.685 -22.344  0.00  0.00    +0.144 C 
ATOM     12  C   UNL     1      34.510 -19.378 -20.431  0.00  0.00    +0.031 C 
BRANCH   9  13
ATOM     13  O   UNL     1      34.337 -16.760 -23.526  0.00  0.00    -0.476 OA
BRANCH  13  14
ATOM     14  C   UNL     1      33.064 -16.517 -24.094  0.00  0.00    +0.205 C 
BRANCH  14  16
ATOM     15  N   UNL     1      33.437 -12.214 -24.030  0.00  0.00    +0.386 N 
ATOM     16  C   UNL     1      32.706 -15.050 -23.876  0.00  0.00    +0.040 C 
ATOM     17  C   UNL     1      32.728 -14.276 -25.200  0.00  0.00    -0.019 C 
ATOM     18  C   UNL     1      33.662 -14.391 -22.876  0.00  0.00    -0.019 C 
ATOM     19  C   UNL     1      32.469 -12.784 -24.977  0.00  0.00    -0.077 C 
ATOM     20  C   UNL     1      33.372 -12.895 -22.730  0.00  0.00    -0.077 C 
ATOM     21  C   UNL     1      33.208 -10.778 -23.868  0.00  0.00    -0.101 C 
ATOM     22  H   UNL     1      34.371 -12.355 -24.413  0.00  0.00    -0.080 HD
ENDBRANCH  14  16
ENDBRANCH  13  14
ENDBRANCH   9  13
ENDBRANCH   1  12
BRANCH   2  23
ATOM     23  C   UNL     1      32.376 -22.916 -17.695  0.00  0.00    +0.146 C 
BRANCH  23  25
ATOM     24  O   UNL     1      29.936 -22.025 -16.485  0.00  0.00    -0.268 OA
ATOM     25  N   UNL     1      32.057 -22.951 -16.277  0.00  0.00    -0.173 N 
ATOM     26  N   UNL     1      33.046 -23.454 -15.481  0.00  0.00    -0.175 NA
ATOM     27  C   UNL     1      32.836 -23.509 -14.205  0.00  0.00    +0.099 C 
ATOM     28  C   UNL     1      30.840 -22.495 -15.794  0.00  0.00    +0.268 C 
ATOM     29  C   UNL     1      31.586 -23.087 -13.546  0.00  0.00    +0.025 C 
ATOM     30  C   UNL     1      30.632 -22.596 -14.335  0.00  0.00    +0.061 C 
BRANCH  27  31
ATOM     31  C   UNL     1      33.907 -24.050 -13.326  0.00  0.00    +0.020 C 
ATOM     32  C   UNL     1      35.022 -24.673 -13.887  0.00  0.00    +0.012 C 
ATOM     33  C   UNL     1      33.796 -23.933 -11.940  0.00  0.00    +0.002 C 
ATOM     34  C   UNL     1      36.026 -25.180 -13.061  0.00  0.00    +0.068 C 
ATOM     35  C   UNL     1      34.800 -24.440 -11.115  0.00  0.00    +0.001 C 
ATOM     36  C   UNL     1      35.915 -25.063 -11.675  0.00  0.00    +0.010 C 
BRANCH  34  38
ATOM     37  N   UNL     1      38.095 -26.339 -14.101  0.00  0.00    -0.191 NA
ATOM     38  C   UNL     1      37.168 -25.820 -13.635  0.00  0.00    +0.100 C 
ENDBRANCH  34  38
ENDBRANCH  27  31
ENDBRANCH  23  25
ENDBRANCH   2  23
TORSDOF 8
ENDMDL
MODEL 4
REMARK VINA RESULT:     -12.4      4.529      9.233
REMARK  Name = 25171648
REMARK  8 active torsions:
REMARK  status: ('A' for Active; 'I' for Inactive)
REMARK    1  A    between atoms: C_1  and  C_12
REMARK    2  A    between atoms: C_2  and  C_23
REMARK    3  A    between atoms: C_9  and  O_13
REMARK    4  A    between atoms: O_13  and  C_14
REMARK    5  A    between atoms: C_14  and  C_16
REMARK    6  A    between atoms: C_23  and  N_25
REMARK    7  A    between atoms: C_27  and  C_31
REMARK    8  A    between atoms: C_34  and  C_38
REMARK                            x       y       z     vdW  Elec       q    Type
REMARK                         _______ _______ _______ _____ _____    ______ ____
ROOT
ATOM      1  C   UNL     1      32.129 -11.783 -21.508  0.00  0.00    +0.062 C 
ATOM      2  C   UNL     1      33.384 -13.817 -21.866  0.00  0.00    +0.000 C 
ATOM      3  C   UNL     1      33.071 -12.509 -22.238  0.00  0.00    +0.007 C 
ATOM      4  C   UNL     1      31.501 -12.365 -20.408  0.00  0.00    +0.010 C 
ATOM      5  C   UNL     1      32.755 -14.398 -20.765  0.00  0.00    -0.003 C 
ATOM      6  C   UNL     1      31.814 -13.672 -20.035  0.00  0.00    +0.000 C 
ENDROOT
BRANCH   1  12
ATOM      7  N   UNL     1      30.866  -9.808 -21.160  0.00  0.00    -0.212 NA
ATOM      8  N   UNL     1      32.478  -9.931 -22.946  0.00  0.00    -0.190 NA
ATOM      9  C   UNL     1      31.205  -7.916 -22.609  0.00  0.00    +0.161 C 
ATOM     10  C   UNL     1      30.589  -8.546 -21.547  0.00  0.00    +0.201 C 
ATOM     11  C   UNL     1      32.152  -8.664 -23.278  0.00  0.00    +0.144 C 
ATOM     12  C   UNL     1      31.806 -10.433 -21.892  0.00  0.00    +0.031 C 
BRANCH   9  13
ATOM     13  O   UNL     1      30.898  -6.629 -22.974  0.00  0.00    -0.476 OA
BRANCH  13  14
ATOM     14  C   UNL     1      31.795  -5.613 -22.567  0.00  0.00    +0.205 C 
BRANCH  14  16
ATOM     15  N   UNL     1      33.517  -5.224 -26.510  0.00  0.00    +0.386 N 
ATOM     16  C   UNL     1      32.395  -4.967 -23.812  0.00  0.00    +0.040 C 
ATOM     17  C   UNL     1      31.523  -5.232 -25.045  0.00  0.00    -0.019 C 
ATOM     18  C   UNL     1      33.818  -5.476 -24.067  0.00  0.00    -0.019 C 
ATOM     19  C   UNL     1      32.168  -4.673 -26.315  0.00  0.00    -0.077 C 
ATOM     20  C   UNL     1      34.388  -4.909 -25.369  0.00  0.00    -0.077 C 
ATOM     21  C   UNL     1      34.100  -4.720 -27.753  0.00  0.00    -0.101 C 
ATOM     22  H   UNL     1      33.435  -6.238 -26.573  0.00  0.00    -0.080 HD
ENDBRANCH  14  16
ENDBRANCH  13  14
ENDBRANCH   9  13
ENDBRANCH   1  12
BRANCH   2  23
ATOM     23  C   UNL     1      34.390 -14.594 -22.646  0.00  0.00    +0.146 C 
BRANCH  23  25
ATOM     24  O   UNL     1      32.999 -15.609 -24.937  0.00  0.00    -0.268 OA
ATOM     25  N   UNL     1      33.979 -15.971 -22.861  0.00  0.00    -0.173 N 
ATOM     26  N   UNL     1      34.296 -16.827 -21.845  0.00  0.00    -0.175 NA
ATOM     27  C   UNL     1      33.954 -18.070 -21.963  0.00  0.00    +0.099 C 
ATOM     28  C   UNL     1      33.309 -16.359 -24.011  0.00  0.00    +0.268 C 
ATOM     29  C   UNL     1      33.262 -18.638 -23.136  0.00  0.00    +0.025 C 
ATOM     30  C   UNL     1      32.957 -17.791 -24.116  0.00  0.00    +0.061 C 
BRANCH  27  31
ATOM     31  C   UNL     1      34.290 -19.012 -20.862  0.00  0.00    +0.020 C 
ATOM     32  C   UNL     1      33.279 -19.737 -20.231  0.00  0.00    +0.012 C 
ATOM     33  C   UNL     1      35.617 -19.172 -20.462  0.00  0.00    +0.002 C 
ATOM     34  C   UNL     1      33.595 -20.620 -19.199  0.00  0.00    +0.068 C 
ATOM     35  C   UNL     1      35.933 -20.055 -19.430  0.00  0.00    +0.001 C 
ATOM     36  C   UNL     1      34.922 -20.780 -18.798  0.00  0.00    +0.010 C 
BRANCH  34  38
ATOM     37  N   UNL     1      31.719 -21.964 -18.024  0.00  0.00    -0.191 NA
ATOM     38  C   UNL     1      32.560 -21.362 -18.550  0.00  0.00    +0.100 C 
ENDBRANCH  34  38
ENDBRANCH  27  31
ENDBRANCH  23  25
ENDBRANCH   2  23
TORSDOF 8
ENDMDL
MODEL 5
REMARK VINA RESULT:     -12.0      4.158     14.140
REMARK  Name = 25171648
REMARK  8 active torsions:
REMARK  status: ('A' for Active; 'I' for Inactive)
REMARK    1  A    between atoms: C_1  and  C_12
REMARK    2  A    between atoms: C_2  and  C_23
REMARK    3  A    between atoms: C_9  and  O_13
REMARK    4  A    between atoms: O_13  and  C_14
REMARK    5  A    between atoms: C_14  and  C_16
REMARK    6  A    between atoms: C_23  and  N_25
REMARK    7  A    between atoms: C_27  and  C_31
REMARK    8  A    between atoms: C_34  and  C_38
REMARK                            x       y       z     vdW  Elec       q    Type
REMARK                         _______ _______ _______ _____ _____    ______ ____
ROOT
ATOM      1  C   UNL     1      33.038 -13.332 -22.099  0.00  0.00    +0.062 C 
ATOM      2  C   UNL     1      31.603 -11.472 -21.533  0.00  0.00    +0.000 C 
ATOM      3  C   UNL     1      32.071 -12.761 -21.272  0.00  0.00    +0.007 C 
ATOM      4  C   UNL     1      33.536 -12.615 -23.187  0.00  0.00    +0.010 C 
ATOM      5  C   UNL     1      32.101 -10.756 -22.621  0.00  0.00    -0.003 C 
ATOM      6  C   UNL     1      33.069 -11.327 -23.447  0.00  0.00    +0.000 C 
ENDROOT
BRANCH   1  12
ATOM      7  N   UNL     1      33.668 -14.996 -20.534  0.00  0.00    -0.212 NA
ATOM      8  N   UNL     1      33.777 -15.437 -22.900  0.00  0.00    -0.190 NA
ATOM      9  C   UNL     1      34.421 -17.141 -21.327  0.00  0.00    +0.161 C 
ATOM     10  C   UNL     1      34.122 -16.248 -20.318  0.00  0.00    +0.201 C 
ATOM     11  C   UNL     1      34.226 -16.676 -22.612  0.00  0.00    +0.144 C 
ATOM     12  C   UNL     1      33.521 -14.661 -21.829  0.00  0.00    +0.031 C 
BRANCH   9  13
ATOM     13  O   UNL     1      34.881 -18.409 -21.070  0.00  0.00    -0.476 OA
BRANCH  13  14
ATOM     14  C   UNL     1      33.944 -19.465 -21.166  0.00  0.00    +0.205 C 
BRANCH  14  16
ATOM     15  N   UNL     1      32.949 -22.217 -17.989  0.00  0.00    +0.386 N 
ATOM     16  C   UNL     1      33.661 -19.993 -19.763  0.00  0.00    +0.040 C 
ATOM     17  C   UNL     1      34.660 -21.091 -19.378  0.00  0.00    -0.019 C 
ATOM     18  C   UNL     1      32.232 -20.533 -19.654  0.00  0.00    -0.019 C 
ATOM     19  C   UNL     1      34.323 -21.696 -18.013  0.00  0.00    -0.077 C 
ATOM     20  C   UNL     1      31.975 -21.156 -18.280  0.00  0.00    -0.077 C 
ATOM     21  C   UNL     1      32.659 -22.837 -16.696  0.00  0.00    -0.101 C 
ATOM     22  H   UNL     1      32.869 -22.926 -18.718  0.00  0.00    -0.080 HD
ENDBRANCH  14  16
ENDBRANCH  13  14
ENDBRANCH   9  13
ENDBRANCH   1  12
BRANCH   2  23
ATOM     23  C   UNL     1      30.568 -10.861 -20.649  0.00  0.00    +0.146 C 
BRANCH  23  25
ATOM     24  O   UNL     1      30.141  -9.682 -18.072  0.00  0.00    -0.268 OA
ATOM     25  N   UNL     1      30.908  -9.503 -20.258  0.00  0.00    -0.173 N 
ATOM     26  N   UNL     1      31.474  -8.748 -21.246  0.00  0.00    -0.175 NA
ATOM     27  C   UNL     1      31.797  -7.525 -20.973  0.00  0.00    +0.099 C 
ATOM     28  C   UNL     1      30.660  -9.030 -18.978  0.00  0.00    +0.268 C 
ATOM     29  C   UNL     1      31.619  -6.889 -19.654  0.00  0.00    +0.025 C 
ATOM     30  C   UNL     1      31.065  -7.636 -18.702  0.00  0.00    +0.061 C 
BRANCH  27  31
ATOM     31  C   UNL     1      32.409  -6.691 -22.042  0.00  0.00    +0.020 C 
ATOM     32  C   UNL     1      31.713  -5.599 -22.560  0.00  0.00    +0.012 C 
ATOM     33  C   UNL     1      33.680  -7.002 -22.526  0.00  0.00    +0.002 C 
ATOM     34  C   UNL     1      32.288  -4.817 -23.562  0.00  0.00    +0.068 C 
ATOM     35  C   UNL     1      34.255  -6.220 -23.528  0.00  0.00    +0.001 C 
ATOM     36  C   UNL     1      33.560  -5.128 -24.046  0.00  0.00    +0.010 C 
BRANCH  34  38
ATOM     37  N   UNL     1      30.997  -2.790 -24.526  0.00  0.00    -0.191 NA
ATOM     38  C   UNL     1      31.576  -3.698 -24.094  0.00  0.00    +0.100 C 
ENDBRANCH  34  38
ENDBRANCH  27  31
ENDBRANCH  23  25
ENDBRANCH   2  23
TORSDOF 8
ENDMDL
MODEL 6
REMARK VINA RESULT:     -11.8      3.848     14.996
REMARK  Name = 25171648
REMARK  8 active torsions:
REMARK  status: ('A' for Active; 'I' for Inactive)
REMARK    1  A    between atoms: C_1  and  C_12
REMARK    2  A    between atoms: C_2  and  C_23
REMARK    3  A    between atoms: C_9  and  O_13
REMARK    4  A    between atoms: O_13  and  C_14
REMARK    5  A    between atoms: C_14  and  C_16
REMARK    6  A    between atoms: C_23  and  N_25
REMARK    7  A    between atoms: C_27  and  C_31
REMARK    8  A    between atoms: C_34  and  C_38
REMARK                            x       y       z     vdW  Elec       q    Type
REMARK                         _______ _______ _______ _____ _____    ______ ____
ROOT
ATOM      1  C   UNL     1      33.063 -13.776 -24.151  0.00  0.00    +0.062 C 
ATOM      2  C   UNL     1      33.119 -11.370 -23.931  0.00  0.00    +0.000 C 
ATOM      3  C   UNL     1      33.394 -12.637 -23.416  0.00  0.00    +0.007 C 
ATOM      4  C   UNL     1      32.457 -13.646 -25.401  0.00  0.00    +0.010 C 
ATOM      5  C   UNL     1      32.513 -11.241 -25.181  0.00  0.00    -0.003 C 
ATOM      6  C   UNL     1      32.183 -12.379 -25.916  0.00  0.00    +0.000 C 
ENDROOT
BRANCH   1  12
ATOM      7  N   UNL     1      33.881 -15.127 -22.385  0.00  0.00    -0.212 NA
ATOM      8  N   UNL     1      33.047 -16.132 -24.411  0.00  0.00    -0.190 NA
ATOM      9  C   UNL     1      33.874 -17.522 -22.628  0.00  0.00    +0.161 C 
ATOM     10  C   UNL     1      34.133 -16.368 -21.918  0.00  0.00    +0.201 C 
ATOM     11  C   UNL     1      33.325 -17.341 -23.881  0.00  0.00    +0.144 C 
ATOM     12  C   UNL     1      33.346 -15.083 -23.619  0.00  0.00    +0.031 C 
BRANCH   9  13
ATOM     13  O   UNL     1      34.143 -18.769 -22.121  0.00  0.00    -0.476 OA
BRANCH  13  14
ATOM     14  C   UNL     1      35.099 -18.848 -21.080  0.00  0.00    +0.205 C 
BRANCH  14  16
ATOM     15  N   UNL     1      33.234 -21.868 -18.619  0.00  0.00    +0.386 N 
ATOM     16  C   UNL     1      34.447 -19.510 -19.870  0.00  0.00    +0.040 C 
ATOM     17  C   UNL     1      35.279 -20.701 -19.380  0.00  0.00    -0.019 C 
ATOM     18  C   UNL     1      33.023 -19.972 -20.194  0.00  0.00    -0.019 C 
ATOM     19  C   UNL     1      34.582 -21.431 -18.230  0.00  0.00    -0.077 C 
ATOM     20  C   UNL     1      32.400 -20.725 -19.017  0.00  0.00    -0.077 C 
ATOM     21  C   UNL     1      32.601 -22.608 -17.527  0.00  0.00    -0.101 C 
ATOM     22  H   UNL     1      33.325 -22.487 -19.424  0.00  0.00    -0.080 HD
ENDBRANCH  14  16
ENDBRANCH  13  14
ENDBRANCH   9  13
ENDBRANCH   1  12
BRANCH   2  23
ATOM     23  C   UNL     1      33.472 -10.152 -23.145  0.00  0.00    +0.146 C 
BRANCH  23  25
ATOM     24  O   UNL     1      31.658 -10.263 -20.929  0.00  0.00    -0.268 OA
ATOM     25  N   UNL     1      32.327  -9.284 -22.928  0.00  0.00    -0.173 N 
ATOM     26  N   UNL     1      32.128  -8.347 -23.901  0.00  0.00    -0.175 NA
ATOM     27  C   UNL     1      31.121  -7.542 -23.779  0.00  0.00    +0.099 C 
ATOM     28  C   UNL     1      31.511  -9.421 -21.816  0.00  0.00    +0.268 C 
ATOM     29  C   UNL     1      30.181  -7.547 -22.643  0.00  0.00    +0.025 C 
ATOM     30  C   UNL     1      30.387  -8.468 -21.703  0.00  0.00    +0.061 C 
BRANCH  27  31
ATOM     31  C   UNL     1      30.890  -6.520 -24.835  0.00  0.00    +0.020 C 
ATOM     32  C   UNL     1      31.302  -6.764 -26.145  0.00  0.00    +0.012 C 
ATOM     33  C   UNL     1      30.259  -5.317 -24.515  0.00  0.00    +0.002 C 
ATOM     34  C   UNL     1      31.084  -5.805 -27.134  0.00  0.00    +0.068 C 
ATOM     35  C   UNL     1      30.041  -4.358 -25.504  0.00  0.00    +0.001 C 
ATOM     36  C   UNL     1      30.453  -4.602 -26.814  0.00  0.00    +0.010 C 
BRANCH  34  38
ATOM     37  N   UNL     1      31.850  -6.256 -29.567  0.00  0.00    -0.191 NA
ATOM     38  C   UNL     1      31.507  -6.054 -28.477  0.00  0.00    +0.100 C 
ENDBRANCH  34  38
ENDBRANCH  27  31
ENDBRANCH  23  25
ENDBRANCH   2  23
TORSDOF 8
ENDMDL
MODEL 7
REMARK VINA RESULT:     -11.7      3.999     14.985
REMARK  Name = 25171648
REMARK  8 active torsions:
REMARK  status: ('A' for Active; 'I' for Inactive)
REMARK    1  A    between atoms: C_1  and  C_12
REMARK    2  A    between atoms: C_2  and  C_23
REMARK    3  A    between atoms: C_9  and  O_13
REMARK    4  A    between atoms: O_13  and  C_14
REMARK    5  A    between atoms: C_14  and  C_16
REMARK    6  A    between atoms: C_23  and  N_25
REMARK    7  A    between atoms: C_27  and  C_31
REMARK    8  A    between atoms: C_34  and  C_38
REMARK                            x       y       z     vdW  Elec       q    Type
REMARK                         _______ _______ _______ _____ _____    ______ ____
ROOT
ATOM      1  C   UNL     1      33.025 -13.809 -24.216  0.00  0.00    +0.062 C 
ATOM      2  C   UNL     1      33.109 -11.399 -24.056  0.00  0.00    +0.000 C 
ATOM      3  C   UNL     1      33.395 -12.657 -23.522  0.00  0.00    +0.007 C 
ATOM      4  C   UNL     1      32.369 -13.704 -25.442  0.00  0.00    +0.010 C 
ATOM      5  C   UNL     1      32.453 -11.295 -25.282  0.00  0.00    -0.003 C 
ATOM      6  C   UNL     1      32.084 -12.447 -25.976  0.00  0.00    +0.000 C 
ENDROOT
BRANCH   1  12
ATOM      7  N   UNL     1      33.035 -16.168 -24.442  0.00  0.00    -0.212 NA
ATOM      8  N   UNL     1      33.852 -15.127 -22.428  0.00  0.00    -0.190 NA
ATOM      9  C   UNL     1      33.871 -17.525 -22.638  0.00  0.00    +0.161 C 
ATOM     10  C   UNL     1      33.325 -17.367 -23.895  0.00  0.00    +0.201 C 
ATOM     11  C   UNL     1      34.117 -16.358 -21.943  0.00  0.00    +0.144 C 
ATOM     12  C   UNL     1      33.320 -15.106 -23.665  0.00  0.00    +0.031 C 
BRANCH   9  13
ATOM     13  O   UNL     1      34.153 -18.762 -22.113  0.00  0.00    -0.476 OA
BRANCH  13  14
ATOM     14  C   UNL     1      35.097 -18.814 -21.061  0.00  0.00    +0.205 C 
BRANCH  14  16
ATOM     15  N   UNL     1      33.233 -21.871 -18.644  0.00  0.00    +0.386 N 
ATOM     16  C   UNL     1      34.449 -19.495 -19.859  0.00  0.00    +0.040 C 
ATOM     17  C   UNL     1      35.278 -20.698 -19.394  0.00  0.00    -0.019 C 
ATOM     18  C   UNL     1      33.021 -19.947 -20.185  0.00  0.00    -0.019 C 
ATOM     19  C   UNL     1      34.585 -21.446 -18.254  0.00  0.00    -0.077 C 
ATOM     20  C   UNL     1      32.402 -20.719 -19.018  0.00  0.00    -0.077 C 
ATOM     21  C   UNL     1      32.603 -22.628 -17.563  0.00  0.00    -0.101 C 
ATOM     22  H   UNL     1      33.318 -22.476 -19.461  0.00  0.00    -0.080 HD
ENDBRANCH  14  16
ENDBRANCH  13  14
ENDBRANCH   9  13
ENDBRANCH   1  12
BRANCH   2  23
ATOM     23  C   UNL     1      33.504 -10.166 -23.314  0.00  0.00    +0.146 C 
BRANCH  23  25
ATOM     24  O   UNL     1      31.724 -10.430 -21.083  0.00  0.00    -0.268 OA
ATOM     25  N   UNL     1      32.366  -9.313 -23.017  0.00  0.00    -0.173 N 
ATOM     26  N   UNL     1      32.155  -8.308 -23.918  0.00  0.00    -0.175 NA
ATOM     27  C   UNL     1      31.154  -7.511 -23.722  0.00  0.00    +0.099 C 
ATOM     28  C   UNL     1      31.566  -9.527 -21.904  0.00  0.00    +0.268 C 
ATOM     29  C   UNL     1      30.231  -7.595 -22.574  0.00  0.00    +0.025 C 
ATOM     30  C   UNL     1      30.448  -8.581 -21.706  0.00  0.00    +0.061 C 
BRANCH  27  31
ATOM     31  C   UNL     1      30.910  -6.416 -24.698  0.00  0.00    +0.020 C 
ATOM     32  C   UNL     1      30.001  -5.401 -24.397  0.00  0.00    +0.012 C 
ATOM     33  C   UNL     1      31.592  -6.402 -25.915  0.00  0.00    +0.002 C 
ATOM     34  C   UNL     1      29.773  -4.374 -25.313  0.00  0.00    +0.068 C 
ATOM     35  C   UNL     1      31.364  -5.375 -26.832  0.00  0.00    +0.001 C 
ATOM     36  C   UNL     1      30.455  -4.361 -26.531  0.00  0.00    +0.010 C 
BRANCH  34  38
ATOM     37  N   UNL     1      28.085  -2.491 -24.756  0.00  0.00    -0.191 NA
ATOM     38  C   UNL     1      28.842  -3.335 -25.006  0.00  0.00    +0.100 C 
ENDBRANCH  34  38
ENDBRANCH  27  31
ENDBRANCH  23  25
ENDBRANCH   2  23
TORSDOF 8
ENDMDL
MODEL 8
REMARK VINA RESULT:     -11.7      5.663     13.404
REMARK  Name = 25171648
REMARK  8 active torsions:
REMARK  status: ('A' for Active; 'I' for Inactive)
REMARK    1  A    between atoms: C_1  and  C_12
REMARK    2  A    between atoms: C_2  and  C_23
REMARK    3  A    between atoms: C_9  and  O_13
REMARK    4  A    between atoms: O_13  and  C_14
REMARK    5  A    between atoms: C_14  and  C_16
REMARK    6  A    between atoms: C_23  and  N_25
REMARK    7  A    between atoms: C_27  and  C_31
REMARK    8  A    between atoms: C_34  and  C_38
REMARK                            x       y       z     vdW  Elec       q    Type
REMARK                         _______ _______ _______ _____ _____    ______ ____
ROOT
ATOM      1  C   UNL     1      33.311 -10.163 -24.589  0.00  0.00    +0.062 C 
ATOM      2  C   UNL     1      32.425  -7.915 -24.625  0.00  0.00    +0.000 C 
ATOM      3  C   UNL     1      32.220  -9.294 -24.566  0.00  0.00    +0.007 C 
ATOM      4  C   UNL     1      34.606  -9.653 -24.671  0.00  0.00    +0.010 C 
ATOM      5  C   UNL     1      33.721  -7.406 -24.706  0.00  0.00    -0.003 C 
ATOM      6  C   UNL     1      34.812  -8.275 -24.728  0.00  0.00    +0.000 C 
ENDROOT
BRANCH   1  12
ATOM      7  N   UNL     1      33.294 -12.172 -23.334  0.00  0.00    -0.212 NA
ATOM      8  N   UNL     1      32.724 -12.187 -25.675  0.00  0.00    -0.190 NA
ATOM      9  C   UNL     1      32.701 -14.239 -24.417  0.00  0.00    +0.161 C 
ATOM     10  C   UNL     1      33.086 -13.506 -23.313  0.00  0.00    +0.201 C 
ATOM     11  C   UNL     1      32.533 -13.519 -25.583  0.00  0.00    +0.144 C 
ATOM     12  C   UNL     1      33.098 -11.586 -24.529  0.00  0.00    +0.031 C 
BRANCH   9  13
ATOM     13  O   UNL     1      32.498 -15.596 -24.359  0.00  0.00    -0.476 OA
BRANCH  13  14
ATOM     14  C   UNL     1      33.647 -16.416 -24.268  0.00  0.00    +0.205 C 
BRANCH  14  16
ATOM     15  N   UNL     1      34.844 -18.974 -21.000  0.00  0.00    +0.386 N 
ATOM     16  C   UNL     1      33.569 -17.220 -22.974  0.00  0.00    +0.040 C 
ATOM     17  C   UNL     1      34.579 -16.702 -21.942  0.00  0.00    -0.019 C 
ATOM     18  C   UNL     1      33.814 -18.710 -23.234  0.00  0.00    -0.019 C 
ATOM     19  C   UNL     1      34.577 -17.565 -20.679  0.00  0.00    -0.077 C 
ATOM     20  C   UNL     1      33.837 -19.506 -21.927  0.00  0.00    -0.077 C 
ATOM     21  C   UNL     1      34.890 -19.777 -19.777  0.00  0.00    -0.101 C 
ATOM     22  H   UNL     1      35.753 -19.024 -21.459  0.00  0.00    -0.080 HD
ENDBRANCH  14  16
ENDBRANCH  13  14
ENDBRANCH   9  13
ENDBRANCH   1  12
BRANCH   2  23
ATOM     23  C   UNL     1      31.260  -6.985 -24.601  0.00  0.00    +0.146 C 
BRANCH  23  25
ATOM     24  O   UNL     1      30.406  -4.390 -23.732  0.00  0.00    -0.268 OA
ATOM     25  N   UNL     1      30.876  -6.614 -23.249  0.00  0.00    -0.173 N 
ATOM     26  N   UNL     1      30.955  -7.626 -22.335  0.00  0.00    -0.175 NA
ATOM     27  C   UNL     1      30.635  -7.368 -21.107  0.00  0.00    +0.099 C 
ATOM     28  C   UNL     1      30.474  -5.325 -22.934  0.00  0.00    +0.268 C 
ATOM     29  C   UNL     1      30.166  -6.056 -20.624  0.00  0.00    +0.025 C 
ATOM     30  C   UNL     1      30.097  -5.079 -21.526  0.00  0.00    +0.061 C 
BRANCH  27  31
ATOM     31  C   UNL     1      30.721  -8.460 -20.101  0.00  0.00    +0.020 C 
ATOM     32  C   UNL     1      30.847  -9.785 -20.518  0.00  0.00    +0.012 C 
ATOM     33  C   UNL     1      30.677  -8.159 -18.740  0.00  0.00    +0.002 C 
ATOM     34  C   UNL     1      30.928 -10.809 -19.574  0.00  0.00    +0.068 C 
ATOM     35  C   UNL     1      30.758  -9.182 -17.795  0.00  0.00    +0.001 C 
ATOM     36  C   UNL     1      30.884 -10.507 -18.212  0.00  0.00    +0.010 C 
BRANCH  34  38
ATOM     37  N   UNL     1      31.160 -13.270 -20.346  0.00  0.00    -0.191 NA
ATOM     38  C   UNL     1      31.056 -12.167 -20.000  0.00  0.00    +0.100 C 
ENDBRANCH  34  38
ENDBRANCH  27  31
ENDBRANCH  23  25
ENDBRANCH   2  23
TORSDOF 8
ENDMDL
MODEL 9
REMARK VINA RESULT:     -11.6      4.226     14.559
REMARK  Name = 25171648
REMARK  8 active torsions:
REMARK  status: ('A' for Active; 'I' for Inactive)
REMARK    1  A    between atoms: C_1  and  C_12
REMARK    2  A    between atoms: C_2  and  C_23
REMARK    3  A    between atoms: C_9  and  O_13
REMARK    4  A    between atoms: O_13  and  C_14
REMARK    5  A    between atoms: C_14  and  C_16
REMARK    6  A    between atoms: C_23  and  N_25
REMARK    7  A    between atoms: C_27  and  C_31
REMARK    8  A    between atoms: C_34  and  C_38
REMARK                            x       y       z     vdW  Elec       q    Type
REMARK                         _______ _______ _______ _____ _____    ______ ____
ROOT
ATOM      1  C   UNL     1      32.957 -12.855 -22.537  0.00  0.00    +0.062 C 
ATOM      2  C   UNL     1      31.645 -10.993 -21.729  0.00  0.00    +0.000 C 
ATOM      3  C   UNL     1      32.033 -12.330 -21.633  0.00  0.00    +0.007 C 
ATOM      4  C   UNL     1      33.493 -12.042 -23.536  0.00  0.00    +0.010 C 
ATOM      5  C   UNL     1      32.181 -10.181 -22.728  0.00  0.00    -0.003 C 
ATOM      6  C   UNL     1      33.106 -10.706 -23.631  0.00  0.00    +0.000 C 
ENDROOT
BRANCH   1  12
ATOM      7  N   UNL     1      33.705 -14.672 -21.214  0.00  0.00    -0.212 NA
ATOM      8  N   UNL     1      33.341 -14.948 -23.580  0.00  0.00    -0.190 NA
ATOM      9  C   UNL     1      34.102 -16.807 -22.254  0.00  0.00    +0.161 C 
ATOM     10  C   UNL     1      34.074 -15.969 -21.158  0.00  0.00    +0.201 C 
ATOM     11  C   UNL     1      33.721 -16.236 -23.451  0.00  0.00    +0.144 C 
ATOM     12  C   UNL     1      33.357 -14.234 -22.438  0.00  0.00    +0.031 C 
BRANCH   9  13
ATOM     13  O   UNL     1      34.482 -18.123 -22.159  0.00  0.00    -0.476 OA
BRANCH  13  14
ATOM     14  C   UNL     1      35.136 -18.520 -20.968  0.00  0.00    +0.205 C 
BRANCH  14  16
ATOM     15  N   UNL     1      33.195 -21.289 -18.281  0.00  0.00    +0.386 N 
ATOM     16  C   UNL     1      34.479 -19.797 -20.455  0.00  0.00    +0.040 C 
ATOM     17  C   UNL     1      33.033 -19.535 -20.018  0.00  0.00    -0.019 C 
ATOM     18  C   UNL     1      35.271 -20.395 -19.288  0.00  0.00    -0.019 C 
ATOM     19  C   UNL     1      32.398 -20.787 -19.409  0.00  0.00    -0.077 C 
ATOM     20  C   UNL     1      34.563 -21.620 -18.704  0.00  0.00    -0.077 C 
ATOM     21  C   UNL     1      32.549 -22.455 -17.678  0.00  0.00    -0.101 C 
ATOM     22  H   UNL     1      33.252 -20.548 -17.582  0.00  0.00    -0.080 HD
ENDBRANCH  14  16
ENDBRANCH  13  14
ENDBRANCH   9  13
ENDBRANCH   1  12
BRANCH   2  23
ATOM     23  C   UNL     1      30.657 -10.431 -20.763  0.00  0.00    +0.146 C 
BRANCH  23  25
ATOM     24  O   UNL     1      31.551  -9.275 -18.298  0.00  0.00    -0.268 OA
ATOM     25  N   UNL     1      30.877  -9.018 -20.507  0.00  0.00    -0.173 N 
ATOM     26  N   UNL     1      30.610  -8.197 -21.565  0.00  0.00    -0.175 NA
ATOM     27  C   UNL     1      30.776  -6.923 -21.409  0.00  0.00    +0.099 C 
ATOM     28  C   UNL     1      31.315  -8.561 -19.273  0.00  0.00    +0.268 C 
ATOM     29  C   UNL     1      31.260  -6.290 -20.167  0.00  0.00    +0.025 C 
ATOM     30  C   UNL     1      31.513  -7.103 -19.144  0.00  0.00    +0.061 C 
BRANCH  27  31
ATOM     31  C   UNL     1      30.484  -6.018 -22.552  0.00  0.00    +0.020 C 
ATOM     32  C   UNL     1      30.704  -6.451 -23.860  0.00  0.00    +0.012 C 
ATOM     33  C   UNL     1      29.990  -4.734 -22.317  0.00  0.00    +0.002 C 
ATOM     34  C   UNL     1      30.430  -5.601 -24.931  0.00  0.00    +0.068 C 
ATOM     35  C   UNL     1      29.715  -3.884 -23.388  0.00  0.00    +0.001 C 
ATOM     36  C   UNL     1      29.935  -4.318 -24.696  0.00  0.00    +0.010 C 
BRANCH  34  38
ATOM     37  N   UNL     1      30.838  -6.404 -27.359  0.00  0.00    -0.191 NA
ATOM     38  C   UNL     1      30.655  -6.044 -26.271  0.00  0.00    +0.100 C 
ENDBRANCH  34  38
ENDBRANCH  27  31
ENDBRANCH  23  25
ENDBRANCH   2  23
TORSDOF 8
ENDMDL
