MODEL 1
REMARK VINA RESULT:     -11.9      0.000      0.000
REMARK  Name = 24821094
REMARK  5 active torsions:
REMARK  status: ('A' for Active; 'I' for Inactive)
REMARK    1  A    between atoms: N_1  and  C_12
REMARK    2  A    between atoms: C_7  and  C_20
REMARK    3  A    between atoms: C_17  and  C_18
REMARK    4  A    between atoms: C_25  and  O_26
REMARK    5  A    between atoms: O_26  and  C_27
REMARK                            x       y       z     vdW  Elec       q    Type
REMARK                         _______ _______ _______ _____ _____    ______ ____
ROOT
ATOM      1  N   UNL     1      32.687  -9.683 -22.969  0.00  0.00    -0.198 N 
ATOM      2  N   UNL     1      33.223 -10.817 -23.459  0.00  0.00    -0.181 NA
ATOM      3  N   UNL     1      31.155  -8.952 -21.244  0.00  0.00    -0.231 NA
ATOM      4  N   UNL     1      30.280 -10.832 -19.960  0.00  0.00    -0.234 NA
ATOM      5  C   UNL     1      31.833  -9.887 -21.928  0.00  0.00    +0.137 C 
ATOM      6  C   UNL     1      31.807 -11.255 -21.719  0.00  0.00    +0.150 C 
ATOM      7  C   UNL     1      32.682 -11.771 -22.692  0.00  0.00    +0.090 C 
ATOM      8  C   UNL     1      30.993 -11.722 -20.692  0.00  0.00    +0.112 C 
ATOM      9  C   UNL     1      30.403  -9.521 -20.277  0.00  0.00    +0.252 C 
ATOM     10  N   UNL     1      30.900 -13.095 -20.400  0.00  0.00    -0.346 N 
ATOM     11  H   UNL     1      30.318 -13.404 -19.668  0.00  0.00    +0.143 HD
ATOM     12  H   UNL     1      31.417 -13.746 -20.927  0.00  0.00    +0.143 HD
ENDROOT
BRANCH   1  15
ATOM     13  O   UNL     1      32.259  -4.694 -26.302  0.00  0.00    -0.270 OA
ATOM     14  N   UNL     1      32.243  -6.240 -24.564  0.00  0.00    -0.274 N 
ATOM     15  C   UNL     1      33.064  -8.351 -23.591  0.00  0.00    +0.117 C 
ATOM     16  C   UNL     1      34.010  -7.542 -22.682  0.00  0.00    +0.025 C 
ATOM     17  C   UNL     1      31.827  -7.513 -23.957  0.00  0.00    +0.115 C 
ATOM     18  C   UNL     1      34.355  -6.190 -23.311  0.00  0.00    +0.023 C 
ATOM     19  C   UNL     1      33.096  -5.419 -23.702  0.00  0.00    +0.094 C 
ATOM     20  C   UNL     1      31.898  -5.773 -25.830  0.00  0.00    +0.249 C 
BRANCH  20  21
ATOM     21  C   UNL     1      31.042  -6.634 -26.670  0.00  0.00    +0.058 C 
ATOM     22  C   UNL     1      30.934  -6.360 -27.972  0.00  0.00    +0.005 C 
ENDBRANCH  20  21
ENDBRANCH   1  15
BRANCH   7  23
ATOM     23  C   UNL     1      33.025 -13.153 -22.919  0.00  0.00    +0.016 C 
ATOM     24  C   UNL     1      33.740 -13.860 -21.954  0.00  0.00    +0.004 C 
ATOM     25  C   UNL     1      32.639 -13.782 -24.103  0.00  0.00    +0.004 C 
ATOM     26  C   UNL     1      34.071 -15.198 -22.173  0.00  0.00    +0.038 C 
ATOM     27  C   UNL     1      32.970 -15.120 -24.322  0.00  0.00    +0.038 C 
ATOM     28  C   UNL     1      33.686 -15.827 -23.357  0.00  0.00    +0.145 C 
BRANCH  28  29
ATOM     29  O   UNL     1      34.012 -17.131 -23.572  0.00  0.00    -0.453 OA
BRANCH  29  30
ATOM     30  C   UNL     1      34.292 -17.916 -22.466  0.00  0.00    +0.145 C 
ATOM     31  C   UNL     1      35.562 -17.879 -21.890  0.00  0.00    +0.037 C 
ATOM     32  C   UNL     1      33.306 -18.743 -21.929  0.00  0.00    +0.037 C 
ATOM     33  C   UNL     1      35.845 -18.671 -20.776  0.00  0.00    +0.003 C 
ATOM     34  C   UNL     1      33.589 -19.534 -20.816  0.00  0.00    +0.003 C 
ATOM     35  C   UNL     1      34.859 -19.498 -20.240  0.00  0.00    +0.000 C 
ENDBRANCH  29  30
ENDBRANCH  28  29
ENDBRANCH   7  23
TORSDOF 5
ENDMDL
MODEL 2
REMARK VINA RESULT:     -11.8      1.346      2.023
REMARK  Name = 24821094
REMARK  5 active torsions:
REMARK  status: ('A' for Active; 'I' for Inactive)
REMARK    1  A    between atoms: N_1  and  C_12
REMARK    2  A    between atoms: C_7  and  C_20
REMARK    3  A    between atoms: C_17  and  C_18
REMARK    4  A    between atoms: C_25  and  O_26
REMARK    5  A    between atoms: O_26  and  C_27
REMARK                            x       y       z     vdW  Elec       q    Type
REMARK                         _______ _______ _______ _____ _____    ______ ____
ROOT
ATOM      1  N   UNL     1      32.321 -10.008 -22.687  0.00  0.00    -0.198 N 
ATOM      2  N   UNL     1      32.898 -11.108 -23.206  0.00  0.00    -0.181 NA
ATOM      3  N   UNL     1      30.938  -9.351 -20.813  0.00  0.00    -0.231 NA
ATOM      4  N   UNL     1      30.392 -11.251 -19.384  0.00  0.00    -0.234 NA
ATOM      5  C   UNL     1      31.614 -10.247 -21.547  0.00  0.00    +0.137 C 
ATOM      6  C   UNL     1      31.738 -11.603 -21.299  0.00  0.00    +0.150 C 
ATOM      7  C   UNL     1      32.539 -12.076 -22.355  0.00  0.00    +0.090 C 
ATOM      8  C   UNL     1      31.094 -12.101 -20.171  0.00  0.00    +0.112 C 
ATOM      9  C   UNL     1      30.357  -9.947 -19.749  0.00  0.00    +0.252 C 
ATOM     10  N   UNL     1      31.162 -13.465 -19.834  0.00  0.00    -0.346 N 
ATOM     11  H   UNL     1      30.699 -13.796 -19.030  0.00  0.00    +0.143 HD
ATOM     12  H   UNL     1      31.672 -14.088 -20.400  0.00  0.00    +0.143 HD
ENDROOT
BRANCH   1  15
ATOM     13  O   UNL     1      32.077  -4.077 -23.657  0.00  0.00    -0.270 OA
ATOM     14  N   UNL     1      32.748  -6.234 -23.108  0.00  0.00    -0.274 N 
ATOM     15  C   UNL     1      32.499  -8.672 -23.384  0.00  0.00    +0.117 C 
ATOM     16  C   UNL     1      33.725  -8.673 -24.318  0.00  0.00    +0.025 C 
ATOM     17  C   UNL     1      32.588  -7.505 -22.386  0.00  0.00    +0.115 C 
ATOM     18  C   UNL     1      33.907  -7.309 -24.990  0.00  0.00    +0.023 C 
ATOM     19  C   UNL     1      33.938  -6.180 -23.961  0.00  0.00    +0.094 C 
ATOM     20  C   UNL     1      31.904  -5.130 -23.041  0.00  0.00    +0.249 C 
BRANCH  20  21
ATOM     21  C   UNL     1      30.712  -5.227 -22.176  0.00  0.00    +0.058 C 
ATOM     22  C   UNL     1      30.765  -4.717 -20.944  0.00  0.00    +0.005 C 
ENDBRANCH  20  21
ENDBRANCH   1  15
BRANCH   7  23
ATOM     23  C   UNL     1      32.978 -13.430 -22.584  0.00  0.00    +0.016 C 
ATOM     24  C   UNL     1      33.752 -14.083 -21.625  0.00  0.00    +0.004 C 
ATOM     25  C   UNL     1      32.627 -14.088 -23.763  0.00  0.00    +0.004 C 
ATOM     26  C   UNL     1      34.177 -15.393 -21.846  0.00  0.00    +0.038 C 
ATOM     27  C   UNL     1      33.051 -15.399 -23.983  0.00  0.00    +0.038 C 
ATOM     28  C   UNL     1      33.826 -16.050 -23.025  0.00  0.00    +0.145 C 
BRANCH  28  29
ATOM     29  O   UNL     1      34.243 -17.328 -23.241  0.00  0.00    -0.453 OA
BRANCH  29  30
ATOM     30  C   UNL     1      34.485 -18.123 -22.134  0.00  0.00    +0.145 C 
ATOM     31  C   UNL     1      33.457 -18.894 -21.592  0.00  0.00    +0.037 C 
ATOM     32  C   UNL     1      35.756 -18.154 -21.560  0.00  0.00    +0.037 C 
ATOM     33  C   UNL     1      33.700 -19.695 -20.475  0.00  0.00    +0.003 C 
ATOM     34  C   UNL     1      36.000 -18.955 -20.445  0.00  0.00    +0.003 C 
ATOM     35  C   UNL     1      34.971 -19.724 -19.902  0.00  0.00    +0.000 C 
ENDBRANCH  29  30
ENDBRANCH  28  29
ENDBRANCH   7  23
TORSDOF 5
ENDMDL
MODEL 3
REMARK VINA RESULT:     -10.9      3.103      5.784
REMARK  Name = 24821094
REMARK  5 active torsions:
REMARK  status: ('A' for Active; 'I' for Inactive)
REMARK    1  A    between atoms: N_1  and  C_12
REMARK    2  A    between atoms: C_7  and  C_20
REMARK    3  A    between atoms: C_17  and  C_18
REMARK    4  A    between atoms: C_25  and  O_26
REMARK    5  A    between atoms: O_26  and  C_27
REMARK                            x       y       z     vdW  Elec       q    Type
REMARK                         _______ _______ _______ _____ _____    ______ ____
ROOT
ATOM      1  N   UNL     1      33.037 -14.244 -21.524  0.00  0.00    -0.198 N 
ATOM      2  N   UNL     1      33.485 -15.185 -20.673  0.00  0.00    -0.181 NA
ATOM      3  N   UNL     1      32.645 -13.922 -23.891  0.00  0.00    -0.231 NA
ATOM      4  N   UNL     1      33.233 -15.907 -25.181  0.00  0.00    -0.234 NA
ATOM      5  C   UNL     1      33.035 -14.642 -22.828  0.00  0.00    +0.137 C 
ATOM      6  C   UNL     1      33.516 -15.939 -22.831  0.00  0.00    +0.150 C 
ATOM      7  C   UNL     1      33.775 -16.216 -21.476  0.00  0.00    +0.090 C 
ATOM      8  C   UNL     1      33.610 -16.575 -24.065  0.00  0.00    +0.112 C 
ATOM      9  C   UNL     1      32.780 -14.640 -25.028  0.00  0.00    +0.252 C 
ATOM     10  N   UNL     1      34.086 -17.895 -24.171  0.00  0.00    -0.346 N 
ATOM     11  H   UNL     1      34.144 -18.327 -25.055  0.00  0.00    +0.143 HD
ATOM     12  H   UNL     1      34.360 -18.387 -23.364  0.00  0.00    +0.143 HD
ENDROOT
BRANCH   1  15
ATOM     13  O   UNL     1      31.613  -8.401 -21.425  0.00  0.00    -0.270 OA
ATOM     14  N   UNL     1      31.550 -10.724 -21.498  0.00  0.00    -0.274 N 
ATOM     15  C   UNL     1      32.599 -12.896 -20.984  0.00  0.00    +0.117 C 
ATOM     16  C   UNL     1      31.657 -13.042 -19.773  0.00  0.00    +0.025 C 
ATOM     17  C   UNL     1      31.945 -12.021 -22.068  0.00  0.00    +0.115 C 
ATOM     18  C   UNL     1      31.202 -11.673 -19.259  0.00  0.00    +0.023 C 
ATOM     19  C   UNL     1      30.607 -10.826 -20.382  0.00  0.00    +0.094 C 
ATOM     20  C   UNL     1      31.974  -9.468 -21.923  0.00  0.00    +0.249 C 
BRANCH  20  21
ATOM     21  C   UNL     1      32.930  -9.409 -23.047  0.00  0.00    +0.058 C 
ATOM     22  C   UNL     1      33.724  -8.343 -23.162  0.00  0.00    +0.005 C 
ENDBRANCH  20  21
ENDBRANCH   1  15
BRANCH   7  23
ATOM     23  C   UNL     1      34.293 -17.438 -20.914  0.00  0.00    +0.016 C 
ATOM     24  C   UNL     1      35.656 -17.556 -20.641  0.00  0.00    +0.004 C 
ATOM     25  C   UNL     1      33.432 -18.501 -20.641  0.00  0.00    +0.004 C 
ATOM     26  C   UNL     1      36.157 -18.739 -20.097  0.00  0.00    +0.038 C 
ATOM     27  C   UNL     1      33.934 -19.683 -20.096  0.00  0.00    +0.038 C 
ATOM     28  C   UNL     1      35.297 -19.801 -19.824  0.00  0.00    +0.145 C 
BRANCH  28  29
ATOM     29  O   UNL     1      35.787 -20.956 -19.296  0.00  0.00    -0.453 OA
BRANCH  29  30
ATOM     30  C   UNL     1      35.170 -21.459 -18.163  0.00  0.00    +0.145 C 
ATOM     31  C   UNL     1      35.864 -21.507 -16.954  0.00  0.00    +0.037 C 
ATOM     32  C   UNL     1      33.854 -21.918 -18.230  0.00  0.00    +0.037 C 
ATOM     33  C   UNL     1      35.242 -22.014 -15.812  0.00  0.00    +0.003 C 
ATOM     34  C   UNL     1      33.232 -22.425 -17.089  0.00  0.00    +0.003 C 
ATOM     35  C   UNL     1      33.927 -22.474 -15.881  0.00  0.00    +0.000 C 
ENDBRANCH  29  30
ENDBRANCH  28  29
ENDBRANCH   7  23
TORSDOF 5
ENDMDL
MODEL 4
REMARK VINA RESULT:     -10.8      2.571      4.492
REMARK  Name = 24821094
REMARK  5 active torsions:
REMARK  status: ('A' for Active; 'I' for Inactive)
REMARK    1  A    between atoms: N_1  and  C_12
REMARK    2  A    between atoms: C_7  and  C_20
REMARK    3  A    between atoms: C_17  and  C_18
REMARK    4  A    between atoms: C_25  and  O_26
REMARK    5  A    between atoms: O_26  and  C_27
REMARK                            x       y       z     vdW  Elec       q    Type
REMARK                         _______ _______ _______ _____ _____    ______ ____
ROOT
ATOM      1  N   UNL     1      32.938 -12.745 -24.050  0.00  0.00    -0.198 N 
ATOM      2  N   UNL     1      33.616 -13.434 -23.114  0.00  0.00    -0.181 NA
ATOM      3  N   UNL     1      31.439 -13.133 -25.911  0.00  0.00    -0.231 NA
ATOM      4  N   UNL     1      30.986 -15.509 -26.225  0.00  0.00    -0.234 NA
ATOM      5  C   UNL     1      32.209 -13.535 -24.889  0.00  0.00    +0.137 C 
ATOM      6  C   UNL     1      32.426 -14.837 -24.470  0.00  0.00    +0.150 C 
ATOM      7  C   UNL     1      33.300 -14.707 -23.375  0.00  0.00    +0.090 C 
ATOM      8  C   UNL     1      31.780 -15.844 -25.180  0.00  0.00    +0.112 C 
ATOM      9  C   UNL     1      30.866 -14.193 -26.522  0.00  0.00    +0.252 C 
ATOM     10  N   UNL     1      31.936 -17.198 -24.830  0.00  0.00    -0.346 N 
ATOM     11  H   UNL     1      31.469 -17.895 -25.346  0.00  0.00    +0.143 HD
ATOM     12  H   UNL     1      32.510 -17.448 -24.071  0.00  0.00    +0.143 HD
ENDROOT
BRANCH   1  15
ATOM     13  O   UNL     1      32.244  -7.005 -22.392  0.00  0.00    -0.270 OA
ATOM     14  N   UNL     1      33.065  -9.148 -22.768  0.00  0.00    -0.274 N 
ATOM     15  C   UNL     1      33.041 -11.232 -24.086  0.00  0.00    +0.117 C 
ATOM     16  C   UNL     1      34.315 -10.762 -24.817  0.00  0.00    +0.025 C 
ATOM     17  C   UNL     1      32.972 -10.613 -22.679  0.00  0.00    +0.115 C 
ATOM     18  C   UNL     1      34.417  -9.235 -24.817  0.00  0.00    +0.023 C 
ATOM     19  C   UNL     1      34.293  -8.667 -23.405  0.00  0.00    +0.094 C 
ATOM     20  C   UNL     1      32.127  -8.228 -22.308  0.00  0.00    +0.249 C 
BRANCH  20  21
ATOM     21  C   UNL     1      30.899  -8.755 -21.679  0.00  0.00    +0.058 C 
ATOM     22  C   UNL     1      30.767  -8.670 -20.354  0.00  0.00    +0.005 C 
ENDBRANCH  20  21
ENDBRANCH   1  15
BRANCH   7  23
ATOM     23  C   UNL     1      33.849 -15.763 -22.562  0.00  0.00    +0.016 C 
ATOM     24  C   UNL     1      34.377 -16.904 -23.166  0.00  0.00    +0.004 C 
ATOM     25  C   UNL     1      33.854 -15.643 -21.173  0.00  0.00    +0.004 C 
ATOM     26  C   UNL     1      34.908 -17.926 -22.379  0.00  0.00    +0.038 C 
ATOM     27  C   UNL     1      34.386 -16.665 -20.386  0.00  0.00    +0.038 C 
ATOM     28  C   UNL     1      34.913 -17.806 -20.989  0.00  0.00    +0.145 C 
BRANCH  28  29
ATOM     29  O   UNL     1      35.429 -18.805 -20.222  0.00  0.00    -0.453 OA
BRANCH  29  30
ATOM     30  C   UNL     1      34.551 -19.750 -19.718  0.00  0.00    +0.145 C 
ATOM     31  C   UNL     1      35.032 -20.808 -18.947  0.00  0.00    +0.037 C 
ATOM     32  C   UNL     1      33.185 -19.644 -19.982  0.00  0.00    +0.037 C 
ATOM     33  C   UNL     1      34.147 -21.761 -18.440  0.00  0.00    +0.003 C 
ATOM     34  C   UNL     1      32.301 -20.596 -19.475  0.00  0.00    +0.003 C 
ATOM     35  C   UNL     1      32.782 -21.654 -18.705  0.00  0.00    +0.000 C 
ENDBRANCH  29  30
ENDBRANCH  28  29
ENDBRANCH   7  23
TORSDOF 5
ENDMDL
MODEL 5
REMARK VINA RESULT:     -10.5      7.674     14.735
REMARK  Name = 24821094
REMARK  5 active torsions:
REMARK  status: ('A' for Active; 'I' for Inactive)
REMARK    1  A    between atoms: N_1  and  C_12
REMARK    2  A    between atoms: C_7  and  C_20
REMARK    3  A    between atoms: C_17  and  C_18
REMARK    4  A    between atoms: C_25  and  O_26
REMARK    5  A    between atoms: O_26  and  C_27
REMARK                            x       y       z     vdW  Elec       q    Type
REMARK                         _______ _______ _______ _____ _____    ______ ____
ROOT
ATOM      1  N   UNL     1      35.079 -22.690 -15.584  0.00  0.00    -0.198 N 
ATOM      2  N   UNL     1      35.522 -21.983 -16.640  0.00  0.00    -0.181 NA
ATOM      3  N   UNL     1      33.006 -23.506 -14.639  0.00  0.00    -0.231 NA
ATOM      4  N   UNL     1      31.083 -22.870 -15.998  0.00  0.00    -0.234 NA
ATOM      5  C   UNL     1      33.726 -22.852 -15.562  0.00  0.00    +0.137 C 
ATOM      6  C   UNL     1      33.247 -22.204 -16.688  0.00  0.00    +0.150 C 
ATOM      7  C   UNL     1      34.400 -21.690 -17.309  0.00  0.00    +0.090 C 
ATOM      8  C   UNL     1      31.871 -22.227 -16.892  0.00  0.00    +0.112 C 
ATOM      9  C   UNL     1      31.690 -23.461 -14.942  0.00  0.00    +0.252 C 
ATOM     10  N   UNL     1      31.288 -21.598 -18.007  0.00  0.00    -0.346 N 
ATOM     11  H   UNL     1      30.312 -21.627 -18.134  0.00  0.00    +0.143 HD
ATOM     12  H   UNL     1      31.856 -21.130 -18.662  0.00  0.00    +0.143 HD
ENDROOT
BRANCH   1  15
ATOM     13  O   UNL     1      37.213 -25.503 -10.714  0.00  0.00    -0.270 OA
ATOM     14  N   UNL     1      36.558 -24.941 -12.873  0.00  0.00    -0.274 N 
ATOM     15  C   UNL     1      36.075 -23.214 -14.566  0.00  0.00    +0.117 C 
ATOM     16  C   UNL     1      37.457 -23.474 -15.198  0.00  0.00    +0.025 C 
ATOM     17  C   UNL     1      35.565 -24.480 -13.855  0.00  0.00    +0.115 C 
ATOM     18  C   UNL     1      38.439 -24.030 -14.163  0.00  0.00    +0.023 C 
ATOM     19  C   UNL     1      37.867 -25.253 -13.451  0.00  0.00    +0.094 C 
ATOM     20  C   UNL     1      36.357 -25.105 -11.506  0.00  0.00    +0.249 C 
BRANCH  20  21
ATOM     21  C   UNL     1      35.026 -24.772 -10.962  0.00  0.00    +0.058 C 
ATOM     22  C   UNL     1      34.948 -24.038  -9.850  0.00  0.00    +0.005 C 
ENDBRANCH  20  21
ENDBRANCH   1  15
BRANCH   7  23
ATOM     23  C   UNL     1      34.472 -20.924 -18.528  0.00  0.00    +0.016 C 
ATOM     24  C   UNL     1      33.304 -20.600 -19.217  0.00  0.00    +0.004 C 
ATOM     25  C   UNL     1      35.709 -20.504 -19.016  0.00  0.00    +0.004 C 
ATOM     26  C   UNL     1      33.373 -19.858 -20.396  0.00  0.00    +0.038 C 
ATOM     27  C   UNL     1      35.779 -19.761 -20.195  0.00  0.00    +0.038 C 
ATOM     28  C   UNL     1      34.610 -19.439 -20.885  0.00  0.00    +0.145 C 
BRANCH  28  29
ATOM     29  O   UNL     1      34.678 -18.717 -22.037  0.00  0.00    -0.453 OA
BRANCH  29  30
ATOM     30  C   UNL     1      34.321 -17.380 -21.982  0.00  0.00    +0.145 C 
ATOM     31  C   UNL     1      34.033 -16.686 -23.157  0.00  0.00    +0.037 C 
ATOM     32  C   UNL     1      34.250 -16.727 -20.751  0.00  0.00    +0.037 C 
ATOM     33  C   UNL     1      33.674 -15.339 -23.101  0.00  0.00    +0.003 C 
ATOM     34  C   UNL     1      33.891 -15.381 -20.695  0.00  0.00    +0.003 C 
ATOM     35  C   UNL     1      33.604 -14.687 -21.871  0.00  0.00    +0.000 C 
ENDBRANCH  29  30
ENDBRANCH  28  29
ENDBRANCH   7  23
TORSDOF 5
ENDMDL
MODEL 6
REMARK VINA RESULT:     -10.4      2.259      4.370
REMARK  Name = 24821094
REMARK  5 active torsions:
REMARK  status: ('A' for Active; 'I' for Inactive)
REMARK    1  A    between atoms: N_1  and  C_12
REMARK    2  A    between atoms: C_7  and  C_20
REMARK    3  A    between atoms: C_17  and  C_18
REMARK    4  A    between atoms: C_25  and  O_26
REMARK    5  A    between atoms: O_26  and  C_27
REMARK                            x       y       z     vdW  Elec       q    Type
REMARK                         _______ _______ _______ _____ _____    ______ ____
ROOT
ATOM      1  N   UNL     1      32.668 -12.315 -22.216  0.00  0.00    -0.198 N 
ATOM      2  N   UNL     1      33.103 -13.331 -21.449  0.00  0.00    -0.181 NA
ATOM      3  N   UNL     1      32.243 -11.802 -24.543  0.00  0.00    -0.231 NA
ATOM      4  N   UNL     1      32.747 -13.698 -25.992  0.00  0.00    -0.234 NA
ATOM      5  C   UNL     1      32.630 -12.611 -23.546  0.00  0.00    +0.137 C 
ATOM      6  C   UNL     1      33.072 -13.918 -23.657  0.00  0.00    +0.150 C 
ATOM      7  C   UNL     1      33.347 -14.305 -22.333  0.00  0.00    +0.090 C 
ATOM      8  C   UNL     1      33.123 -14.460 -24.938  0.00  0.00    +0.112 C 
ATOM      9  C   UNL     1      32.336 -12.434 -25.734  0.00  0.00    +0.252 C 
ATOM     10  N   UNL     1      33.557 -15.781 -25.154  0.00  0.00    -0.346 N 
ATOM     11  H   UNL     1      33.585 -16.146 -26.069  0.00  0.00    +0.143 HD
ATOM     12  H   UNL     1      33.830 -16.341 -24.392  0.00  0.00    +0.143 HD
ENDROOT
BRANCH   1  15
ATOM     13  O   UNL     1      32.241  -6.384 -21.309  0.00  0.00    -0.270 OA
ATOM     14  N   UNL     1      31.845  -8.597 -21.904  0.00  0.00    -0.274 N 
ATOM     15  C   UNL     1      32.282 -11.000 -21.566  0.00  0.00    +0.117 C 
ATOM     16  C   UNL     1      30.955 -11.112 -20.789  0.00  0.00    +0.025 C 
ATOM     17  C   UNL     1      32.210  -9.848 -22.584  0.00  0.00    +0.115 C 
ATOM     18  C   UNL     1      30.567  -9.770 -20.165  0.00  0.00    +0.023 C 
ATOM     19  C   UNL     1      30.559  -8.652 -21.206  0.00  0.00    +0.094 C 
ATOM     20  C   UNL     1      32.585  -7.418 -21.883  0.00  0.00    +0.249 C 
BRANCH  20  21
ATOM     21  C   UNL     1      33.879  -7.406 -22.594  0.00  0.00    +0.058 C 
ATOM     22  C   UNL     1      34.182  -6.359 -23.364  0.00  0.00    +0.005 C 
ENDBRANCH  20  21
ENDBRANCH   1  15
BRANCH   7  23
ATOM     23  C   UNL     1      33.838 -15.581 -21.876  0.00  0.00    +0.016 C 
ATOM     24  C   UNL     1      34.165 -16.573 -22.801  0.00  0.00    +0.004 C 
ATOM     25  C   UNL     1      33.987 -15.823 -20.511  0.00  0.00    +0.004 C 
ATOM     26  C   UNL     1      34.640 -17.808 -22.359  0.00  0.00    +0.038 C 
ATOM     27  C   UNL     1      34.464 -17.058 -20.069  0.00  0.00    +0.038 C 
ATOM     28  C   UNL     1      34.790 -18.050 -20.994  0.00  0.00    +0.145 C 
BRANCH  28  29
ATOM     29  O   UNL     1      35.251 -19.256 -20.563  0.00  0.00    -0.453 OA
BRANCH  29  30
ATOM     30  C   UNL     1      34.388 -20.049 -19.825  0.00  0.00    +0.145 C 
ATOM     31  C   UNL     1      33.009 -19.924 -19.994  0.00  0.00    +0.037 C 
ATOM     32  C   UNL     1      34.898 -20.974 -18.913  0.00  0.00    +0.037 C 
ATOM     33  C   UNL     1      32.140 -20.722 -19.251  0.00  0.00    +0.003 C 
ATOM     34  C   UNL     1      34.029 -21.773 -18.171  0.00  0.00    +0.003 C 
ATOM     35  C   UNL     1      32.650 -21.646 -18.339  0.00  0.00    +0.000 C 
ENDBRANCH  29  30
ENDBRANCH  28  29
ENDBRANCH   7  23
TORSDOF 5
ENDMDL
MODEL 7
REMARK VINA RESULT:     -10.2      8.204     14.987
REMARK  Name = 24821094
REMARK  5 active torsions:
REMARK  status: ('A' for Active; 'I' for Inactive)
REMARK    1  A    between atoms: N_1  and  C_12
REMARK    2  A    between atoms: C_7  and  C_20
REMARK    3  A    between atoms: C_17  and  C_18
REMARK    4  A    between atoms: C_25  and  O_26
REMARK    5  A    between atoms: O_26  and  C_27
REMARK                            x       y       z     vdW  Elec       q    Type
REMARK                         _______ _______ _______ _____ _____    ______ ____
ROOT
ATOM      1  N   UNL     1      33.850 -23.380 -14.747  0.00  0.00    -0.198 N 
ATOM      2  N   UNL     1      34.568 -22.810 -15.732  0.00  0.00    -0.181 NA
ATOM      3  N   UNL     1      31.544 -23.721 -14.095  0.00  0.00    -0.231 NA
ATOM      4  N   UNL     1      29.997 -22.737 -15.704  0.00  0.00    -0.234 NA
ATOM      5  C   UNL     1      32.503 -23.256 -14.911  0.00  0.00    +0.137 C 
ATOM      6  C   UNL     1      32.325 -22.554 -16.090  0.00  0.00    +0.150 C 
ATOM      7  C   UNL     1      33.633 -22.308 -16.547  0.00  0.00    +0.090 C 
ATOM      8  C   UNL     1      31.015 -22.296 -16.481  0.00  0.00    +0.112 C 
ATOM      9  C   UNL     1      30.320 -23.412 -14.575  0.00  0.00    +0.252 C 
ATOM     10  N   UNL     1      30.732 -21.591 -17.665  0.00  0.00    -0.346 N 
ATOM     11  H   UNL     1      29.797 -21.420 -17.923  0.00  0.00    +0.143 HD
ATOM     12  H   UNL     1      31.467 -21.270 -18.235  0.00  0.00    +0.143 HD
ENDROOT
BRANCH   1  15
ATOM     13  O   UNL     1      38.301 -25.922 -11.600  0.00  0.00    -0.270 OA
ATOM     14  N   UNL     1      36.725 -24.449 -12.469  0.00  0.00    -0.274 N 
ATOM     15  C   UNL     1      34.569 -24.071 -13.604  0.00  0.00    +0.117 C 
ATOM     16  C   UNL     1      33.932 -23.735 -12.240  0.00  0.00    +0.025 C 
ATOM     17  C   UNL     1      36.073 -23.749 -13.586  0.00  0.00    +0.115 C 
ATOM     18  C   UNL     1      34.688 -24.417 -11.097  0.00  0.00    +0.023 C 
ATOM     19  C   UNL     1      36.182 -24.107 -11.153  0.00  0.00    +0.094 C 
ATOM     20  C   UNL     1      37.773 -25.361 -12.561  0.00  0.00    +0.249 C 
BRANCH  20  21
ATOM     21  C   UNL     1      38.287 -25.684 -13.907  0.00  0.00    +0.058 C 
ATOM     22  C   UNL     1      39.517 -25.287 -14.240  0.00  0.00    +0.005 C 
ENDBRANCH  20  21
ENDBRANCH   1  15
BRANCH   7  23
ATOM     23  C   UNL     1      34.026 -21.607 -17.744  0.00  0.00    +0.016 C 
ATOM     24  C   UNL     1      35.370 -21.309 -17.966  0.00  0.00    +0.004 C 
ATOM     25  C   UNL     1      33.064 -21.229 -18.679  0.00  0.00    +0.004 C 
ATOM     26  C   UNL     1      35.751 -20.631 -19.124  0.00  0.00    +0.038 C 
ATOM     27  C   UNL     1      33.445 -20.551 -19.838  0.00  0.00    +0.038 C 
ATOM     28  C   UNL     1      34.789 -20.253 -20.060  0.00  0.00    +0.145 C 
BRANCH  28  29
ATOM     29  O   UNL     1      35.160 -19.588 -21.189  0.00  0.00    -0.453 OA
BRANCH  29  30
ATOM     30  C   UNL     1      34.713 -18.287 -21.347  0.00  0.00    +0.145 C 
ATOM     31  C   UNL     1      34.396 -17.809 -22.618  0.00  0.00    +0.037 C 
ATOM     32  C   UNL     1      34.581 -17.455 -20.236  0.00  0.00    +0.037 C 
ATOM     33  C   UNL     1      33.946 -16.498 -22.778  0.00  0.00    +0.003 C 
ATOM     34  C   UNL     1      34.131 -16.144 -20.395  0.00  0.00    +0.003 C 
ATOM     35  C   UNL     1      33.815 -15.666 -21.666  0.00  0.00    +0.000 C 
ENDBRANCH  29  30
ENDBRANCH  28  29
ENDBRANCH   7  23
TORSDOF 5
ENDMDL
MODEL 8
REMARK VINA RESULT:     -10.2      2.226      9.056
REMARK  Name = 24821094
REMARK  5 active torsions:
REMARK  status: ('A' for Active; 'I' for Inactive)
REMARK    1  A    between atoms: N_1  and  C_12
REMARK    2  A    between atoms: C_7  and  C_20
REMARK    3  A    between atoms: C_17  and  C_18
REMARK    4  A    between atoms: C_25  and  O_26
REMARK    5  A    between atoms: O_26  and  C_27
REMARK                            x       y       z     vdW  Elec       q    Type
REMARK                         _______ _______ _______ _____ _____    ______ ____
ROOT
ATOM      1  N   UNL     1      32.162 -11.330 -21.934  0.00  0.00    -0.198 N 
ATOM      2  N   UNL     1      32.649 -10.514 -22.887  0.00  0.00    -0.181 NA
ATOM      3  N   UNL     1      30.897 -11.223 -19.874  0.00  0.00    -0.231 NA
ATOM      4  N   UNL     1      30.290  -8.930 -19.306  0.00  0.00    -0.234 NA
ATOM      5  C   UNL     1      31.488 -10.676 -20.947  0.00  0.00    +0.137 C 
ATOM      6  C   UNL     1      31.536  -9.333 -21.278  0.00  0.00    +0.150 C 
ATOM      7  C   UNL     1      32.264  -9.298 -22.482  0.00  0.00    +0.090 C 
ATOM      8  C   UNL     1      30.907  -8.446 -20.410  0.00  0.00    +0.112 C 
ATOM      9  C   UNL     1      30.323 -10.269 -19.108  0.00  0.00    +0.252 C 
ATOM     10  N   UNL     1      30.899  -7.061 -20.661  0.00  0.00    -0.346 N 
ATOM     11  H   UNL     1      30.447  -6.451 -20.034  0.00  0.00    +0.143 HD
ATOM     12  H   UNL     1      31.344  -6.703 -21.463  0.00  0.00    +0.143 HD
ENDROOT
BRANCH   1  15
ATOM     13  O   UNL     1      33.021 -16.741 -24.416  0.00  0.00    -0.270 OA
ATOM     14  N   UNL     1      33.305 -14.665 -23.409  0.00  0.00    -0.274 N 
ATOM     15  C   UNL     1      32.398 -12.825 -22.040  0.00  0.00    +0.117 C 
ATOM     16  C   UNL     1      33.177 -13.369 -20.826  0.00  0.00    +0.025 C 
ATOM     17  C   UNL     1      33.110 -13.208 -23.349  0.00  0.00    +0.115 C 
ATOM     18  C   UNL     1      33.431 -14.873 -20.965  0.00  0.00    +0.023 C 
ATOM     19  C   UNL     1      34.092 -15.206 -22.300  0.00  0.00    +0.094 C 
ATOM     20  C   UNL     1      32.829 -15.525 -24.395  0.00  0.00    +0.249 C 
BRANCH  20  21
ATOM     21  C   UNL     1      32.033 -14.940 -25.492  0.00  0.00    +0.058 C 
ATOM     22  C   UNL     1      32.316 -13.703 -25.905  0.00  0.00    +0.005 C 
ENDBRANCH  20  21
ENDBRANCH   1  15
BRANCH   7  23
ATOM     23  C   UNL     1      32.608  -8.139 -23.265  0.00  0.00    +0.016 C 
ATOM     24  C   UNL     1      31.822  -7.780 -24.360  0.00  0.00    +0.004 C 
ATOM     25  C   UNL     1      33.725  -7.375 -22.928  0.00  0.00    +0.004 C 
ATOM     26  C   UNL     1      32.154  -6.657 -25.118  0.00  0.00    +0.038 C 
ATOM     27  C   UNL     1      34.057  -6.251 -23.686  0.00  0.00    +0.038 C 
ATOM     28  C   UNL     1      33.271  -5.893 -24.781  0.00  0.00    +0.145 C 
BRANCH  28  29
ATOM     29  O   UNL     1      33.597  -4.799 -25.523  0.00  0.00    -0.453 OA
BRANCH  29  30
ATOM     30  C   UNL     1      34.702  -4.890 -26.352  0.00  0.00    +0.145 C 
ATOM     31  C   UNL     1      35.764  -3.998 -26.199  0.00  0.00    +0.037 C 
ATOM     32  C   UNL     1      34.754  -5.872 -27.342  0.00  0.00    +0.037 C 
ATOM     33  C   UNL     1      36.877  -4.088 -27.036  0.00  0.00    +0.003 C 
ATOM     34  C   UNL     1      35.867  -5.963 -28.177  0.00  0.00    +0.003 C 
ATOM     35  C   UNL     1      36.927  -5.070 -28.025  0.00  0.00    +0.000 C 
ENDBRANCH  29  30
ENDBRANCH  28  29
ENDBRANCH   7  23
TORSDOF 5
ENDMDL
MODEL 9
REMARK VINA RESULT:     -10.0      1.379      1.821
REMARK  Name = 24821094
REMARK  5 active torsions:
REMARK  status: ('A' for Active; 'I' for Inactive)
REMARK    1  A    between atoms: N_1  and  C_12
REMARK    2  A    between atoms: C_7  and  C_20
REMARK    3  A    between atoms: C_17  and  C_18
REMARK    4  A    between atoms: C_25  and  O_26
REMARK    5  A    between atoms: O_26  and  C_27
REMARK                            x       y       z     vdW  Elec       q    Type
REMARK                         _______ _______ _______ _____ _____    ______ ____
ROOT
ATOM      1  N   UNL     1      32.496  -8.860 -22.869  0.00  0.00    -0.198 N 
ATOM      2  N   UNL     1      32.989  -9.910 -23.552  0.00  0.00    -0.181 NA
ATOM      3  N   UNL     1      31.136  -8.391 -20.923  0.00  0.00    -0.231 NA
ATOM      4  N   UNL     1      30.405 -10.439 -19.818  0.00  0.00    -0.234 NA
ATOM      5  C   UNL     1      31.749  -9.215 -21.785  0.00  0.00    +0.137 C 
ATOM      6  C   UNL     1      31.754 -10.599 -21.756  0.00  0.00    +0.150 C 
ATOM      7  C   UNL     1      32.533 -10.966 -22.869  0.00  0.00    +0.090 C 
ATOM      8  C   UNL     1      31.049 -11.211 -20.725  0.00  0.00    +0.112 C 
ATOM      9  C   UNL     1      30.487  -9.096 -19.970  0.00  0.00    +0.252 C 
ATOM     10  N   UNL     1      30.995 -12.612 -20.609  0.00  0.00    -0.346 N 
ATOM     11  H   UNL     1      30.491 -13.026 -19.871  0.00  0.00    +0.143 HD
ATOM     12  H   UNL     1      31.463 -13.179 -21.264  0.00  0.00    +0.143 HD
ENDROOT
BRANCH   1  15
ATOM     13  O   UNL     1      34.072  -4.364 -26.540  0.00  0.00    -0.270 OA
ATOM     14  N   UNL     1      32.893  -5.914 -25.269  0.00  0.00    -0.274 N 
ATOM     15  C   UNL     1      32.800  -7.452 -23.343  0.00  0.00    +0.117 C 
ATOM     16  C   UNL     1      31.988  -6.397 -22.565  0.00  0.00    +0.025 C 
ATOM     17  C   UNL     1      32.575  -7.289 -24.857  0.00  0.00    +0.115 C 
ATOM     18  C   UNL     1      32.285  -4.986 -23.077  0.00  0.00    +0.023 C 
ATOM     19  C   UNL     1      32.097  -4.890 -24.590  0.00  0.00    +0.094 C 
ATOM     20  C   UNL     1      33.839  -5.529 -26.215  0.00  0.00    +0.249 C 
BRANCH  20  21
ATOM     21  C   UNL     1      34.626  -6.592 -26.871  0.00  0.00    +0.058 C 
ATOM     22  C   UNL     1      35.319  -6.294 -27.972  0.00  0.00    +0.005 C 
ENDBRANCH  20  21
ENDBRANCH   1  15
BRANCH   7  23
ATOM     23  C   UNL     1      32.862 -12.300 -23.307  0.00  0.00    +0.016 C 
ATOM     24  C   UNL     1      32.495 -12.723 -24.584  0.00  0.00    +0.004 C 
ATOM     25  C   UNL     1      33.548 -13.165 -22.456  0.00  0.00    +0.004 C 
ATOM     26  C   UNL     1      32.813 -14.013 -25.009  0.00  0.00    +0.038 C 
ATOM     27  C   UNL     1      33.868 -14.455 -22.881  0.00  0.00    +0.038 C 
ATOM     28  C   UNL     1      33.500 -14.878 -24.157  0.00  0.00    +0.145 C 
BRANCH  28  29
ATOM     29  O   UNL     1      33.808 -16.138 -24.571  0.00  0.00    -0.453 OA
BRANCH  29  30
ATOM     30  C   UNL     1      33.934 -17.121 -23.603  0.00  0.00    +0.145 C 
ATOM     31  C   UNL     1      34.761 -16.911 -22.500  0.00  0.00    +0.037 C 
ATOM     32  C   UNL     1      33.235 -18.321 -23.732  0.00  0.00    +0.037 C 
ATOM     33  C   UNL     1      34.889 -17.901 -21.525  0.00  0.00    +0.003 C 
ATOM     34  C   UNL     1      33.362 -19.311 -22.758  0.00  0.00    +0.003 C 
ATOM     35  C   UNL     1      34.190 -19.101 -21.655  0.00  0.00    +0.000 C 
ENDBRANCH  29  30
ENDBRANCH  28  29
ENDBRANCH   7  23
TORSDOF 5
ENDMDL
