MODEL 1
REMARK VINA RESULT:     -11.3      0.000      0.000
REMARK  Name = 11234049
REMARK  5 active torsions:
REMARK  status: ('A' for Active; 'I' for Inactive)
REMARK    1  A    between atoms: C_2  and  N_10
REMARK    2  A    between atoms: C_5  and  C_18
REMARK    3  A    between atoms: C_11  and  C_14
REMARK    4  A    between atoms: C_14  and  O_15
REMARK    5  A    between atoms: C_22  and  C_27
REMARK                            x       y       z     vdW  Elec       q    Type
REMARK                         _______ _______ _______ _____ _____    ______ ____
ROOT
ATOM      1  F   UNL     1      32.419 -22.368 -17.369  0.00  0.00    -0.204 F 
ATOM      2  C   UNL     1      35.137 -23.051 -15.047  0.00  0.00    +0.059 C 
ATOM      3  C   UNL     1      33.875 -23.073 -15.649  0.00  0.00    +0.045 C 
ATOM      4  C   UNL     1      36.158 -22.284 -15.616  0.00  0.00    +0.015 C 
ATOM      5  C   UNL     1      34.660 -21.570 -17.371  0.00  0.00    +0.029 C 
ATOM      6  C   UNL     1      33.636 -22.335 -16.808  0.00  0.00    +0.141 C 
ATOM      7  C   UNL     1      35.921 -21.547 -16.775  0.00  0.00    +0.004 C 
ENDROOT
BRANCH   2  10
ATOM      8  O   UNL     1      35.850 -25.496 -12.444  0.00  0.00    -0.434 OA
ATOM      9  O   UNL     1      35.827 -25.988 -14.658  0.00  0.00    -0.226 OA
ATOM     10  N   UNL     1      35.380 -23.804 -13.863  0.00  0.00    -0.221 N 
ATOM     11  C   UNL     1      35.853 -24.300 -11.653  0.00  0.00    +0.220 C 
ATOM     12  C   UNL     1      35.210 -23.259 -12.543  0.00  0.00    +0.148 C 
ATOM     13  C   UNL     1      35.703 -25.156 -13.771  0.00  0.00    +0.409 C 
BRANCH  11  14
ATOM     14  C   UNL     1      37.289 -23.962 -11.276  0.00  0.00    +0.183 C 
BRANCH  14  15
ATOM     15  O   UNL     1      37.333 -22.625 -10.809  0.00  0.00    -0.378 OA
ATOM     16  H   UNL     1      37.959 -22.116 -11.347  0.00  0.00    +0.211 HD
ENDBRANCH  14  15
ENDBRANCH  11  14
ENDBRANCH   2  10
BRANCH   5  18
ATOM     17  N   UNL     1      35.292 -19.408 -20.341  0.00  0.00    -0.234 NA
ATOM     18  C   UNL     1      34.417 -20.802 -18.574  0.00  0.00    +0.021 C 
ATOM     19  C   UNL     1      33.142 -20.709 -19.116  0.00  0.00    +0.004 C 
ATOM     20  C   UNL     1      35.450 -20.141 -19.215  0.00  0.00    +0.100 C 
ATOM     21  C   UNL     1      32.940 -19.964 -20.272  0.00  0.00    +0.029 C 
ATOM     22  C   UNL     1      34.038 -19.338 -20.841  0.00  0.00    +0.146 C 
BRANCH  22  27
ATOM     23  N   UNL     1      34.185 -17.257 -22.103  0.00  0.00    -0.105 NA
ATOM     24  N   UNL     1      33.872 -17.032 -23.387  0.00  0.00    -0.113 N 
ATOM     25  N   UNL     1      33.424 -19.086 -23.200  0.00  0.00    -0.085 NA
ATOM     26  N   UNL     1      33.417 -18.089 -24.076  0.00  0.00    -0.018 NA
ATOM     27  C   UNL     1      33.888 -18.556 -22.034  0.00  0.00    +0.092 C 
ATOM     28  C   UNL     1      34.015 -15.733 -23.991  0.00  0.00    +0.163 C 
ENDBRANCH  22  27
ENDBRANCH   5  18
TORSDOF 5
ENDMDL
MODEL 2
REMARK VINA RESULT:     -10.5      1.156      1.853
REMARK  Name = 11234049
REMARK  5 active torsions:
REMARK  status: ('A' for Active; 'I' for Inactive)
REMARK    1  A    between atoms: C_2  and  N_10
REMARK    2  A    between atoms: C_5  and  C_18
REMARK    3  A    between atoms: C_11  and  C_14
REMARK    4  A    between atoms: C_14  and  O_15
REMARK    5  A    between atoms: C_22  and  C_27
REMARK                            x       y       z     vdW  Elec       q    Type
REMARK                         _______ _______ _______ _____ _____    ______ ____
ROOT
ATOM      1  F   UNL     1      32.522 -22.124 -17.827  0.00  0.00    -0.204 F 
ATOM      2  C   UNL     1      35.150 -22.831 -15.411  0.00  0.00    +0.059 C 
ATOM      3  C   UNL     1      33.913 -22.851 -16.064  0.00  0.00    +0.045 C 
ATOM      4  C   UNL     1      36.186 -22.044 -15.923  0.00  0.00    +0.015 C 
ATOM      5  C   UNL     1      34.753 -21.308 -17.722  0.00  0.00    +0.029 C 
ATOM      6  C   UNL     1      33.715 -22.092 -17.216  0.00  0.00    +0.141 C 
ATOM      7  C   UNL     1      35.989 -21.285 -17.075  0.00  0.00    +0.004 C 
ENDROOT
BRANCH   2  10
ATOM      8  O   UNL     1      35.017 -24.672 -12.272  0.00  0.00    -0.434 OA
ATOM      9  O   UNL     1      33.250 -23.552 -13.148  0.00  0.00    -0.226 OA
ATOM     10  N   UNL     1      35.352 -23.606 -14.233  0.00  0.00    -0.221 N 
ATOM     11  C   UNL     1      36.306 -25.092 -12.739  0.00  0.00    +0.220 C 
ATOM     12  C   UNL     1      36.639 -24.120 -13.850  0.00  0.00    +0.148 C 
ATOM     13  C   UNL     1      34.418 -23.899 -13.243  0.00  0.00    +0.409 C 
BRANCH  11  14
ATOM     14  C   UNL     1      36.212 -26.536 -13.214  0.00  0.00    +0.183 C 
BRANCH  14  15
ATOM     15  O   UNL     1      37.385 -26.851 -13.943  0.00  0.00    -0.378 OA
ATOM     16  H   UNL     1      37.152 -27.034 -14.866  0.00  0.00    +0.211 HD
ENDBRANCH  14  15
ENDBRANCH  11  14
ENDBRANCH   2  10
BRANCH   5  18
ATOM     17  N   UNL     1      33.044 -19.684 -20.610  0.00  0.00    -0.234 NA
ATOM     18  C   UNL     1      34.553 -20.517 -18.918  0.00  0.00    +0.021 C 
ATOM     19  C   UNL     1      35.612 -19.849 -19.518  0.00  0.00    +0.004 C 
ATOM     20  C   UNL     1      33.300 -20.406 -19.495  0.00  0.00    +0.100 C 
ATOM     21  C   UNL     1      35.388 -19.097 -20.666  0.00  0.00    +0.029 C 
ATOM     22  C   UNL     1      34.098 -19.048 -21.168  0.00  0.00    +0.146 C 
BRANCH  22  27
ATOM     23  N   UNL     1      34.008 -16.972 -22.445  0.00  0.00    -0.105 NA
ATOM     24  N   UNL     1      33.592 -16.781 -23.705  0.00  0.00    -0.113 N 
ATOM     25  N   UNL     1      33.305 -18.859 -23.480  0.00  0.00    -0.085 NA
ATOM     26  N   UNL     1      33.166 -17.873 -24.356  0.00  0.00    -0.018 NA
ATOM     27  C   UNL     1      33.810 -18.288 -22.351  0.00  0.00    +0.092 C 
ATOM     28  C   UNL     1      33.599 -15.481 -24.322  0.00  0.00    +0.163 C 
ENDBRANCH  22  27
ENDBRANCH   5  18
TORSDOF 5
ENDMDL
MODEL 3
REMARK VINA RESULT:     -10.1      4.853     10.086
REMARK  Name = 11234049
REMARK  5 active torsions:
REMARK  status: ('A' for Active; 'I' for Inactive)
REMARK    1  A    between atoms: C_2  and  N_10
REMARK    2  A    between atoms: C_5  and  C_18
REMARK    3  A    between atoms: C_11  and  C_14
REMARK    4  A    between atoms: C_14  and  O_15
REMARK    5  A    between atoms: C_22  and  C_27
REMARK                            x       y       z     vdW  Elec       q    Type
REMARK                         _______ _______ _______ _____ _____    ______ ____
ROOT
ATOM      1  F   UNL     1      36.424 -20.026 -19.258  0.00  0.00    -0.204 F 
ATOM      2  C   UNL     1      33.867 -18.777 -21.528  0.00  0.00    +0.059 C 
ATOM      3  C   UNL     1      35.115 -19.007 -20.938  0.00  0.00    +0.045 C 
ATOM      4  C   UNL     1      32.726 -19.370 -20.978  0.00  0.00    +0.015 C 
ATOM      5  C   UNL     1      34.076 -20.407 -19.265  0.00  0.00    +0.029 C 
ATOM      6  C   UNL     1      35.220 -19.819 -19.810  0.00  0.00    +0.141 C 
ATOM      7  C   UNL     1      32.831 -20.183 -19.851  0.00  0.00    +0.004 C 
ENDROOT
BRANCH   2  10
ATOM      8  O   UNL     1      33.138 -17.107 -24.680  0.00  0.00    -0.434 OA
ATOM      9  O   UNL     1      32.146 -19.036 -24.022  0.00  0.00    -0.226 OA
ATOM     10  N   UNL     1      33.761 -17.947 -22.679  0.00  0.00    -0.221 N 
ATOM     11  C   UNL     1      33.947 -16.099 -24.059  0.00  0.00    +0.220 C 
ATOM     12  C   UNL     1      34.615 -16.811 -22.904  0.00  0.00    +0.148 C 
ATOM     13  C   UNL     1      32.933 -18.133 -23.784  0.00  0.00    +0.409 C 
BRANCH  11  14
ATOM     14  C   UNL     1      33.050 -14.951 -23.617  0.00  0.00    +0.183 C 
BRANCH  14  15
ATOM     15  O   UNL     1      32.020 -14.784 -24.577  0.00  0.00    -0.378 OA
ATOM     16  H   UNL     1      31.177 -15.081 -24.200  0.00  0.00    +0.211 HD
ENDBRANCH  14  15
ENDBRANCH  11  14
ENDBRANCH   2  10
BRANCH   5  18
ATOM     17  N   UNL     1      35.531 -22.117 -16.288  0.00  0.00    -0.234 NA
ATOM     18  C   UNL     1      34.180 -21.252 -18.094  0.00  0.00    +0.021 C 
ATOM     19  C   UNL     1      33.090 -21.987 -17.646  0.00  0.00    +0.004 C 
ATOM     20  C   UNL     1      35.367 -21.349 -17.389  0.00  0.00    +0.100 C 
ATOM     21  C   UNL     1      33.220 -22.789 -16.518  0.00  0.00    +0.029 C 
ATOM     22  C   UNL     1      34.450 -22.819 -15.881  0.00  0.00    +0.146 C 
BRANCH  22  27
ATOM     23  N   UNL     1      35.610 -24.541 -14.601  0.00  0.00    -0.105 NA
ATOM     24  N   UNL     1      35.343 -24.989 -13.366  0.00  0.00    -0.113 N 
ATOM     25  N   UNL     1      33.837 -23.532 -13.617  0.00  0.00    -0.085 NA
ATOM     26  N   UNL     1      34.301 -24.419 -12.745  0.00  0.00    -0.018 NA
ATOM     27  C   UNL     1      34.641 -23.631 -14.713  0.00  0.00    +0.092 C 
ATOM     28  C   UNL     1      36.128 -26.022 -12.743  0.00  0.00    +0.163 C 
ENDBRANCH  22  27
ENDBRANCH   5  18
TORSDOF 5
ENDMDL
MODEL 4
REMARK VINA RESULT:      -9.5      7.685     11.437
REMARK  Name = 11234049
REMARK  5 active torsions:
REMARK  status: ('A' for Active; 'I' for Inactive)
REMARK    1  A    between atoms: C_2  and  N_10
REMARK    2  A    between atoms: C_5  and  C_18
REMARK    3  A    between atoms: C_11  and  C_14
REMARK    4  A    between atoms: C_14  and  O_15
REMARK    5  A    between atoms: C_22  and  C_27
REMARK                            x       y       z     vdW  Elec       q    Type
REMARK                         _______ _______ _______ _____ _____    ______ ____
ROOT
ATOM      1  F   UNL     1      32.647 -12.984 -25.025  0.00  0.00    -0.204 F 
ATOM      2  C   UNL     1      33.656 -15.223 -22.339  0.00  0.00    +0.059 C 
ATOM      3  C   UNL     1      33.276 -14.760 -23.604  0.00  0.00    +0.045 C 
ATOM      4  C   UNL     1      33.769 -14.317 -21.280  0.00  0.00    +0.015 C 
ATOM      5  C   UNL     1      33.126 -12.508 -22.745  0.00  0.00    +0.029 C 
ATOM      6  C   UNL     1      33.011 -13.407 -23.806  0.00  0.00    +0.141 C 
ATOM      7  C   UNL     1      33.506 -12.963 -21.483  0.00  0.00    +0.004 C 
ENDROOT
BRANCH   2  10
ATOM      8  O   UNL     1      34.215 -18.819 -22.472  0.00  0.00    -0.434 OA
ATOM      9  O   UNL     1      33.630 -17.571 -24.273  0.00  0.00    -0.226 OA
ATOM     10  N   UNL     1      33.926 -16.606 -22.133  0.00  0.00    -0.221 N 
ATOM     11  C   UNL     1      34.682 -18.555 -21.142  0.00  0.00    +0.220 C 
ATOM     12  C   UNL     1      34.166 -17.167 -20.830  0.00  0.00    +0.148 C 
ATOM     13  C   UNL     1      33.901 -17.624 -23.082  0.00  0.00    +0.409 C 
BRANCH  11  14
ATOM     14  C   UNL     1      36.202 -18.647 -21.126  0.00  0.00    +0.183 C 
BRANCH  14  15
ATOM     15  O   UNL     1      36.660 -18.357 -19.817  0.00  0.00    -0.378 OA
ATOM     16  H   UNL     1      37.490 -18.832 -19.653  0.00  0.00    +0.211 HD
ENDBRANCH  14  15
ENDBRANCH  11  14
ENDBRANCH   2  10
BRANCH   5  18
ATOM     17  N   UNL     1      31.634  -9.120 -22.295  0.00  0.00    -0.234 NA
ATOM     18  C   UNL     1      32.852 -11.101 -22.950  0.00  0.00    +0.021 C 
ATOM     19  C   UNL     1      33.502 -10.385 -23.946  0.00  0.00    +0.004 C 
ATOM     20  C   UNL     1      31.935 -10.432 -22.157  0.00  0.00    +0.100 C 
ATOM     21  C   UNL     1      33.219  -9.035 -24.119  0.00  0.00    +0.029 C 
ATOM     22  C   UNL     1      32.285  -8.455 -23.276  0.00  0.00    +0.146 C 
BRANCH  22  27
ATOM     23  N   UNL     1      30.774  -6.632 -23.860  0.00  0.00    -0.105 NA
ATOM     24  N   UNL     1      30.988  -5.311 -23.786  0.00  0.00    -0.113 N 
ATOM     25  N   UNL     1      32.826  -6.072 -23.083  0.00  0.00    -0.085 NA
ATOM     26  N   UNL     1      32.191  -4.934 -23.331  0.00  0.00    -0.018 NA
ATOM     27  C   UNL     1      31.953  -7.065 -23.409  0.00  0.00    +0.092 C 
ATOM     28  C   UNL     1      29.986  -4.353 -24.174  0.00  0.00    +0.163 C 
ENDBRANCH  22  27
ENDBRANCH   5  18
TORSDOF 5
ENDMDL
MODEL 5
REMARK VINA RESULT:      -9.5      1.531      2.178
REMARK  Name = 11234049
REMARK  5 active torsions:
REMARK  status: ('A' for Active; 'I' for Inactive)
REMARK    1  A    between atoms: C_2  and  N_10
REMARK    2  A    between atoms: C_5  and  C_18
REMARK    3  A    between atoms: C_11  and  C_14
REMARK    4  A    between atoms: C_14  and  O_15
REMARK    5  A    between atoms: C_22  and  C_27
REMARK                            x       y       z     vdW  Elec       q    Type
REMARK                         _______ _______ _______ _____ _____    ______ ____
ROOT
ATOM      1  F   UNL     1      33.018 -22.496 -16.101  0.00  0.00    -0.204 F 
ATOM      2  C   UNL     1      35.833 -23.079 -13.869  0.00  0.00    +0.059 C 
ATOM      3  C   UNL     1      34.536 -23.091 -14.394  0.00  0.00    +0.045 C 
ATOM      4  C   UNL     1      36.858 -22.446 -14.579  0.00  0.00    +0.015 C 
ATOM      5  C   UNL     1      35.295 -21.843 -16.319  0.00  0.00    +0.029 C 
ATOM      6  C   UNL     1      34.268 -22.475 -15.615  0.00  0.00    +0.141 C 
ATOM      7  C   UNL     1      36.590 -21.831 -15.801  0.00  0.00    +0.004 C 
ENDROOT
BRANCH   2  10
ATOM      8  O   UNL     1      36.821 -24.097 -10.515  0.00  0.00    -0.434 OA
ATOM      9  O   UNL     1      37.237 -22.042 -11.379  0.00  0.00    -0.226 OA
ATOM     10  N   UNL     1      36.107 -23.708 -12.621  0.00  0.00    -0.221 N 
ATOM     11  C   UNL     1      36.003 -25.219 -10.873  0.00  0.00    +0.220 C 
ATOM     12  C   UNL     1      35.830 -25.097 -12.371  0.00  0.00    +0.148 C 
ATOM     13  C   UNL     1      36.753 -23.155 -11.518  0.00  0.00    +0.409 C 
BRANCH  11  14
ATOM     14  C   UNL     1      34.689 -25.135 -10.108  0.00  0.00    +0.183 C 
BRANCH  14  15
ATOM     15  O   UNL     1      33.672 -24.711 -10.999  0.00  0.00    -0.378 OA
ATOM     16  H   UNL     1      34.008 -24.740 -11.909  0.00  0.00    +0.211 HD
ENDBRANCH  14  15
ENDBRANCH  11  14
ENDBRANCH   2  10
BRANCH   5  18
ATOM     17  N   UNL     1      35.775 -19.767 -19.378  0.00  0.00    -0.234 NA
ATOM     18  C   UNL     1      35.021 -21.202 -17.588  0.00  0.00    +0.021 C 
ATOM     19  C   UNL     1      33.803 -21.382 -18.230  0.00  0.00    +0.004 C 
ATOM     20  C   UNL     1      35.966 -20.394 -18.195  0.00  0.00    +0.100 C 
ATOM     21  C   UNL     1      33.569 -20.753 -19.448  0.00  0.00    +0.029 C 
ATOM     22  C   UNL     1      34.578 -19.963 -19.974  0.00  0.00    +0.146 C 
BRANCH  22  27
ATOM     23  N   UNL     1      33.256 -19.344 -21.929  0.00  0.00    -0.105 NA
ATOM     24  N   UNL     1      33.608 -18.575 -22.968  0.00  0.00    -0.113 N 
ATOM     25  N   UNL     1      35.368 -18.536 -21.804  0.00  0.00    -0.085 NA
ATOM     26  N   UNL     1      34.852 -18.074 -22.936  0.00  0.00    -0.018 NA
ATOM     27  C   UNL     1      34.391 -19.290 -21.228  0.00  0.00    +0.092 C 
ATOM     28  C   UNL     1      32.706 -18.302 -24.056  0.00  0.00    +0.163 C 
ENDBRANCH  22  27
ENDBRANCH   5  18
TORSDOF 5
ENDMDL
MODEL 6
REMARK VINA RESULT:      -9.4      9.334     14.080
REMARK  Name = 11234049
REMARK  5 active torsions:
REMARK  status: ('A' for Active; 'I' for Inactive)
REMARK    1  A    between atoms: C_2  and  N_10
REMARK    2  A    between atoms: C_5  and  C_18
REMARK    3  A    between atoms: C_11  and  C_14
REMARK    4  A    between atoms: C_14  and  O_15
REMARK    5  A    between atoms: C_22  and  C_27
REMARK                            x       y       z     vdW  Elec       q    Type
REMARK                         _______ _______ _______ _____ _____    ______ ____
ROOT
ATOM      1  F   UNL     1      31.302 -11.704 -20.906  0.00  0.00    -0.204 F 
ATOM      2  C   UNL     1      32.368  -8.921 -22.995  0.00  0.00    +0.059 C 
ATOM      3  C   UNL     1      31.689  -9.659 -22.019  0.00  0.00    +0.045 C 
ATOM      4  C   UNL     1      33.325  -9.554 -23.795  0.00  0.00    +0.015 C 
ATOM      5  C   UNL     1      32.920 -11.640 -22.648  0.00  0.00    +0.029 C 
ATOM      6  C   UNL     1      31.964 -11.014 -21.846  0.00  0.00    +0.141 C 
ATOM      7  C   UNL     1      33.601 -10.909 -23.621  0.00  0.00    +0.004 C 
ENDROOT
BRANCH   2  10
ATOM      8  O   UNL     1      31.388  -5.574 -24.042  0.00  0.00    -0.434 OA
ATOM      9  O   UNL     1      31.043  -7.434 -25.293  0.00  0.00    -0.226 OA
ATOM     10  N   UNL     1      32.087  -7.537 -23.172  0.00  0.00    -0.221 N 
ATOM     11  C   UNL     1      31.760  -5.299 -22.685  0.00  0.00    +0.220 C 
ATOM     12  C   UNL     1      32.530  -6.526 -22.250  0.00  0.00    +0.148 C 
ATOM     13  C   UNL     1      31.462  -6.932 -24.261  0.00  0.00    +0.409 C 
BRANCH  11  14
ATOM     14  C   UNL     1      30.499  -5.060 -21.867  0.00  0.00    +0.183 C 
BRANCH  14  15
ATOM     15  O   UNL     1      30.855  -4.390 -20.670  0.00  0.00    -0.378 OA
ATOM     16  H   UNL     1      30.315  -3.589 -20.576  0.00  0.00    +0.211 HD
ENDBRANCH  14  15
ENDBRANCH  11  14
ENDBRANCH   2  10
BRANCH   5  18
ATOM     17  N   UNL     1      33.770 -14.867 -20.986  0.00  0.00    -0.234 NA
ATOM     18  C   UNL     1      33.209 -13.048 -22.471  0.00  0.00    +0.021 C 
ATOM     19  C   UNL     1      33.207 -13.918 -23.554  0.00  0.00    +0.004 C 
ATOM     20  C   UNL     1      33.493 -13.564 -21.219  0.00  0.00    +0.100 C 
ATOM     21  C   UNL     1      33.488 -15.265 -23.354  0.00  0.00    +0.029 C 
ATOM     22  C   UNL     1      33.761 -15.685 -22.062  0.00  0.00    +0.146 C 
BRANCH  22  27
ATOM     23  N   UNL     1      34.455 -17.514 -20.605  0.00  0.00    -0.105 NA
ATOM     24  N   UNL     1      34.589 -18.814 -20.899  0.00  0.00    -0.113 N 
ATOM     25  N   UNL     1      33.959 -18.028 -22.754  0.00  0.00    -0.085 NA
ATOM     26  N   UNL     1      34.305 -19.165 -22.162  0.00  0.00    -0.018 NA
ATOM     27  C   UNL     1      34.059 -17.064 -21.797  0.00  0.00    +0.092 C 
ATOM     28  C   UNL     1      35.014 -19.779 -19.919  0.00  0.00    +0.163 C 
ENDBRANCH  22  27
ENDBRANCH   5  18
TORSDOF 5
ENDMDL
MODEL 7
REMARK VINA RESULT:      -9.3     10.281     14.989
REMARK  Name = 11234049
REMARK  5 active torsions:
REMARK  status: ('A' for Active; 'I' for Inactive)
REMARK    1  A    between atoms: C_2  and  N_10
REMARK    2  A    between atoms: C_5  and  C_18
REMARK    3  A    between atoms: C_11  and  C_14
REMARK    4  A    between atoms: C_14  and  O_15
REMARK    5  A    between atoms: C_22  and  C_27
REMARK                            x       y       z     vdW  Elec       q    Type
REMARK                         _______ _______ _______ _____ _____    ______ ____
ROOT
ATOM      1  F   UNL     1      34.506 -10.039 -24.339  0.00  0.00    -0.204 F 
ATOM      2  C   UNL     1      32.196  -7.725 -22.741  0.00  0.00    +0.059 C 
ATOM      3  C   UNL     1      33.255  -8.216 -23.512  0.00  0.00    +0.045 C 
ATOM      4  C   UNL     1      31.371  -8.621 -22.055  0.00  0.00    +0.015 C 
ATOM      5  C   UNL     1      32.658 -10.478 -22.908  0.00  0.00    +0.029 C 
ATOM      6  C   UNL     1      33.486  -9.589 -23.596  0.00  0.00    +0.141 C 
ATOM      7  C   UNL     1      31.600  -9.994 -22.139  0.00  0.00    +0.004 C 
ENDROOT
BRANCH   2  10
ATOM      8  O   UNL     1      31.702  -4.146 -23.189  0.00  0.00    -0.434 OA
ATOM      9  O   UNL     1      32.191  -5.569 -24.886  0.00  0.00    -0.226 OA
ATOM     10  N   UNL     1      31.962  -6.323 -22.655  0.00  0.00    -0.221 N 
ATOM     11  C   UNL     1      31.283  -4.274 -21.824  0.00  0.00    +0.220 C 
ATOM     12  C   UNL     1      31.784  -5.638 -21.403  0.00  0.00    +0.148 C 
ATOM     13  C   UNL     1      31.968  -5.398 -23.696  0.00  0.00    +0.409 C 
BRANCH  11  14
ATOM     14  C   UNL     1      29.767  -4.146 -21.759  0.00  0.00    +0.183 C 
BRANCH  14  15
ATOM     15  O   UNL     1      29.442  -2.934 -21.100  0.00  0.00    -0.378 OA
ATOM     16  H   UNL     1      29.977  -2.214 -21.467  0.00  0.00    +0.211 HD
ENDBRANCH  14  15
ENDBRANCH  11  14
ENDBRANCH   2  10
BRANCH   5  18
ATOM     17  N   UNL     1      32.885 -13.921 -24.321  0.00  0.00    -0.234 NA
ATOM     18  C   UNL     1      32.893 -11.904 -22.992  0.00  0.00    +0.021 C 
ATOM     19  C   UNL     1      33.336 -12.620 -21.888  0.00  0.00    +0.004 C 
ATOM     20  C   UNL     1      32.684 -12.591 -24.175  0.00  0.00    +0.100 C 
ATOM     21  C   UNL     1      33.554 -13.989 -21.998  0.00  0.00    +0.029 C 
ATOM     22  C   UNL     1      33.315 -14.586 -23.225  0.00  0.00    +0.146 C 
BRANCH  22  27
ATOM     23  N   UNL     1      33.995 -16.792 -22.435  0.00  0.00    -0.105 NA
ATOM     24  N   UNL     1      33.990 -17.956 -23.098  0.00  0.00    -0.113 N 
ATOM     25  N   UNL     1      33.248 -16.636 -24.568  0.00  0.00    -0.085 NA
ATOM     26  N   UNL     1      33.556 -17.911 -24.366  0.00  0.00    -0.018 NA
ATOM     27  C   UNL     1      33.522 -15.996 -23.397  0.00  0.00    +0.092 C 
ATOM     28  C   UNL     1      34.428 -19.184 -22.487  0.00  0.00    +0.163 C 
ENDBRANCH  22  27
ENDBRANCH   5  18
TORSDOF 5
ENDMDL
MODEL 8
REMARK VINA RESULT:      -9.3      7.835     11.385
REMARK  Name = 11234049
REMARK  5 active torsions:
REMARK  status: ('A' for Active; 'I' for Inactive)
REMARK    1  A    between atoms: C_2  and  N_10
REMARK    2  A    between atoms: C_5  and  C_18
REMARK    3  A    between atoms: C_11  and  C_14
REMARK    4  A    between atoms: C_14  and  O_15
REMARK    5  A    between atoms: C_22  and  C_27
REMARK                            x       y       z     vdW  Elec       q    Type
REMARK                         _______ _______ _______ _____ _____    ______ ____
ROOT
ATOM      1  F   UNL     1      32.221 -12.581 -19.757  0.00  0.00    -0.204 F 
ATOM      2  C   UNL     1      33.582 -15.085 -22.019  0.00  0.00    +0.059 C 
ATOM      3  C   UNL     1      33.110 -14.472 -20.853  0.00  0.00    +0.045 C 
ATOM      4  C   UNL     1      33.606 -14.363 -23.216  0.00  0.00    +0.015 C 
ATOM      5  C   UNL     1      32.696 -12.434 -22.082  0.00  0.00    +0.029 C 
ATOM      6  C   UNL     1      32.668 -13.150 -20.884  0.00  0.00    +0.141 C 
ATOM      7  C   UNL     1      33.163 -13.041 -23.247  0.00  0.00    +0.004 C 
ENDROOT
BRANCH   2  10
ATOM      8  O   UNL     1      34.684 -18.505 -22.609  0.00  0.00    -0.434 OA
ATOM      9  O   UNL     1      34.099 -17.070 -24.264  0.00  0.00    -0.226 OA
ATOM     10  N   UNL     1      34.034 -16.435 -21.986  0.00  0.00    -0.221 N 
ATOM     11  C   UNL     1      34.972 -18.402 -21.208  0.00  0.00    +0.220 C 
ATOM     12  C   UNL     1      34.226 -17.164 -20.761  0.00  0.00    +0.148 C 
ATOM     13  C   UNL     1      34.256 -17.280 -23.071  0.00  0.00    +0.409 C 
BRANCH  11  14
ATOM     14  C   UNL     1      36.480 -18.293 -21.022  0.00  0.00    +0.183 C 
BRANCH  14  15
ATOM     15  O   UNL     1      36.777 -18.413 -19.642  0.00  0.00    -0.378 OA
ATOM     16  H   UNL     1      37.326 -19.199 -19.497  0.00  0.00    +0.211 HD
ENDBRANCH  14  15
ENDBRANCH  11  14
ENDBRANCH   2  10
BRANCH   5  18
ATOM     17  N   UNL     1      30.770  -9.352 -21.249  0.00  0.00    -0.234 NA
ATOM     18  C   UNL     1      32.238 -11.061 -22.120  0.00  0.00    +0.021 C 
ATOM     19  C   UNL     1      32.786 -10.151 -23.014  0.00  0.00    +0.004 C 
ATOM     20  C   UNL     1      31.243 -10.620 -21.266  0.00  0.00    +0.100 C 
ATOM     21  C   UNL     1      32.326  -8.838 -23.027  0.00  0.00    +0.029 C 
ATOM     22  C   UNL     1      31.326  -8.493 -22.132  0.00  0.00    +0.146 C 
BRANCH  22  27
ATOM     23  N   UNL     1      30.360  -6.564 -20.993  0.00  0.00    -0.105 NA
ATOM     24  N   UNL     1      30.015  -5.375 -21.506  0.00  0.00    -0.113 N 
ATOM     25  N   UNL     1      30.747  -6.372 -23.216  0.00  0.00    -0.085 NA
ATOM     26  N   UNL     1      30.227  -5.217 -22.821  0.00  0.00    -0.018 NA
ATOM     27  C   UNL     1      30.812  -7.153 -22.102  0.00  0.00    +0.092 C 
ATOM     28  C   UNL     1      29.450  -4.329 -20.695  0.00  0.00    +0.163 C 
ENDBRANCH  22  27
ENDBRANCH   5  18
TORSDOF 5
ENDMDL
MODEL 9
REMARK VINA RESULT:      -9.2      9.245     14.232
REMARK  Name = 11234049
REMARK  5 active torsions:
REMARK  status: ('A' for Active; 'I' for Inactive)
REMARK    1  A    between atoms: C_2  and  N_10
REMARK    2  A    between atoms: C_5  and  C_18
REMARK    3  A    between atoms: C_11  and  C_14
REMARK    4  A    between atoms: C_14  and  O_15
REMARK    5  A    between atoms: C_22  and  C_27
REMARK                            x       y       z     vdW  Elec       q    Type
REMARK                         _______ _______ _______ _____ _____    ______ ____
ROOT
ATOM      1  F   UNL     1      31.412 -11.685 -20.869  0.00  0.00    -0.204 F 
ATOM      2  C   UNL     1      32.384  -8.948 -23.061  0.00  0.00    +0.059 C 
ATOM      3  C   UNL     1      31.753  -9.663 -22.038  0.00  0.00    +0.045 C 
ATOM      4  C   UNL     1      33.295  -9.602 -23.898  0.00  0.00    +0.015 C 
ATOM      5  C   UNL     1      32.938 -11.664 -22.693  0.00  0.00    +0.029 C 
ATOM      6  C   UNL     1      32.028 -11.018 -21.854  0.00  0.00    +0.141 C 
ATOM      7  C   UNL     1      33.571 -10.956 -23.713  0.00  0.00    +0.004 C 
ENDROOT
BRANCH   2  10
ATOM      8  O   UNL     1      32.312  -5.322 -23.382  0.00  0.00    -0.434 OA
ATOM      9  O   UNL     1      34.165  -6.496 -22.805  0.00  0.00    -0.226 OA
ATOM     10  N   UNL     1      32.102  -7.565 -23.250  0.00  0.00    -0.221 N 
ATOM     11  C   UNL     1      31.020  -5.633 -23.920  0.00  0.00    +0.220 C 
ATOM     12  C   UNL     1      30.777  -7.068 -23.507  0.00  0.00    +0.148 C 
ATOM     13  C   UNL     1      32.984  -6.496 -23.121  0.00  0.00    +0.409 C 
BRANCH  11  14
ATOM     14  C   UNL     1      31.055  -5.441 -25.430  0.00  0.00    +0.183 C 
BRANCH  14  15
ATOM     15  O   UNL     1      30.444  -6.562 -26.044  0.00  0.00    -0.378 OA
ATOM     16  H   UNL     1      30.648  -6.561 -26.992  0.00  0.00    +0.211 HD
ENDBRANCH  14  15
ENDBRANCH  11  14
ENDBRANCH   2  10
BRANCH   5  18
ATOM     17  N   UNL     1      33.798 -14.877 -21.007  0.00  0.00    -0.234 NA
ATOM     18  C   UNL     1      33.228 -13.071 -22.505  0.00  0.00    +0.021 C 
ATOM     19  C   UNL     1      33.219 -13.950 -23.580  0.00  0.00    +0.004 C 
ATOM     20  C   UNL     1      33.520 -13.576 -21.250  0.00  0.00    +0.100 C 
ATOM     21  C   UNL     1      33.501 -15.295 -23.369  0.00  0.00    +0.029 C 
ATOM     22  C   UNL     1      33.782 -15.704 -22.076  0.00  0.00    +0.146 C 
BRANCH  22  27
ATOM     23  N   UNL     1      34.452 -17.525 -20.598  0.00  0.00    -0.105 NA
ATOM     24  N   UNL     1      34.600 -18.826 -20.886  0.00  0.00    -0.113 N 
ATOM     25  N   UNL     1      34.008 -18.048 -22.756  0.00  0.00    -0.085 NA
ATOM     26  N   UNL     1      34.347 -19.181 -22.154  0.00  0.00    -0.018 NA
ATOM     27  C   UNL     1      34.081 -17.080 -21.800  0.00  0.00    +0.092 C 
ATOM     28  C   UNL     1      35.007 -19.785 -19.893  0.00  0.00    +0.163 C 
ENDBRANCH  22  27
ENDBRANCH   5  18
TORSDOF 5
ENDMDL
