MODEL 1
REMARK VINA RESULT:     -11.5      0.000      0.000
REMARK  Name = 9976892
REMARK  4 active torsions:
REMARK  status: ('A' for Active; 'I' for Inactive)
REMARK    1  A    between atoms: N_1  and  C_13
REMARK    2  A    between atoms: C_10  and  O_17
REMARK    3  A    between atoms: O_17  and  C_20
REMARK    4  A    between atoms: C_19  and  N_25
REMARK                            x       y       z     vdW  Elec       q    Type
REMARK                         _______ _______ _______ _____ _____    ______ ____
ROOT
ATOM      1  N   UNL     1      33.630 -16.515 -22.521  0.00  0.00    +0.389 N 
ATOM      2  C   UNL     1      34.188 -15.274 -21.965  0.00  0.00    -0.073 C 
ATOM      3  C   UNL     1      33.443 -16.468 -23.980  0.00  0.00    -0.073 C 
ATOM      4  C   UNL     1      33.201 -14.101 -21.983  0.00  0.00    +0.003 C 
ATOM      5  C   UNL     1      32.300 -15.548 -24.417  0.00  0.00    +0.003 C 
ATOM      6  C   UNL     1      33.118 -13.408 -23.320  0.00  0.00    -0.025 C 
ATOM      7  C   UNL     1      32.691 -14.093 -24.471  0.00  0.00    -0.028 C 
ATOM      8  C   UNL     1      33.458 -12.049 -23.415  0.00  0.00    +0.033 C 
ATOM      9  C   UNL     1      32.614 -13.401 -25.693  0.00  0.00    -0.002 C 
ATOM     10  C   UNL     1      33.382 -11.377 -24.635  0.00  0.00    +0.147 C 
ATOM     11  C   UNL     1      32.959 -12.053 -25.773  0.00  0.00    +0.037 C 
ATOM     12  H   UNL     1      32.707 -16.649 -22.104  0.00  0.00    -0.080 HD
ENDROOT
BRANCH   1  13
ATOM     13  C   UNL     1      34.530 -17.595 -22.208  0.00  0.00    -0.058 C 
ATOM     14  C   UNL     1      34.701 -17.745 -20.682  0.00  0.00    -0.021 C 
ATOM     15  C   UNL     1      33.782 -18.944 -22.179  0.00  0.00    -0.021 C 
ATOM     16  C   UNL     1      34.573 -19.268 -20.895  0.00  0.00    -0.004 C 
ENDBRANCH   1  13
BRANCH  10  17
ATOM     17  O   UNL     1      33.717 -10.060 -24.708  0.00  0.00    -0.436 OA
BRANCH  17  20
ATOM     18  N   UNL     1      32.003  -9.439 -23.273  0.00  0.00    -0.209 NA
ATOM     19  C   UNL     1      32.328  -7.595 -21.742  0.00  0.00    +0.073 C 
ATOM     20  C   UNL     1      33.258  -9.222 -23.706  0.00  0.00    +0.230 C 
ATOM     21  C   UNL     1      33.619  -7.413 -22.225  0.00  0.00    +0.021 C 
ATOM     22  C   UNL     1      31.567  -8.613 -22.295  0.00  0.00    +0.117 C 
ATOM     23  C   UNL     1      34.103  -8.241 -23.231  0.00  0.00    +0.059 C 
BRANCH  19  25
ATOM     24  O   UNL     1      31.808  -8.175 -18.788  0.00  0.00    -0.275 OA
ATOM     25  N   UNL     1      31.803  -6.761 -20.712  0.00  0.00    -0.257 N 
ATOM     26  C   UNL     1      31.263  -4.779 -19.598  0.00  0.00    +0.031 C 
ATOM     27  C   UNL     1      31.332  -5.414 -20.971  0.00  0.00    +0.099 C 
ATOM     28  C   UNL     1      30.927  -5.944 -18.688  0.00  0.00    +0.087 C 
ATOM     29  C   UNL     1      31.590  -7.120 -19.367  0.00  0.00    +0.229 C 
ENDBRANCH  19  25
ENDBRANCH  17  20
ENDBRANCH  10  17
TORSDOF 4
ENDMDL
MODEL 2
REMARK VINA RESULT:     -11.4      6.561     11.298
REMARK  Name = 9976892
REMARK  4 active torsions:
REMARK  status: ('A' for Active; 'I' for Inactive)
REMARK    1  A    between atoms: N_1  and  C_13
REMARK    2  A    between atoms: C_10  and  O_17
REMARK    3  A    between atoms: O_17  and  C_20
REMARK    4  A    between atoms: C_19  and  N_25
REMARK                            x       y       z     vdW  Elec       q    Type
REMARK                         _______ _______ _______ _____ _____    ______ ____
ROOT
ATOM      1  N   UNL     1      34.982 -23.746 -13.259  0.00  0.00    +0.389 N 
ATOM      2  C   UNL     1      36.115 -23.346 -14.105  0.00  0.00    -0.073 C 
ATOM      3  C   UNL     1      33.770 -24.076 -14.027  0.00  0.00    -0.073 C 
ATOM      4  C   UNL     1      35.934 -21.970 -14.755  0.00  0.00    +0.003 C 
ATOM      5  C   UNL     1      33.098 -22.853 -14.658  0.00  0.00    +0.003 C 
ATOM      6  C   UNL     1      35.081 -22.002 -15.998  0.00  0.00    -0.025 C 
ATOM      7  C   UNL     1      33.739 -22.420 -15.952  0.00  0.00    -0.028 C 
ATOM      8  C   UNL     1      35.632 -21.593 -17.224  0.00  0.00    +0.033 C 
ATOM      9  C   UNL     1      32.978 -22.418 -17.134  0.00  0.00    -0.002 C 
ATOM     10  C   UNL     1      34.866 -21.601 -18.390  0.00  0.00    +0.147 C 
ATOM     11  C   UNL     1      33.539 -22.013 -18.344  0.00  0.00    +0.037 C 
ATOM     12  H   UNL     1      34.751 -22.952 -12.661  0.00  0.00    -0.080 HD
ENDROOT
BRANCH   1  13
ATOM     13  C   UNL     1      35.372 -24.905 -12.499  0.00  0.00    -0.058 C 
ATOM     14  C   UNL     1      36.676 -25.514 -13.053  0.00  0.00    -0.021 C 
ATOM     15  C   UNL     1      36.182 -24.497 -11.251  0.00  0.00    -0.021 C 
ATOM     16  C   UNL     1      37.141 -25.658 -11.589  0.00  0.00    -0.004 C 
ENDBRANCH   1  13
BRANCH  10  17
ATOM     17  O   UNL     1      35.417 -21.203 -19.568  0.00  0.00    -0.436 OA
BRANCH  17  20
ATOM     18  N   UNL     1      35.934 -18.958 -19.842  0.00  0.00    -0.209 NA
ATOM     19  C   UNL     1      34.390 -17.503 -21.004  0.00  0.00    +0.073 C 
ATOM     20  C   UNL     1      35.060 -19.957 -20.058  0.00  0.00    +0.230 C 
ATOM     21  C   UNL     1      33.522 -18.571 -21.200  0.00  0.00    +0.021 C 
ATOM     22  C   UNL     1      35.573 -17.747 -20.325  0.00  0.00    +0.117 C 
ATOM     23  C   UNL     1      33.856 -19.831 -20.719  0.00  0.00    +0.059 C 
BRANCH  19  25
ATOM     24  O   UNL     1      34.334 -16.396 -23.850  0.00  0.00    -0.275 OA
ATOM     25  N   UNL     1      34.073 -16.199 -21.486  0.00  0.00    -0.257 N 
ATOM     26  C   UNL     1      33.117 -14.067 -21.489  0.00  0.00    +0.031 C 
ATOM     27  C   UNL     1      33.776 -15.095 -20.593  0.00  0.00    +0.099 C 
ATOM     28  C   UNL     1      33.781 -14.293 -22.832  0.00  0.00    +0.087 C 
ATOM     29  C   UNL     1      34.082 -15.774 -22.828  0.00  0.00    +0.229 C 
ENDBRANCH  19  25
ENDBRANCH  17  20
ENDBRANCH  10  17
TORSDOF 4
ENDMDL
MODEL 3
REMARK VINA RESULT:     -11.3      8.427     13.329
REMARK  Name = 9976892
REMARK  4 active torsions:
REMARK  status: ('A' for Active; 'I' for Inactive)
REMARK    1  A    between atoms: N_1  and  C_13
REMARK    2  A    between atoms: C_10  and  O_17
REMARK    3  A    between atoms: O_17  and  C_20
REMARK    4  A    between atoms: C_19  and  N_25
REMARK                            x       y       z     vdW  Elec       q    Type
REMARK                         _______ _______ _______ _____ _____    ______ ____
ROOT
ATOM      1  N   UNL     1      36.850 -24.137 -12.762  0.00  0.00    +0.389 N 
ATOM      2  C   UNL     1      36.832 -23.766 -14.184  0.00  0.00    -0.073 C 
ATOM      3  C   UNL     1      35.581 -24.718 -12.295  0.00  0.00    -0.073 C 
ATOM      4  C   UNL     1      35.954 -22.546 -14.484  0.00  0.00    +0.003 C 
ATOM      5  C   UNL     1      34.443 -23.697 -12.199  0.00  0.00    +0.003 C 
ATOM      6  C   UNL     1      34.487 -22.878 -14.603  0.00  0.00    -0.025 C 
ATOM      7  C   UNL     1      33.773 -23.422 -13.521  0.00  0.00    -0.028 C 
ATOM      8  C   UNL     1      33.818 -22.625 -15.810  0.00  0.00    +0.033 C 
ATOM      9  C   UNL     1      32.404 -23.701 -13.672  0.00  0.00    -0.002 C 
ATOM     10  C   UNL     1      32.459 -22.910 -15.948  0.00  0.00    +0.147 C 
ATOM     11  C   UNL     1      31.753 -23.447 -14.879  0.00  0.00    +0.037 C 
ATOM     12  H   UNL     1      37.004 -23.282 -12.225  0.00  0.00    -0.080 HD
ENDROOT
BRANCH   1  13
ATOM     13  C   UNL     1      37.899 -25.103 -12.560  0.00  0.00    -0.058 C 
ATOM     14  C   UNL     1      37.949 -26.113 -13.724  0.00  0.00    -0.021 C 
ATOM     15  C   UNL     1      39.250 -24.562 -13.070  0.00  0.00    -0.021 C 
ATOM     16  C   UNL     1      39.484 -25.954 -13.694  0.00  0.00    -0.004 C 
ENDBRANCH   1  13
BRANCH  10  17
ATOM     17  O   UNL     1      31.827 -22.660 -17.127  0.00  0.00    -0.436 OA
BRANCH  17  20
ATOM     18  N   UNL     1      31.699 -20.905 -18.639  0.00  0.00    -0.209 NA
ATOM     19  C   UNL     1      33.684 -20.194 -19.824  0.00  0.00    +0.073 C 
ATOM     20  C   UNL     1      32.465 -21.832 -18.036  0.00  0.00    +0.230 C 
ATOM     21  C   UNL     1      34.430 -21.169 -19.172  0.00  0.00    +0.021 C 
ATOM     22  C   UNL     1      32.334 -20.104 -19.525  0.00  0.00    +0.117 C 
ATOM     23  C   UNL     1      33.814 -22.013 -18.255  0.00  0.00    +0.059 C 
BRANCH  19  25
ATOM     24  O   UNL     1      36.335 -18.680 -19.718  0.00  0.00    -0.275 OA
ATOM     25  N   UNL     1      34.288 -19.314 -20.770  0.00  0.00    -0.257 N 
ATOM     26  C   UNL     1      34.739 -18.358 -22.853  0.00  0.00    +0.031 C 
ATOM     27  C   UNL     1      33.625 -18.927 -22.000  0.00  0.00    +0.099 C 
ATOM     28  C   UNL     1      35.688 -17.755 -21.837  0.00  0.00    +0.087 C 
ATOM     29  C   UNL     1      35.522 -18.650 -20.630  0.00  0.00    +0.229 C 
ENDBRANCH  19  25
ENDBRANCH  17  20
ENDBRANCH  10  17
TORSDOF 4
ENDMDL
MODEL 4
REMARK VINA RESULT:     -11.0      2.170      9.437
REMARK  Name = 9976892
REMARK  4 active torsions:
REMARK  status: ('A' for Active; 'I' for Inactive)
REMARK    1  A    between atoms: N_1  and  C_13
REMARK    2  A    between atoms: C_10  and  O_17
REMARK    3  A    between atoms: O_17  and  C_20
REMARK    4  A    between atoms: C_19  and  N_25
REMARK                            x       y       z     vdW  Elec       q    Type
REMARK                         _______ _______ _______ _____ _____    ______ ____
ROOT
ATOM      1  N   UNL     1      32.179  -6.011 -21.902  0.00  0.00    +0.389 N 
ATOM      2  C   UNL     1      31.234  -7.109 -22.149  0.00  0.00    -0.073 C 
ATOM      3  C   UNL     1      33.316  -5.999 -22.837  0.00  0.00    -0.073 C 
ATOM      4  C   UNL     1      31.791  -8.487 -21.773  0.00  0.00    +0.003 C 
ATOM      5  C   UNL     1      34.308  -7.143 -22.602  0.00  0.00    +0.003 C 
ATOM      6  C   UNL     1      32.684  -9.083 -22.832  0.00  0.00    -0.025 C 
ATOM      7  C   UNL     1      33.875  -8.446 -23.224  0.00  0.00    -0.028 C 
ATOM      8  C   UNL     1      32.328 -10.303 -23.428  0.00  0.00    +0.033 C 
ATOM      9  C   UNL     1      34.684  -9.047 -24.204  0.00  0.00    -0.002 C 
ATOM     10  C   UNL     1      33.138 -10.885 -24.403  0.00  0.00    +0.147 C 
ATOM     11  C   UNL     1      34.316 -10.257 -24.790  0.00  0.00    +0.037 C 
ATOM     12  H   UNL     1      32.563  -6.142 -20.965  0.00  0.00    -0.080 HD
ENDROOT
BRANCH   1  13
ATOM     13  C   UNL     1      31.468  -4.765 -22.030  0.00  0.00    -0.058 C 
ATOM     14  C   UNL     1      31.610  -4.194 -23.456  0.00  0.00    -0.021 C 
ATOM     15  C   UNL     1      29.981  -5.012 -22.359  0.00  0.00    -0.021 C 
ATOM     16  C   UNL     1      30.101  -3.875 -23.395  0.00  0.00    -0.004 C 
ENDBRANCH   1  13
BRANCH  10  17
ATOM     17  O   UNL     1      32.776 -12.067 -24.972  0.00  0.00    -0.436 OA
BRANCH  17  20
ATOM     18  N   UNL     1      33.093 -14.365 -25.006  0.00  0.00    -0.209 NA
ATOM     19  C   UNL     1      33.665 -15.529 -22.965  0.00  0.00    +0.073 C 
ATOM     20  C   UNL     1      33.078 -13.231 -24.284  0.00  0.00    +0.230 C 
ATOM     21  C   UNL     1      33.636 -14.328 -22.264  0.00  0.00    +0.021 C 
ATOM     22  C   UNL     1      33.389 -15.495 -24.322  0.00  0.00    +0.117 C 
ATOM     23  C   UNL     1      33.336 -13.147 -22.932  0.00  0.00    +0.059 C 
BRANCH  19  25
ATOM     24  O   UNL     1      33.280 -18.419 -23.876  0.00  0.00    -0.275 OA
ATOM     25  N   UNL     1      33.969 -16.757 -22.307  0.00  0.00    -0.257 N 
ATOM     26  C   UNL     1      35.036 -18.207 -20.818  0.00  0.00    +0.031 C 
ATOM     27  C   UNL     1      34.486 -16.803 -20.953  0.00  0.00    +0.099 C 
ATOM     28  C   UNL     1      34.132 -19.028 -21.715  0.00  0.00    +0.087 C 
ATOM     29  C   UNL     1      33.747 -18.055 -22.807  0.00  0.00    +0.229 C 
ENDBRANCH  19  25
ENDBRANCH  17  20
ENDBRANCH  10  17
TORSDOF 4
ENDMDL
MODEL 5
REMARK VINA RESULT:     -10.8      3.090      9.836
REMARK  Name = 9976892
REMARK  4 active torsions:
REMARK  status: ('A' for Active; 'I' for Inactive)
REMARK    1  A    between atoms: N_1  and  C_13
REMARK    2  A    between atoms: C_10  and  O_17
REMARK    3  A    between atoms: O_17  and  C_20
REMARK    4  A    between atoms: C_19  and  N_25
REMARK                            x       y       z     vdW  Elec       q    Type
REMARK                         _______ _______ _______ _____ _____    ______ ____
ROOT
ATOM      1  N   UNL     1      32.579  -9.459 -23.830  0.00  0.00    +0.389 N 
ATOM      2  C   UNL     1      33.375 -10.349 -24.687  0.00  0.00    -0.073 C 
ATOM      3  C   UNL     1      32.560  -9.874 -22.418  0.00  0.00    -0.073 C 
ATOM      4  C   UNL     1      32.726 -11.719 -24.911  0.00  0.00    +0.003 C 
ATOM      5  C   UNL     1      31.739 -11.143 -22.168  0.00  0.00    +0.003 C 
ATOM      6  C   UNL     1      32.958 -12.685 -23.777  0.00  0.00    -0.025 C 
ATOM      7  C   UNL     1      32.491 -12.412 -22.479  0.00  0.00    -0.028 C 
ATOM      8  C   UNL     1      33.640 -13.887 -24.022  0.00  0.00    +0.033 C 
ATOM      9  C   UNL     1      32.717 -13.349 -21.456  0.00  0.00    -0.002 C 
ATOM     10  C   UNL     1      33.862 -14.806 -22.997  0.00  0.00    +0.147 C 
ATOM     11  C   UNL     1      33.399 -14.537 -21.714  0.00  0.00    +0.037 C 
ATOM     12  H   UNL     1      31.616  -9.492 -24.165  0.00  0.00    -0.080 HD
ENDROOT
BRANCH   1  13
ATOM     13  C   UNL     1      33.138  -8.134 -23.911  0.00  0.00    -0.058 C 
ATOM     14  C   UNL     1      32.700  -7.277 -22.706  0.00  0.00    -0.021 C 
ATOM     15  C   UNL     1      34.563  -8.101 -23.319  0.00  0.00    -0.021 C 
ATOM     16  C   UNL     1      34.160  -6.784 -22.624  0.00  0.00    -0.004 C 
ENDBRANCH   1  13
BRANCH  10  17
ATOM     17  O   UNL     1      34.527 -15.965 -23.253  0.00  0.00    -0.436 OA
BRANCH  17  20
ATOM     18  N   UNL     1      34.916 -16.957 -21.192  0.00  0.00    -0.209 NA
ATOM     19  C   UNL     1      33.926 -19.105 -20.687  0.00  0.00    +0.073 C 
ATOM     20  C   UNL     1      34.317 -17.031 -22.394  0.00  0.00    +0.230 C 
ATOM     21  C   UNL     1      33.329 -19.132 -21.942  0.00  0.00    +0.021 C 
ATOM     22  C   UNL     1      34.703 -18.004 -20.363  0.00  0.00    +0.117 C 
ATOM     23  C   UNL     1      33.524 -18.075 -22.823  0.00  0.00    +0.059 C 
BRANCH  19  25
ATOM     24  O   UNL     1      31.372 -20.400 -19.623  0.00  0.00    -0.275 OA
ATOM     25  N   UNL     1      33.744 -20.175 -19.762  0.00  0.00    -0.257 N 
ATOM     26  C   UNL     1      34.277 -22.101 -18.551  0.00  0.00    +0.031 C 
ATOM     27  C   UNL     1      34.858 -20.807 -19.081  0.00  0.00    +0.099 C 
ATOM     28  C   UNL     1      32.829 -21.749 -18.273  0.00  0.00    +0.087 C 
ATOM     29  C   UNL     1      32.517 -20.705 -19.321  0.00  0.00    +0.229 C 
ENDBRANCH  19  25
ENDBRANCH  17  20
ENDBRANCH  10  17
TORSDOF 4
ENDMDL
MODEL 6
REMARK VINA RESULT:     -10.7      4.328     10.210
REMARK  Name = 9976892
REMARK  4 active torsions:
REMARK  status: ('A' for Active; 'I' for Inactive)
REMARK    1  A    between atoms: N_1  and  C_13
REMARK    2  A    between atoms: C_10  and  O_17
REMARK    3  A    between atoms: O_17  and  C_20
REMARK    4  A    between atoms: C_19  and  N_25
REMARK                            x       y       z     vdW  Elec       q    Type
REMARK                         _______ _______ _______ _____ _____    ______ ____
ROOT
ATOM      1  N   UNL     1      31.874 -12.419 -20.557  0.00  0.00    +0.389 N 
ATOM      2  C   UNL     1      32.407 -13.588 -19.842  0.00  0.00    -0.073 C 
ATOM      3  C   UNL     1      31.502 -12.709 -21.951  0.00  0.00    -0.073 C 
ATOM      4  C   UNL     1      33.802 -14.007 -20.317  0.00  0.00    +0.003 C 
ATOM      5  C   UNL     1      32.708 -12.943 -22.866  0.00  0.00    +0.003 C 
ATOM      6  C   UNL     1      33.782 -14.845 -21.571  0.00  0.00    -0.025 C 
ATOM      7  C   UNL     1      33.264 -14.341 -22.777  0.00  0.00    -0.028 C 
ATOM      8  C   UNL     1      34.303 -16.149 -21.539  0.00  0.00    +0.033 C 
ATOM      9  C   UNL     1      33.280 -15.153 -23.924  0.00  0.00    -0.002 C 
ATOM     10  C   UNL     1      34.308 -16.945 -22.684  0.00  0.00    +0.147 C 
ATOM     11  C   UNL     1      33.798 -16.446 -23.876  0.00  0.00    +0.037 C 
ATOM     12  H   UNL     1      32.612 -11.714 -20.584  0.00  0.00    -0.080 HD
ENDROOT
BRANCH   1  13
ATOM     13  C   UNL     1      30.704 -11.956 -19.857  0.00  0.00    -0.058 C 
ATOM     14  C   UNL     1      31.077 -10.896 -18.801  0.00  0.00    -0.021 C 
ATOM     15  C   UNL     1      30.008 -10.822 -20.638  0.00  0.00    -0.021 C 
ATOM     16  C   UNL     1      29.854 -10.091 -19.288  0.00  0.00    -0.004 C 
ENDBRANCH   1  13
BRANCH  10  17
ATOM     17  O   UNL     1      34.816 -18.206 -22.633  0.00  0.00    -0.436 OA
BRANCH  17  20
ATOM     18  N   UNL     1      35.507 -19.441 -20.794  0.00  0.00    -0.209 NA
ATOM     19  C   UNL     1      33.864 -20.532 -19.395  0.00  0.00    +0.073 C 
ATOM     20  C   UNL     1      34.483 -18.991 -21.542  0.00  0.00    +0.230 C 
ATOM     21  C   UNL     1      32.842 -20.041 -20.200  0.00  0.00    +0.021 C 
ATOM     22  C   UNL     1      35.168 -20.206 -19.732  0.00  0.00    +0.117 C 
ATOM     23  C   UNL     1      33.150 -19.252 -21.302  0.00  0.00    +0.059 C 
BRANCH  19  25
ATOM     24  O   UNL     1      35.638 -21.366 -17.053  0.00  0.00    -0.275 OA
ATOM     25  N   UNL     1      33.579 -21.345 -18.259  0.00  0.00    -0.257 N 
ATOM     26  C   UNL     1      32.286 -22.394 -16.619  0.00  0.00    +0.031 C 
ATOM     27  C   UNL     1      32.302 -22.010 -18.083  0.00  0.00    +0.099 C 
ATOM     28  C   UNL     1      33.748 -22.643 -16.305  0.00  0.00    +0.087 C 
ATOM     29  C   UNL     1      34.471 -21.685 -17.223  0.00  0.00    +0.229 C 
ENDBRANCH  19  25
ENDBRANCH  17  20
ENDBRANCH  10  17
TORSDOF 4
ENDMDL
MODEL 7
REMARK VINA RESULT:     -10.6      6.042     10.971
REMARK  Name = 9976892
REMARK  4 active torsions:
REMARK  status: ('A' for Active; 'I' for Inactive)
REMARK    1  A    between atoms: N_1  and  C_13
REMARK    2  A    between atoms: C_10  and  O_17
REMARK    3  A    between atoms: O_17  and  C_20
REMARK    4  A    between atoms: C_19  and  N_25
REMARK                            x       y       z     vdW  Elec       q    Type
REMARK                         _______ _______ _______ _____ _____    ______ ____
ROOT
ATOM      1  N   UNL     1      31.079 -22.978 -15.019  0.00  0.00    +0.389 N 
ATOM      2  C   UNL     1      31.118 -22.653 -16.452  0.00  0.00    -0.073 C 
ATOM      3  C   UNL     1      32.167 -22.353 -14.250  0.00  0.00    -0.073 C 
ATOM      4  C   UNL     1      32.276 -23.327 -17.198  0.00  0.00    +0.003 C 
ATOM      5  C   UNL     1      33.542 -22.966 -14.535  0.00  0.00    +0.003 C 
ATOM      6  C   UNL     1      33.589 -22.601 -17.048  0.00  0.00    -0.025 C 
ATOM      7  C   UNL     1      34.188 -22.430 -15.787  0.00  0.00    -0.028 C 
ATOM      8  C   UNL     1      34.234 -22.098 -18.189  0.00  0.00    +0.033 C 
ATOM      9  C   UNL     1      35.421 -21.761 -15.697  0.00  0.00    -0.002 C 
ATOM     10  C   UNL     1      35.455 -21.431 -18.084  0.00  0.00    +0.147 C 
ATOM     11  C   UNL     1      36.048 -21.264 -16.838  0.00  0.00    +0.037 C 
ATOM     12  H   UNL     1      31.192 -23.989 -14.932  0.00  0.00    -0.080 HD
ENDROOT
BRANCH   1  13
ATOM     13  C   UNL     1      29.821 -22.523 -14.487  0.00  0.00    -0.058 C 
ATOM     14  C   UNL     1      28.770 -22.378 -15.606  0.00  0.00    -0.021 C 
ATOM     15  C   UNL     1      28.986 -23.708 -13.960  0.00  0.00    -0.021 C 
ATOM     16  C   UNL     1      27.768 -23.055 -14.647  0.00  0.00    -0.004 C 
ENDBRANCH   1  13
BRANCH  10  17
ATOM     17  O   UNL     1      36.065 -20.949 -19.201  0.00  0.00    -0.436 OA
BRANCH  17  20
ATOM     18  N   UNL     1      36.401 -18.752 -19.865  0.00  0.00    -0.209 NA
ATOM     19  C   UNL     1      34.584 -17.508 -20.865  0.00  0.00    +0.073 C 
ATOM     20  C   UNL     1      35.554 -19.792 -19.765  0.00  0.00    +0.230 C 
ATOM     21  C   UNL     1      33.750 -18.614 -20.739  0.00  0.00    +0.021 C 
ATOM     22  C   UNL     1      35.890 -17.627 -20.417  0.00  0.00    +0.117 C 
ATOM     23  C   UNL     1      34.238 -19.787 -20.176  0.00  0.00    +0.059 C 
BRANCH  19  25
ATOM     24  O   UNL     1      34.233 -16.692 -23.788  0.00  0.00    -0.275 OA
ATOM     25  N   UNL     1      34.111 -16.291 -21.438  0.00  0.00    -0.257 N 
ATOM     26  C   UNL     1      32.953 -14.265 -21.562  0.00  0.00    +0.031 C 
ATOM     27  C   UNL     1      33.767 -15.138 -20.629  0.00  0.00    +0.099 C 
ATOM     28  C   UNL     1      33.546 -14.559 -22.925  0.00  0.00    +0.087 C 
ATOM     29  C   UNL     1      33.989 -16.000 -22.810  0.00  0.00    +0.229 C 
ENDBRANCH  19  25
ENDBRANCH  17  20
ENDBRANCH  10  17
TORSDOF 4
ENDMDL
MODEL 8
REMARK VINA RESULT:     -10.3      3.990     10.400
REMARK  Name = 9976892
REMARK  4 active torsions:
REMARK  status: ('A' for Active; 'I' for Inactive)
REMARK    1  A    between atoms: N_1  and  C_13
REMARK    2  A    between atoms: C_10  and  O_17
REMARK    3  A    between atoms: O_17  and  C_20
REMARK    4  A    between atoms: C_19  and  N_25
REMARK                            x       y       z     vdW  Elec       q    Type
REMARK                         _______ _______ _______ _____ _____    ______ ____
ROOT
ATOM      1  N   UNL     1      32.702 -11.660 -24.214  0.00  0.00    +0.389 N 
ATOM      2  C   UNL     1      33.195 -12.817 -24.977  0.00  0.00    -0.073 C 
ATOM      3  C   UNL     1      33.141 -11.659 -22.809  0.00  0.00    -0.073 C 
ATOM      4  C   UNL     1      32.526 -14.137 -24.579  0.00  0.00    +0.003 C 
ATOM      5  C   UNL     1      32.460 -12.736 -21.959  0.00  0.00    +0.003 C 
ATOM      6  C   UNL     1      33.121 -14.761 -23.342  0.00  0.00    -0.025 C 
ATOM      7  C   UNL     1      33.090 -14.098 -22.102  0.00  0.00    -0.028 C 
ATOM      8  C   UNL     1      33.706 -16.035 -23.424  0.00  0.00    +0.033 C 
ATOM      9  C   UNL     1      33.643 -14.726 -20.973  0.00  0.00    -0.002 C 
ATOM     10  C   UNL     1      34.255 -16.644 -22.296  0.00  0.00    +0.147 C 
ATOM     11  C   UNL     1      34.223 -15.989 -21.071  0.00  0.00    +0.037 C 
ATOM     12  H   UNL     1      31.683 -11.708 -24.210  0.00  0.00    -0.080 HD
ENDROOT
BRANCH   1  13
ATOM     13  C   UNL     1      33.189 -10.461 -24.847  0.00  0.00    -0.058 C 
ATOM     14  C   UNL     1      32.459  -9.216 -24.304  0.00  0.00    -0.021 C 
ATOM     15  C   UNL     1      34.453  -9.937 -24.135  0.00  0.00    -0.021 C 
ATOM     16  C   UNL     1      33.838  -8.526 -24.248  0.00  0.00    -0.004 C 
ENDBRANCH   1  13
BRANCH  10  17
ATOM     17  O   UNL     1      34.819 -17.879 -22.396  0.00  0.00    -0.436 OA
BRANCH  17  20
ATOM     18  N   UNL     1      35.790 -18.952 -20.582  0.00  0.00    -0.209 NA
ATOM     19  C   UNL     1      34.454 -20.413 -19.194  0.00  0.00    +0.073 C 
ATOM     20  C   UNL     1      34.684 -18.737 -21.316  0.00  0.00    +0.230 C 
ATOM     21  C   UNL     1      33.340 -20.156 -19.986  0.00  0.00    +0.021 C 
ATOM     22  C   UNL     1      35.645 -19.792 -19.532  0.00  0.00    +0.117 C 
ATOM     23  C   UNL     1      33.449 -19.299 -21.075  0.00  0.00    +0.059 C 
BRANCH  19  25
ATOM     24  O   UNL     1      36.274 -20.692 -16.757  0.00  0.00    -0.275 OA
ATOM     25  N   UNL     1      34.373 -21.288 -18.071  0.00  0.00    -0.257 N 
ATOM     26  C   UNL     1      33.380 -22.702 -16.498  0.00  0.00    +0.031 C 
ATOM     27  C   UNL     1      33.353 -22.314 -17.961  0.00  0.00    +0.099 C 
ATOM     28  C   UNL     1      34.829 -22.496 -16.105  0.00  0.00    +0.087 C 
ATOM     29  C   UNL     1      35.271 -21.351 -16.988  0.00  0.00    +0.229 C 
ENDBRANCH  19  25
ENDBRANCH  17  20
ENDBRANCH  10  17
TORSDOF 4
ENDMDL
MODEL 9
REMARK VINA RESULT:      -9.9      2.753      3.516
REMARK  Name = 9976892
REMARK  4 active torsions:
REMARK  status: ('A' for Active; 'I' for Inactive)
REMARK    1  A    between atoms: N_1  and  C_13
REMARK    2  A    between atoms: C_10  and  O_17
REMARK    3  A    between atoms: O_17  and  C_20
REMARK    4  A    between atoms: C_19  and  N_25
REMARK                            x       y       z     vdW  Elec       q    Type
REMARK                         _______ _______ _______ _____ _____    ______ ____
ROOT
ATOM      1  N   UNL     1      33.428 -16.191 -22.987  0.00  0.00    +0.389 N 
ATOM      2  C   UNL     1      33.889 -15.160 -22.046  0.00  0.00    -0.073 C 
ATOM      3  C   UNL     1      33.462 -15.754 -24.392  0.00  0.00    -0.073 C 
ATOM      4  C   UNL     1      32.909 -13.991 -21.895  0.00  0.00    +0.003 C 
ATOM      5  C   UNL     1      32.392 -14.712 -24.731  0.00  0.00    +0.003 C 
ATOM      6  C   UNL     1      33.023 -12.967 -22.996  0.00  0.00    -0.025 C 
ATOM      7  C   UNL     1      32.778 -13.308 -24.338  0.00  0.00    -0.028 C 
ATOM      8  C   UNL     1      33.366 -11.644 -22.675  0.00  0.00    +0.033 C 
ATOM      9  C   UNL     1      32.881 -12.317 -25.328  0.00  0.00    -0.002 C 
ATOM     10  C   UNL     1      33.469 -10.671 -23.669  0.00  0.00    +0.147 C 
ATOM     11  C   UNL     1      33.226 -11.008 -24.995  0.00  0.00    +0.037 C 
ATOM     12  H   UNL     1      32.454 -16.398 -22.761  0.00  0.00    -0.080 HD
ENDROOT
BRANCH   1  13
ATOM     13  C   UNL     1      34.277 -17.345 -22.845  0.00  0.00    -0.058 C 
ATOM     14  C   UNL     1      34.502 -17.683 -21.357  0.00  0.00    -0.021 C 
ATOM     15  C   UNL     1      33.455 -18.647 -22.938  0.00  0.00    -0.021 C 
ATOM     16  C   UNL     1      34.279 -19.162 -21.738  0.00  0.00    -0.004 C 
ENDBRANCH   1  13
BRANCH  10  17
ATOM     17  O   UNL     1      33.804  -9.394 -23.340  0.00  0.00    -0.436 OA
BRANCH  17  20
ATOM     18  N   UNL     1      33.472  -7.560 -24.721  0.00  0.00    -0.209 NA
ATOM     19  C   UNL     1      31.365  -6.373 -24.655  0.00  0.00    +0.073 C 
ATOM     20  C   UNL     1      32.972  -8.377 -23.777  0.00  0.00    +0.230 C 
ATOM     21  C   UNL     1      30.896  -7.247 -23.681  0.00  0.00    +0.021 C 
ATOM     22  C   UNL     1      32.649  -6.570 -25.139  0.00  0.00    +0.117 C 
ATOM     23  C   UNL     1      31.712  -8.276 -23.225  0.00  0.00    +0.059 C 
BRANCH  19  25
ATOM     24  O   UNL     1      30.807  -5.445 -27.512  0.00  0.00    -0.275 OA
ATOM     25  N   UNL     1      30.552  -5.308 -25.142  0.00  0.00    -0.257 N 
ATOM     26  C   UNL     1      28.838  -3.720 -25.139  0.00  0.00    +0.031 C 
ATOM     27  C   UNL     1      29.870  -4.387 -24.254  0.00  0.00    +0.099 C 
ATOM     28  C   UNL     1      29.502  -3.701 -26.501  0.00  0.00    +0.087 C 
ATOM     29  C   UNL     1      30.358  -4.947 -26.489  0.00  0.00    +0.229 C 
ENDBRANCH  19  25
ENDBRANCH  17  20
ENDBRANCH  10  17
TORSDOF 4
ENDMDL
