MODEL 1
REMARK VINA RESULT:     -11.5      0.000      0.000
REMARK  Name = 57336276
REMARK  5 active torsions:
REMARK  status: ('A' for Active; 'I' for Inactive)
REMARK    1  A    between atoms: C_2  and  C_16
REMARK    2  A    between atoms: C_6  and  O_17
REMARK    3  A    between atoms: O_17  and  C_18
REMARK    4  A    between atoms: C_18  and  C_21
REMARK    5  A    between atoms: C_22  and  C_26
REMARK                            x       y       z     vdW  Elec       q    Type
REMARK                         _______ _______ _______ _____ _____    ______ ____
ROOT
ATOM      1  N   UNL     1      32.997 -11.350 -23.918  0.00  0.00    -0.210 NA
ATOM      2  C   UNL     1      32.635 -13.731 -23.705  0.00  0.00    +0.073 C 
ATOM      3  C   UNL     1      32.090 -13.542 -22.440  0.00  0.00    +0.011 C 
ATOM      4  C   UNL     1      33.070 -12.612 -24.398  0.00  0.00    +0.107 C 
ATOM      5  C   UNL     1      31.997 -12.258 -21.914  0.00  0.00    +0.058 C 
ATOM      6  C   UNL     1      32.461 -11.206 -22.686  0.00  0.00    +0.225 C 
ENDROOT
BRANCH   2  16
ATOM      7  S   UNL     1      34.319 -18.174 -21.727  0.00  0.00    -0.007 S 
ATOM      8  O   UNL     1      33.603 -18.836 -20.655  0.00  0.00    -0.173 OA
ATOM      9  O   UNL     1      35.683 -18.547 -22.052  0.00  0.00    -0.173 OA
ATOM     10  O   UNL     1      31.970 -15.330 -25.207  0.00  0.00    -0.270 OA
ATOM     11  N   UNL     1      33.705 -15.942 -23.761  0.00  0.00    -0.272 N 
ATOM     12  C   UNL     1      33.335 -18.311 -23.210  0.00  0.00    +0.172 C 
ATOM     13  C   UNL     1      34.280 -16.417 -21.411  0.00  0.00    +0.172 C 
ATOM     14  C   UNL     1      33.786 -17.315 -24.268  0.00  0.00    +0.119 C 
ATOM     15  C   UNL     1      34.629 -15.624 -22.662  0.00  0.00    +0.119 C 
ATOM     16  C   UNL     1      32.747 -15.073 -24.289  0.00  0.00    +0.251 C 
ENDBRANCH   2  16
BRANCH   6  17
ATOM     17  O   UNL     1      32.380  -9.931 -22.189  0.00  0.00    -0.455 OA
BRANCH  17  18
ATOM     18  C   UNL     1      31.125  -9.531 -21.653  0.00  0.00    +0.238 C 
BRANCH  18  21
ATOM     19  O   UNL     1      31.401  -7.659 -18.487  0.00  0.00    -0.358 OA
ATOM     20  N   UNL     1      32.002  -6.741 -19.338  0.00  0.00    -0.078 NA
ATOM     21  C   UNL     1      31.357  -8.579 -20.517  0.00  0.00    +0.075 A 
ATOM     22  C   UNL     1      31.964  -7.311 -20.545  0.00  0.00    +0.122 A 
ATOM     23  C   UNL     1      31.021  -8.749 -19.200  0.00  0.00    +0.154 A 
ATOM     24  C   UNL     1      30.363  -9.827 -18.447  0.00  0.00    +0.075 C 
BRANCH  22  26
ATOM     25  F   UNL     1      34.074  -4.671 -24.970  0.00  0.00    -0.204 F 
ATOM     26  C   UNL     1      32.509  -6.629 -21.688  0.00  0.00    +0.021 C 
ATOM     27  C   UNL     1      31.777  -5.619 -22.314  0.00  0.00    +0.004 C 
ATOM     28  C   UNL     1      33.770  -6.977 -22.173  0.00  0.00    +0.004 C 
ATOM     29  C   UNL     1      32.306  -4.957 -23.421  0.00  0.00    +0.030 C 
ATOM     30  C   UNL     1      34.299  -6.315 -23.282  0.00  0.00    +0.030 C 
ATOM     31  C   UNL     1      33.567  -5.306 -23.906  0.00  0.00    +0.140 C 
ENDBRANCH  22  26
ENDBRANCH  18  21
ENDBRANCH  17  18
ENDBRANCH   6  17
TORSDOF 5
ENDMDL
MODEL 2
REMARK VINA RESULT:     -10.9      4.383     10.003
REMARK  Name = 57336276
REMARK  5 active torsions:
REMARK  status: ('A' for Active; 'I' for Inactive)
REMARK    1  A    between atoms: C_2  and  C_16
REMARK    2  A    between atoms: C_6  and  O_17
REMARK    3  A    between atoms: O_17  and  C_18
REMARK    4  A    between atoms: C_18  and  C_21
REMARK    5  A    between atoms: C_22  and  C_26
REMARK                            x       y       z     vdW  Elec       q    Type
REMARK                         _______ _______ _______ _____ _____    ______ ____
ROOT
ATOM      1  N   UNL     1      32.662 -12.831 -22.062  0.00  0.00    -0.210 NA
ATOM      2  C   UNL     1      31.246 -11.296 -20.845  0.00  0.00    +0.073 C 
ATOM      3  C   UNL     1      31.184 -12.187 -19.779  0.00  0.00    +0.011 C 
ATOM      4  C   UNL     1      31.992 -11.662 -21.954  0.00  0.00    +0.107 C 
ATOM      5  C   UNL     1      31.861 -13.400 -19.854  0.00  0.00    +0.058 C 
ATOM      6  C   UNL     1      32.579 -13.671 -21.007  0.00  0.00    +0.225 C 
ENDROOT
BRANCH   2  16
ATOM      7  S   UNL     1      31.449  -7.190 -23.942  0.00  0.00    -0.007 S 
ATOM      8  O   UNL     1      30.972  -7.258 -25.309  0.00  0.00    -0.173 OA
ATOM      9  O   UNL     1      32.290  -6.093 -23.502  0.00  0.00    -0.173 OA
ATOM     10  O   UNL     1      29.453 -10.008 -20.228  0.00  0.00    -0.270 OA
ATOM     11  N   UNL     1      31.152  -8.904 -21.398  0.00  0.00    -0.272 N 
ATOM     12  C   UNL     1      30.031  -7.274 -22.861  0.00  0.00    +0.172 C 
ATOM     13  C   UNL     1      32.291  -8.721 -23.577  0.00  0.00    +0.172 C 
ATOM     14  C   UNL     1      30.439  -7.624 -21.438  0.00  0.00    +0.119 C 
ATOM     15  C   UNL     1      32.457  -8.916 -22.077  0.00  0.00    +0.119 C 
ATOM     16  C   UNL     1      30.543 -10.008 -20.797  0.00  0.00    +0.251 C 
ENDBRANCH   2  16
BRANCH   6  17
ATOM     17  O   UNL     1      33.255 -14.860 -21.104  0.00  0.00    -0.455 OA
BRANCH  17  18
ATOM     18  C   UNL     1      34.137 -15.006 -22.210  0.00  0.00    +0.238 C 
BRANCH  18  21
ATOM     19  O   UNL     1      32.606 -17.065 -24.860  0.00  0.00    -0.358 OA
ATOM     20  N   UNL     1      33.048 -18.081 -24.020  0.00  0.00    -0.078 NA
ATOM     21  C   UNL     1      33.594 -16.055 -23.135  0.00  0.00    +0.075 A 
ATOM     22  C   UNL     1      33.635 -17.453 -22.997  0.00  0.00    +0.122 A 
ATOM     23  C   UNL     1      32.936 -15.864 -24.322  0.00  0.00    +0.154 A 
ATOM     24  C   UNL     1      32.539 -14.674 -25.088  0.00  0.00    +0.075 C 
BRANCH  22  26
ATOM     25  F   UNL     1      35.887 -20.376 -18.828  0.00  0.00    -0.204 F 
ATOM     26  C   UNL     1      34.216 -18.208 -21.920  0.00  0.00    +0.021 C 
ATOM     27  C   UNL     1      35.559 -18.028 -21.587  0.00  0.00    +0.004 C 
ATOM     28  C   UNL     1      33.439 -19.122 -21.208  0.00  0.00    +0.004 C 
ATOM     29  C   UNL     1      36.123 -18.759 -20.542  0.00  0.00    +0.030 C 
ATOM     30  C   UNL     1      34.004 -19.855 -20.163  0.00  0.00    +0.030 C 
ATOM     31  C   UNL     1      35.345 -19.673 -19.831  0.00  0.00    +0.140 C 
ENDBRANCH  22  26
ENDBRANCH  18  21
ENDBRANCH  17  18
ENDBRANCH   6  17
TORSDOF 5
ENDMDL
MODEL 3
REMARK VINA RESULT:     -10.8      4.304     10.176
REMARK  Name = 57336276
REMARK  5 active torsions:
REMARK  status: ('A' for Active; 'I' for Inactive)
REMARK    1  A    between atoms: C_2  and  C_16
REMARK    2  A    between atoms: C_6  and  O_17
REMARK    3  A    between atoms: O_17  and  C_18
REMARK    4  A    between atoms: C_18  and  C_21
REMARK    5  A    between atoms: C_22  and  C_26
REMARK                            x       y       z     vdW  Elec       q    Type
REMARK                         _______ _______ _______ _____ _____    ______ ____
ROOT
ATOM      1  N   UNL     1      33.521 -12.684 -22.578  0.00  0.00    -0.210 NA
ATOM      2  C   UNL     1      32.150 -10.713 -22.295  0.00  0.00    +0.073 C 
ATOM      3  C   UNL     1      31.357 -11.388 -21.375  0.00  0.00    +0.011 C 
ATOM      4  C   UNL     1      33.212 -11.399 -22.864  0.00  0.00    +0.107 C 
ATOM      5  C   UNL     1      31.644 -12.711 -21.055  0.00  0.00    +0.058 C 
ATOM      6  C   UNL     1      32.728 -13.307 -21.679  0.00  0.00    +0.225 C 
ENDROOT
BRANCH   2  16
ATOM      7  S   UNL     1      31.407  -6.533 -19.385  0.00  0.00    -0.007 S 
ATOM      8  O   UNL     1      32.478  -5.982 -18.577  0.00  0.00    -0.173 OA
ATOM      9  O   UNL     1      30.029  -6.145 -19.157  0.00  0.00    -0.173 OA
ATOM     10  O   UNL     1      32.276  -8.951 -23.757  0.00  0.00    -0.270 OA
ATOM     11  N   UNL     1      31.192  -8.523 -21.729  0.00  0.00    -0.272 N 
ATOM     12  C   UNL     1      31.798  -6.223 -21.099  0.00  0.00    +0.172 C 
ATOM     13  C   UNL     1      31.509  -8.313 -19.292  0.00  0.00    +0.172 C 
ATOM     14  C   UNL     1      30.971  -7.104 -22.023  0.00  0.00    +0.119 C 
ATOM     15  C   UNL     1      30.714  -8.970 -20.411  0.00  0.00    +0.119 C 
ATOM     16  C   UNL     1      31.873  -9.317 -22.654  0.00  0.00    +0.251 C 
ENDBRANCH   2  16
BRANCH   6  17
ATOM     17  O   UNL     1      33.032 -14.610 -21.380  0.00  0.00    -0.455 OA
BRANCH  17  18
ATOM     18  C   UNL     1      34.137 -15.183 -22.067  0.00  0.00    +0.238 C 
BRANCH  18  21
ATOM     19  O   UNL     1      32.716 -17.284 -24.745  0.00  0.00    -0.358 OA
ATOM     20  N   UNL     1      33.149 -18.286 -23.887  0.00  0.00    -0.078 NA
ATOM     21  C   UNL     1      33.637 -16.247 -23.000  0.00  0.00    +0.075 A 
ATOM     22  C   UNL     1      33.696 -17.643 -22.851  0.00  0.00    +0.122 A 
ATOM     23  C   UNL     1      33.011 -16.074 -24.207  0.00  0.00    +0.154 A 
ATOM     24  C   UNL     1      32.618 -14.895 -24.992  0.00  0.00    +0.075 C 
BRANCH  22  26
ATOM     25  F   UNL     1      35.874 -20.503 -18.600  0.00  0.00    -0.204 F 
ATOM     26  C   UNL     1      34.259 -18.382 -21.753  0.00  0.00    +0.021 C 
ATOM     27  C   UNL     1      35.597 -18.203 -21.404  0.00  0.00    +0.004 C 
ATOM     28  C   UNL     1      33.466 -19.278 -21.035  0.00  0.00    +0.004 C 
ATOM     29  C   UNL     1      36.143 -18.919 -20.339  0.00  0.00    +0.030 C 
ATOM     30  C   UNL     1      34.012 -19.995 -19.970  0.00  0.00    +0.030 C 
ATOM     31  C   UNL     1      35.350 -19.815 -19.622  0.00  0.00    +0.140 C 
ENDBRANCH  22  26
ENDBRANCH  18  21
ENDBRANCH  17  18
ENDBRANCH   6  17
TORSDOF 5
ENDMDL
MODEL 4
REMARK VINA RESULT:     -10.6      4.627     10.167
REMARK  Name = 57336276
REMARK  5 active torsions:
REMARK  status: ('A' for Active; 'I' for Inactive)
REMARK    1  A    between atoms: C_2  and  C_16
REMARK    2  A    between atoms: C_6  and  O_17
REMARK    3  A    between atoms: O_17  and  C_18
REMARK    4  A    between atoms: C_18  and  C_21
REMARK    5  A    between atoms: C_22  and  C_26
REMARK                            x       y       z     vdW  Elec       q    Type
REMARK                         _______ _______ _______ _____ _____    ______ ____
ROOT
ATOM      1  N   UNL     1      32.022 -10.108 -22.289  0.00  0.00    -0.210 NA
ATOM      2  C   UNL     1      33.372  -8.366 -23.284  0.00  0.00    +0.073 C 
ATOM      3  C   UNL     1      34.147  -9.325 -23.925  0.00  0.00    +0.011 C 
ATOM      4  C   UNL     1      32.328  -8.806 -22.483  0.00  0.00    +0.107 C 
ATOM      5  C   UNL     1      33.861 -10.675 -23.749  0.00  0.00    +0.058 C 
ATOM      6  C   UNL     1      32.798 -11.010 -22.928  0.00  0.00    +0.225 C 
ENDROOT
BRANCH   2  16
ATOM      7  S   UNL     1      30.470  -4.530 -25.113  0.00  0.00    -0.007 S 
ATOM      8  O   UNL     1      29.278  -4.092 -24.414  0.00  0.00    -0.173 OA
ATOM      9  O   UNL     1      30.705  -4.146 -26.492  0.00  0.00    -0.173 OA
ATOM     10  O   UNL     1      34.487  -6.454 -22.689  0.00  0.00    -0.270 OA
ATOM     11  N   UNL     1      32.943  -6.238 -24.434  0.00  0.00    -0.272 N 
ATOM     12  C   UNL     1      31.886  -4.035 -24.147  0.00  0.00    +0.172 C 
ATOM     13  C   UNL     1      30.545  -6.310 -25.008  0.00  0.00    +0.172 C 
ATOM     14  C   UNL     1      33.136  -4.792 -24.569  0.00  0.00    +0.119 C 
ATOM     15  C   UNL     1      31.940  -6.823 -25.338  0.00  0.00    +0.119 C 
ATOM     16  C   UNL     1      33.647  -6.935 -23.449  0.00  0.00    +0.251 C 
ENDBRANCH   2  16
BRANCH   6  17
ATOM     17  O   UNL     1      32.496 -12.334 -22.739  0.00  0.00    -0.455 OA
BRANCH  17  18
ATOM     18  C   UNL     1      33.520 -13.273 -23.040  0.00  0.00    +0.238 C 
BRANCH  18  21
ATOM     19  O   UNL     1      32.092 -15.092 -25.914  0.00  0.00    -0.358 OA
ATOM     20  N   UNL     1      32.508 -16.177 -25.152  0.00  0.00    -0.078 NA
ATOM     21  C   UNL     1      33.014 -14.237 -24.073  0.00  0.00    +0.075 A 
ATOM     22  C   UNL     1      33.055 -15.642 -24.057  0.00  0.00    +0.122 A 
ATOM     23  C   UNL     1      32.398 -13.943 -25.261  0.00  0.00    +0.154 A 
ATOM     24  C   UNL     1      32.025 -12.690 -25.933  0.00  0.00    +0.075 C 
BRANCH  22  26
ATOM     25  F   UNL     1      35.169 -18.919 -20.083  0.00  0.00    -0.204 F 
ATOM     26  C   UNL     1      33.601 -16.488 -23.030  0.00  0.00    +0.021 C 
ATOM     27  C   UNL     1      34.002 -15.939 -21.813  0.00  0.00    +0.004 C 
ATOM     28  C   UNL     1      33.731 -17.860 -23.252  0.00  0.00    +0.004 C 
ATOM     29  C   UNL     1      34.530 -16.760 -20.817  0.00  0.00    +0.030 C 
ATOM     30  C   UNL     1      34.261 -18.681 -22.256  0.00  0.00    +0.030 C 
ATOM     31  C   UNL     1      34.661 -18.131 -21.039  0.00  0.00    +0.140 C 
ENDBRANCH  22  26
ENDBRANCH  18  21
ENDBRANCH  17  18
ENDBRANCH   6  17
TORSDOF 5
ENDMDL
MODEL 5
REMARK VINA RESULT:     -10.3      2.514      3.866
REMARK  Name = 57336276
REMARK  5 active torsions:
REMARK  status: ('A' for Active; 'I' for Inactive)
REMARK    1  A    between atoms: C_2  and  C_16
REMARK    2  A    between atoms: C_6  and  O_17
REMARK    3  A    between atoms: O_17  and  C_18
REMARK    4  A    between atoms: C_18  and  C_21
REMARK    5  A    between atoms: C_22  and  C_26
REMARK                            x       y       z     vdW  Elec       q    Type
REMARK                         _______ _______ _______ _____ _____    ______ ____
ROOT
ATOM      1  N   UNL     1      32.302 -12.329 -22.181  0.00  0.00    -0.210 NA
ATOM      2  C   UNL     1      32.694 -13.960 -23.922  0.00  0.00    +0.073 C 
ATOM      3  C   UNL     1      33.001 -12.941 -24.816  0.00  0.00    +0.011 C 
ATOM      4  C   UNL     1      32.354 -13.605 -22.626  0.00  0.00    +0.107 C 
ATOM      5  C   UNL     1      32.960 -11.616 -24.394  0.00  0.00    +0.058 C 
ATOM      6  C   UNL     1      32.607 -11.366 -23.078  0.00  0.00    +0.225 C 
ENDROOT
BRANCH   2  16
ATOM      7  S   UNL     1      34.433 -18.171 -21.527  0.00  0.00    -0.007 S 
ATOM      8  O   UNL     1      33.792 -18.670 -20.327  0.00  0.00    -0.173 OA
ATOM      9  O   UNL     1      35.758 -18.625 -21.906  0.00  0.00    -0.173 OA
ATOM     10  O   UNL     1      31.875 -15.713 -25.151  0.00  0.00    -0.270 OA
ATOM     11  N   UNL     1      33.706 -16.194 -23.777  0.00  0.00    -0.272 N 
ATOM     12  C   UNL     1      33.330 -18.462 -22.900  0.00  0.00    +0.172 C 
ATOM     13  C   UNL     1      34.459 -16.388 -21.436  0.00  0.00    +0.172 C 
ATOM     14  C   UNL     1      33.717 -17.621 -24.108  0.00  0.00    +0.119 C 
ATOM     15  C   UNL     1      34.724 -15.770 -22.802  0.00  0.00    +0.119 C 
ATOM     16  C   UNL     1      32.729 -15.368 -24.336  0.00  0.00    +0.251 C 
ENDBRANCH   2  16
BRANCH   6  17
ATOM     17  O   UNL     1      32.560 -10.069 -22.639  0.00  0.00    -0.455 OA
BRANCH  17  18
ATOM     18  C   UNL     1      32.744  -9.054 -23.618  0.00  0.00    +0.238 C 
BRANCH  18  21
ATOM     19  O   UNL     1      30.179  -6.425 -23.955  0.00  0.00    -0.358 OA
ATOM     20  N   UNL     1      29.911  -6.828 -22.653  0.00  0.00    -0.078 NA
ATOM     21  C   UNL     1      31.635  -8.051 -23.499  0.00  0.00    +0.075 A 
ATOM     22  C   UNL     1      30.793  -7.799 -22.402  0.00  0.00    +0.122 A 
ATOM     23  C   UNL     1      31.208  -7.160 -24.449  0.00  0.00    +0.154 A 
ATOM     24  C   UNL     1      31.623  -6.860 -25.826  0.00  0.00    +0.075 C 
BRANCH  22  26
ATOM     25  F   UNL     1      30.836 -10.349 -17.453  0.00  0.00    -0.204 F 
ATOM     26  C   UNL     1      30.804  -8.458 -21.123  0.00  0.00    +0.021 C 
ATOM     27  C   UNL     1      31.535  -7.917 -20.066  0.00  0.00    +0.004 C 
ATOM     28  C   UNL     1      30.084  -9.639 -20.940  0.00  0.00    +0.004 C 
ATOM     29  C   UNL     1      31.545  -8.555 -18.826  0.00  0.00    +0.030 C 
ATOM     30  C   UNL     1      30.095 -10.278 -19.700  0.00  0.00    +0.030 C 
ATOM     31  C   UNL     1      30.826  -9.736 -18.643  0.00  0.00    +0.140 C 
ENDBRANCH  22  26
ENDBRANCH  18  21
ENDBRANCH  17  18
ENDBRANCH   6  17
TORSDOF 5
ENDMDL
MODEL 6
REMARK VINA RESULT:      -9.9      8.340     13.295
REMARK  Name = 57336276
REMARK  5 active torsions:
REMARK  status: ('A' for Active; 'I' for Inactive)
REMARK    1  A    between atoms: C_2  and  C_16
REMARK    2  A    between atoms: C_6  and  O_17
REMARK    3  A    between atoms: O_17  and  C_18
REMARK    4  A    between atoms: C_18  and  C_21
REMARK    5  A    between atoms: C_22  and  C_26
REMARK                            x       y       z     vdW  Elec       q    Type
REMARK                         _______ _______ _______ _____ _____    ______ ____
ROOT
ATOM      1  N   UNL     1      32.069 -20.640 -19.051  0.00  0.00    -0.210 NA
ATOM      2  C   UNL     1      34.347 -20.012 -19.566  0.00  0.00    +0.073 C 
ATOM      3  C   UNL     1      34.818 -21.084 -18.816  0.00  0.00    +0.011 C 
ATOM      4  C   UNL     1      32.974 -19.835 -19.651  0.00  0.00    +0.107 C 
ATOM      5  C   UNL     1      33.917 -21.934 -18.184  0.00  0.00    +0.058 C 
ATOM      6  C   UNL     1      32.565 -21.670 -18.331  0.00  0.00    +0.225 C 
ENDROOT
BRANCH   2  16
ATOM      7  S   UNL     1      33.669 -16.823 -23.548  0.00  0.00    -0.007 S 
ATOM      8  O   UNL     1      32.800 -15.667 -23.443  0.00  0.00    -0.173 OA
ATOM      9  O   UNL     1      34.109 -17.307 -24.842  0.00  0.00    -0.173 OA
ATOM     10  O   UNL     1      36.210 -18.676 -19.569  0.00  0.00    -0.270 OA
ATOM     11  N   UNL     1      35.016 -18.774 -21.579  0.00  0.00    -0.272 N 
ATOM     12  C   UNL     1      35.115 -16.514 -22.547  0.00  0.00    +0.172 C 
ATOM     13  C   UNL     1      32.892 -18.175 -22.679  0.00  0.00    +0.172 C 
ATOM     14  C   UNL     1      35.874 -17.801 -22.260  0.00  0.00    +0.119 C 
ATOM     15  C   UNL     1      33.890 -19.283 -22.378  0.00  0.00    +0.119 C 
ATOM     16  C   UNL     1      35.272 -19.097 -20.245  0.00  0.00    +0.251 C 
ENDBRANCH   2  16
BRANCH   6  17
ATOM     17  O   UNL     1      31.657 -22.494 -17.718  0.00  0.00    -0.455 OA
BRANCH  17  18
ATOM     18  C   UNL     1      32.184 -23.519 -16.885  0.00  0.00    +0.238 C 
BRANCH  18  21
ATOM     19  O   UNL     1      30.772 -22.666 -13.586  0.00  0.00    -0.358 OA
ATOM     20  N   UNL     1      32.103 -22.830 -13.220  0.00  0.00    -0.078 NA
ATOM     21  C   UNL     1      31.865 -23.200 -15.454  0.00  0.00    +0.075 A 
ATOM     22  C   UNL     1      32.736 -23.148 -14.352  0.00  0.00    +0.122 A 
ATOM     23  C   UNL     1      30.643 -22.889 -14.918  0.00  0.00    +0.154 A 
ATOM     24  C   UNL     1      29.290 -22.756 -15.475  0.00  0.00    +0.075 C 
BRANCH  22  26
ATOM     25  F   UNL     1      38.222 -24.100 -14.330  0.00  0.00    -0.204 F 
ATOM     26  C   UNL     1      34.154 -23.394 -14.346  0.00  0.00    +0.021 C 
ATOM     27  C   UNL     1      35.040 -22.374 -14.689  0.00  0.00    +0.004 C 
ATOM     28  C   UNL     1      34.643 -24.654 -13.998  0.00  0.00    +0.004 C 
ATOM     29  C   UNL     1      36.415 -22.612 -14.683  0.00  0.00    +0.030 C 
ATOM     30  C   UNL     1      36.017 -24.892 -13.992  0.00  0.00    +0.030 C 
ATOM     31  C   UNL     1      36.903 -23.871 -14.335  0.00  0.00    +0.140 C 
ENDBRANCH  22  26
ENDBRANCH  18  21
ENDBRANCH  17  18
ENDBRANCH   6  17
TORSDOF 5
ENDMDL
MODEL 7
REMARK VINA RESULT:      -9.9      4.363      9.886
REMARK  Name = 57336276
REMARK  5 active torsions:
REMARK  status: ('A' for Active; 'I' for Inactive)
REMARK    1  A    between atoms: C_2  and  C_16
REMARK    2  A    between atoms: C_6  and  O_17
REMARK    3  A    between atoms: O_17  and  C_18
REMARK    4  A    between atoms: C_18  and  C_21
REMARK    5  A    between atoms: C_22  and  C_26
REMARK                            x       y       z     vdW  Elec       q    Type
REMARK                         _______ _______ _______ _____ _____    ______ ____
ROOT
ATOM      1  N   UNL     1      32.132 -11.198 -22.160  0.00  0.00    -0.210 NA
ATOM      2  C   UNL     1      31.945  -8.881 -22.825  0.00  0.00    +0.073 C 
ATOM      3  C   UNL     1      33.064  -9.017 -23.639  0.00  0.00    +0.011 C 
ATOM      4  C   UNL     1      31.522  -9.992 -22.112  0.00  0.00    +0.107 C 
ATOM      5  C   UNL     1      33.717 -10.243 -23.714  0.00  0.00    +0.058 C 
ATOM      6  C   UNL     1      33.216 -11.292 -22.961  0.00  0.00    +0.225 C 
ENDROOT
BRANCH   2  16
ATOM      7  S   UNL     1      31.009  -5.816 -18.798  0.00  0.00    -0.007 S 
ATOM      8  O   UNL     1      32.086  -5.129 -18.112  0.00  0.00    -0.173 OA
ATOM      9  O   UNL     1      29.697  -5.935 -18.189  0.00  0.00    -0.173 OA
ATOM     10  O   UNL     1      31.205  -6.916 -23.744  0.00  0.00    -0.270 OA
ATOM     11  N   UNL     1      30.660  -7.263 -21.496  0.00  0.00    -0.272 N 
ATOM     12  C   UNL     1      30.812  -5.064 -20.404  0.00  0.00    +0.172 C 
ATOM     13  C   UNL     1      31.582  -7.454 -19.217  0.00  0.00    +0.172 C 
ATOM     14  C   UNL     1      30.012  -5.958 -21.340  0.00  0.00    +0.119 C 
ATOM     15  C   UNL     1      30.699  -8.091 -20.280  0.00  0.00    +0.119 C 
ATOM     16  C   UNL     1      31.233  -7.601 -22.724  0.00  0.00    +0.251 C 
ENDBRANCH   2  16
BRANCH   6  17
ATOM     17  O   UNL     1      33.843 -12.509 -23.019  0.00  0.00    -0.455 OA
BRANCH  17  18
ATOM     18  C   UNL     1      33.080 -13.641 -22.619  0.00  0.00    +0.238 C 
BRANCH  18  21
ATOM     19  O   UNL     1      32.315 -15.255 -25.846  0.00  0.00    -0.358 OA
ATOM     20  N   UNL     1      32.763 -16.368 -25.145  0.00  0.00    -0.078 NA
ATOM     21  C   UNL     1      32.853 -14.526 -23.809  0.00  0.00    +0.075 A 
ATOM     22  C   UNL     1      33.078 -15.908 -23.931  0.00  0.00    +0.122 A 
ATOM     23  C   UNL     1      32.373 -14.164 -25.041  0.00  0.00    +0.154 A 
ATOM     24  C   UNL     1      31.932 -12.892 -25.630  0.00  0.00    +0.075 C 
BRANCH  22  26
ATOM     25  F   UNL     1      35.043 -19.371 -20.039  0.00  0.00    -0.204 F 
ATOM     26  C   UNL     1      33.585 -16.803 -22.925  0.00  0.00    +0.021 C 
ATOM     27  C   UNL     1      34.190 -16.291 -21.777  0.00  0.00    +0.004 C 
ATOM     28  C   UNL     1      33.474 -18.183 -23.098  0.00  0.00    +0.004 C 
ATOM     29  C   UNL     1      34.681 -17.158 -20.802  0.00  0.00    +0.030 C 
ATOM     30  C   UNL     1      33.967 -19.050 -22.123  0.00  0.00    +0.030 C 
ATOM     31  C   UNL     1      34.570 -18.538 -20.975  0.00  0.00    +0.140 C 
ENDBRANCH  22  26
ENDBRANCH  18  21
ENDBRANCH  17  18
ENDBRANCH   6  17
TORSDOF 5
ENDMDL
MODEL 8
REMARK VINA RESULT:      -9.6      4.389     10.118
REMARK  Name = 57336276
REMARK  5 active torsions:
REMARK  status: ('A' for Active; 'I' for Inactive)
REMARK    1  A    between atoms: C_2  and  C_16
REMARK    2  A    between atoms: C_6  and  O_17
REMARK    3  A    between atoms: O_17  and  C_18
REMARK    4  A    between atoms: C_18  and  C_21
REMARK    5  A    between atoms: C_22  and  C_26
REMARK                            x       y       z     vdW  Elec       q    Type
REMARK                         _______ _______ _______ _____ _____    ______ ____
ROOT
ATOM      1  N   UNL     1      31.307 -12.215 -19.734  0.00  0.00    -0.210 NA
ATOM      2  C   UNL     1      31.059  -9.813 -19.863  0.00  0.00    +0.073 C 
ATOM      3  C   UNL     1      31.368  -9.848 -21.218  0.00  0.00    +0.011 C 
ATOM      4  C   UNL     1      31.042 -11.015 -19.171  0.00  0.00    +0.107 C 
ATOM      5  C   UNL     1      31.646 -11.065 -21.832  0.00  0.00    +0.058 C 
ATOM      6  C   UNL     1      31.602 -12.209 -21.052  0.00  0.00    +0.225 C 
ENDROOT
BRANCH   2  16
ATOM      7  S   UNL     1      30.510  -5.031 -21.682  0.00  0.00    -0.007 S 
ATOM      8  O   UNL     1      29.403  -4.682 -22.552  0.00  0.00    -0.173 OA
ATOM      9  O   UNL     1      31.663  -4.160 -21.561  0.00  0.00    -0.173 OA
ATOM     10  O   UNL     1      30.137  -8.630 -18.130  0.00  0.00    -0.270 OA
ATOM     11  N   UNL     1      31.195  -7.362 -19.787  0.00  0.00    -0.272 N 
ATOM     12  C   UNL     1      29.853  -5.316 -20.047  0.00  0.00    +0.172 C 
ATOM     13  C   UNL     1      31.083  -6.656 -22.147  0.00  0.00    +0.172 C 
ATOM     14  C   UNL     1      30.843  -6.076 -19.178  0.00  0.00    +0.119 C 
ATOM     15  C   UNL     1      31.941  -7.272 -21.052  0.00  0.00    +0.119 C 
ATOM     16  C   UNL     1      30.762  -8.546 -19.186  0.00  0.00    +0.251 C 
ENDBRANCH   2  16
BRANCH   6  17
ATOM     17  O   UNL     1      31.872 -13.420 -21.634  0.00  0.00    -0.455 OA
BRANCH  17  18
ATOM     18  C   UNL     1      33.205 -13.633 -22.081  0.00  0.00    +0.238 C 
BRANCH  18  21
ATOM     19  O   UNL     1      32.963 -14.826 -25.563  0.00  0.00    -0.358 OA
ATOM     20  N   UNL     1      33.304 -16.022 -24.944  0.00  0.00    -0.078 NA
ATOM     21  C   UNL     1      33.173 -14.361 -23.392  0.00  0.00    +0.075 A 
ATOM     22  C   UNL     1      33.424 -15.720 -23.648  0.00  0.00    +0.122 A 
ATOM     23  C   UNL     1      32.888 -13.844 -24.629  0.00  0.00    +0.154 A 
ATOM     24  C   UNL     1      32.534 -12.504 -25.117  0.00  0.00    +0.075 C 
BRANCH  22  26
ATOM     25  F   UNL     1      34.782 -19.661 -19.957  0.00  0.00    -0.204 F 
ATOM     26  C   UNL     1      33.775 -16.738 -22.695  0.00  0.00    +0.021 C 
ATOM     27  C   UNL     1      33.677 -18.085 -23.044  0.00  0.00    +0.004 C 
ATOM     28  C   UNL     1      34.214 -16.379 -21.419  0.00  0.00    +0.004 C 
ATOM     29  C   UNL     1      34.018 -19.072 -22.119  0.00  0.00    +0.030 C 
ATOM     30  C   UNL     1      34.554 -17.367 -20.495  0.00  0.00    +0.030 C 
ATOM     31  C   UNL     1      34.456 -18.713 -20.845  0.00  0.00    +0.140 C 
ENDBRANCH  22  26
ENDBRANCH  18  21
ENDBRANCH  17  18
ENDBRANCH   6  17
TORSDOF 5
ENDMDL
MODEL 9
REMARK VINA RESULT:      -9.6      4.320      9.938
REMARK  Name = 57336276
REMARK  5 active torsions:
REMARK  status: ('A' for Active; 'I' for Inactive)
REMARK    1  A    between atoms: C_2  and  C_16
REMARK    2  A    between atoms: C_6  and  O_17
REMARK    3  A    between atoms: O_17  and  C_18
REMARK    4  A    between atoms: C_18  and  C_21
REMARK    5  A    between atoms: C_22  and  C_26
REMARK                            x       y       z     vdW  Elec       q    Type
REMARK                         _______ _______ _______ _____ _____    ______ ____
ROOT
ATOM      1  N   UNL     1      31.456 -11.669 -21.054  0.00  0.00    -0.210 NA
ATOM      2  C   UNL     1      31.708  -9.502 -22.095  0.00  0.00    +0.073 C 
ATOM      3  C   UNL     1      32.608 -10.038 -23.009  0.00  0.00    +0.011 C 
ATOM      4  C   UNL     1      31.165 -10.352 -21.144  0.00  0.00    +0.107 C 
ATOM      5  C   UNL     1      32.932 -11.389 -22.948  0.00  0.00    +0.058 C 
ATOM      6  C   UNL     1      32.334 -12.154 -21.960  0.00  0.00    +0.225 C 
ENDROOT
BRANCH   2  16
ATOM      7  S   UNL     1      33.201  -5.692 -25.217  0.00  0.00    -0.007 S 
ATOM      8  O   UNL     1      32.846  -5.692 -26.622  0.00  0.00    -0.173 OA
ATOM      9  O   UNL     1      34.245  -4.820 -24.714  0.00  0.00    -0.173 OA
ATOM     10  O   UNL     1      30.244  -7.790 -21.671  0.00  0.00    -0.270 OA
ATOM     11  N   UNL     1      32.261  -7.183 -22.689  0.00  0.00    -0.272 N 
ATOM     12  C   UNL     1      31.715  -5.384 -24.276  0.00  0.00    +0.172 C 
ATOM     13  C   UNL     1      33.601  -7.368 -24.751  0.00  0.00    +0.172 C 
ATOM     14  C   UNL     1      31.896  -5.769 -22.815  0.00  0.00    +0.119 C 
ATOM     15  C   UNL     1      33.578  -7.541 -23.239  0.00  0.00    +0.119 C 
ATOM     16  C   UNL     1      31.346  -8.080 -22.133  0.00  0.00    +0.251 C 
ENDBRANCH   2  16
BRANCH   6  17
ATOM     17  O   UNL     1      32.637 -13.489 -21.879  0.00  0.00    -0.455 OA
BRANCH  17  18
ATOM     18  C   UNL     1      33.700 -13.955 -22.701  0.00  0.00    +0.238 C 
BRANCH  18  21
ATOM     19  O   UNL     1      32.171 -15.719 -25.557  0.00  0.00    -0.358 OA
ATOM     20  N   UNL     1      32.562 -16.819 -24.803  0.00  0.00    -0.078 NA
ATOM     21  C   UNL     1      33.147 -14.899 -23.728  0.00  0.00    +0.075 A 
ATOM     22  C   UNL     1      33.142 -16.304 -23.715  0.00  0.00    +0.122 A 
ATOM     23  C   UNL     1      32.525 -14.581 -24.907  0.00  0.00    +0.154 A 
ATOM     24  C   UNL     1      32.183 -13.316 -25.571  0.00  0.00    +0.075 C 
BRANCH  22  26
ATOM     25  F   UNL     1      35.201 -19.658 -19.777  0.00  0.00    -0.204 F 
ATOM     26  C   UNL     1      33.674 -17.171 -22.698  0.00  0.00    +0.021 C 
ATOM     27  C   UNL     1      33.478 -18.549 -22.783  0.00  0.00    +0.004 C 
ATOM     28  C   UNL     1      34.386 -16.633 -21.625  0.00  0.00    +0.004 C 
ATOM     29  C   UNL     1      33.995 -19.389 -21.797  0.00  0.00    +0.030 C 
ATOM     30  C   UNL     1      34.902 -17.474 -20.638  0.00  0.00    +0.030 C 
ATOM     31  C   UNL     1      34.706 -18.851 -20.724  0.00  0.00    +0.140 C 
ENDBRANCH  22  26
ENDBRANCH  18  21
ENDBRANCH  17  18
ENDBRANCH   6  17
TORSDOF 5
ENDMDL
