MODEL 1
REMARK VINA RESULT:     -11.7      0.000      0.000
REMARK  Name = 11610553
REMARK  5 active torsions:
REMARK  status: ('A' for Active; 'I' for Inactive)
REMARK    1  A    between atoms: C_1  and  C_9
REMARK    2  A    between atoms: C_4  and  O_19
REMARK    3  A    between atoms: C_10  and  C_14
REMARK    4  A    between atoms: O_19  and  C_20
REMARK    5  A    between atoms: C_20  and  C_22
REMARK                            x       y       z     vdW  Elec       q    Type
REMARK                         _______ _______ _______ _____ _____    ______ ____
ROOT
ATOM      1  C   UNL     1      33.184 -22.652 -16.075  0.00  0.00    +0.015 C 
ATOM      2  C   UNL     1      32.421 -22.563 -17.239  0.00  0.00    +0.004 C 
ATOM      3  C   UNL     1      34.507 -22.210 -16.073  0.00  0.00    +0.004 C 
ATOM      4  C   UNL     1      34.301 -21.594 -18.391  0.00  0.00    +0.139 C 
ATOM      5  C   UNL     1      32.982 -22.032 -18.401  0.00  0.00    +0.037 C 
ATOM      6  C   UNL     1      35.067 -21.679 -17.234  0.00  0.00    +0.037 C 
ENDROOT
BRANCH   1   9
ATOM      7  N   UNL     1      31.284 -23.045 -14.568  0.00  0.00    -0.236 N 
ATOM      8  N   UNL     1      30.922 -23.624 -13.410  0.00  0.00    -0.180 NA
ATOM      9  C   UNL     1      32.604 -23.201 -14.874  0.00  0.00    +0.067 C 
ATOM     10  C   UNL     1      33.144 -23.934 -13.844  0.00  0.00    +0.036 C 
ATOM     11  C   UNL     1      32.062 -24.166 -12.973  0.00  0.00    +0.119 C 
ATOM     12  H   UNL     1      30.654 -22.553 -15.142  0.00  0.00    +0.174 HD
BRANCH  10  14
ATOM     13  N   UNL     1      37.196 -25.118 -13.568  0.00  0.00    -0.242 NA
ATOM     14  C   UNL     1      34.515 -24.335 -13.750  0.00  0.00    +0.006 C 
ATOM     15  C   UNL     1      34.950 -25.499 -14.377  0.00  0.00    +0.021 C 
ATOM     16  C   UNL     1      35.425 -23.563 -13.032  0.00  0.00    +0.021 C 
ATOM     17  C   UNL     1      36.287 -25.844 -14.257  0.00  0.00    +0.099 C 
ATOM     18  C   UNL     1      36.740 -23.994 -12.972  0.00  0.00    +0.099 C 
ENDBRANCH  10  14
ENDBRANCH   1   9
BRANCH   4  19
ATOM     19  O   UNL     1      34.851 -21.072 -19.532  0.00  0.00    -0.468 OA
BRANCH  19  20
ATOM     20  C   UNL     1      35.305 -19.727 -19.468  0.00  0.00    +0.264 C 
BRANCH  20  22
ATOM     21  N   UNL     1      34.715 -17.635 -20.532  0.00  0.00    -0.406 NA
ATOM     22  C   UNL     1      34.808 -18.978 -20.659  0.00  0.00    +0.152 C 
ATOM     23  C   UNL     1      33.902 -17.545 -22.799  0.00  0.00    +0.026 C 
ATOM     24  C   UNL     1      34.269 -16.925 -21.586  0.00  0.00    +0.113 C 
ATOM     25  C   UNL     1      34.473 -19.672 -21.804  0.00  0.00    +0.031 C 
ATOM     26  C   UNL     1      34.014 -18.939 -22.888  0.00  0.00    +0.005 C 
ATOM     27  C   UNL     1      33.440 -16.774 -23.879  0.00  0.00    +0.002 C 
ATOM     28  C   UNL     1      34.158 -15.540 -21.499  0.00  0.00    +0.085 C 
ATOM     29  C   UNL     1      33.339 -15.390 -23.765  0.00  0.00    -0.004 C 
ATOM     30  C   UNL     1      33.698 -14.773 -22.573  0.00  0.00    -0.019 C 
ENDBRANCH  20  22
ENDBRANCH  19  20
ENDBRANCH   4  19
TORSDOF 5
ENDMDL
MODEL 2
REMARK VINA RESULT:     -11.5      1.310      2.063
REMARK  Name = 11610553
REMARK  5 active torsions:
REMARK  status: ('A' for Active; 'I' for Inactive)
REMARK    1  A    between atoms: C_1  and  C_9
REMARK    2  A    between atoms: C_4  and  O_19
REMARK    3  A    between atoms: C_10  and  C_14
REMARK    4  A    between atoms: O_19  and  C_20
REMARK    5  A    between atoms: C_20  and  C_22
REMARK                            x       y       z     vdW  Elec       q    Type
REMARK                         _______ _______ _______ _____ _____    ______ ____
ROOT
ATOM      1  C   UNL     1      32.665 -21.792 -17.665  0.00  0.00    +0.015 C 
ATOM      2  C   UNL     1      34.036 -21.979 -17.846  0.00  0.00    +0.004 C 
ATOM      3  C   UNL     1      31.952 -20.968 -18.535  0.00  0.00    +0.004 C 
ATOM      4  C   UNL     1      33.976 -20.519 -19.761  0.00  0.00    +0.139 C 
ATOM      5  C   UNL     1      34.693 -21.340 -18.898  0.00  0.00    +0.037 C 
ATOM      6  C   UNL     1      32.609 -20.329 -19.586  0.00  0.00    +0.037 C 
ENDROOT
BRANCH   1   9
ATOM      7  N   UNL     1      30.629 -22.589 -16.545  0.00  0.00    -0.236 N 
ATOM      8  N   UNL     1      30.173 -23.231 -15.456  0.00  0.00    -0.180 NA
ATOM      9  C   UNL     1      31.986 -22.453 -16.578  0.00  0.00    +0.067 C 
ATOM     10  C   UNL     1      32.450 -23.048 -15.429  0.00  0.00    +0.036 C 
ATOM     11  C   UNL     1      31.290 -23.509 -14.778  0.00  0.00    +0.119 C 
ATOM     12  H   UNL     1      30.038 -22.249 -17.254  0.00  0.00    +0.174 HD
BRANCH  10  14
ATOM     13  N   UNL     1      36.520 -23.317 -14.306  0.00  0.00    -0.242 NA
ATOM     14  C   UNL     1      33.827 -23.139 -15.048  0.00  0.00    +0.006 C 
ATOM     15  C   UNL     1      34.388 -24.373 -14.731  0.00  0.00    +0.021 C 
ATOM     16  C   UNL     1      34.618 -21.994 -14.993  0.00  0.00    +0.021 C 
ATOM     17  C   UNL     1      35.725 -24.409 -14.370  0.00  0.00    +0.099 C 
ATOM     18  C   UNL     1      35.944 -22.135 -14.619  0.00  0.00    +0.099 C 
ENDBRANCH  10  14
ENDBRANCH   1   9
BRANCH   4  19
ATOM     19  O   UNL     1      34.621 -19.891 -20.794  0.00  0.00    -0.468 OA
BRANCH  19  20
ATOM     20  C   UNL     1      35.087 -18.571 -20.550  0.00  0.00    +0.264 C 
BRANCH  20  22
ATOM     21  N   UNL     1      34.354 -16.361 -21.214  0.00  0.00    -0.406 NA
ATOM     22  C   UNL     1      34.531 -17.650 -21.585  0.00  0.00    +0.152 C 
ATOM     23  C   UNL     1      33.512 -15.911 -23.426  0.00  0.00    +0.026 C 
ATOM     24  C   UNL     1      33.852 -15.501 -22.120  0.00  0.00    +0.113 C 
ATOM     25  C   UNL     1      34.227 -18.143 -22.837  0.00  0.00    +0.031 C 
ATOM     26  C   UNL     1      33.710 -17.255 -23.769  0.00  0.00    +0.005 C 
ATOM     27  C   UNL     1      32.990 -14.986 -24.346  0.00  0.00    +0.002 C 
ATOM     28  C   UNL     1      33.656 -14.165 -21.781  0.00  0.00    +0.085 C 
ATOM     29  C   UNL     1      32.803 -13.656 -23.980  0.00  0.00    -0.004 C 
ATOM     30  C   UNL     1      33.136 -13.246 -22.695  0.00  0.00    -0.019 C 
ENDBRANCH  20  22
ENDBRANCH  19  20
ENDBRANCH   4  19
TORSDOF 5
ENDMDL
MODEL 3
REMARK VINA RESULT:     -11.5      2.373      3.872
REMARK  Name = 11610553
REMARK  5 active torsions:
REMARK  status: ('A' for Active; 'I' for Inactive)
REMARK    1  A    between atoms: C_1  and  C_9
REMARK    2  A    between atoms: C_4  and  O_19
REMARK    3  A    between atoms: C_10  and  C_14
REMARK    4  A    between atoms: O_19  and  C_20
REMARK    5  A    between atoms: C_20  and  C_22
REMARK                            x       y       z     vdW  Elec       q    Type
REMARK                         _______ _______ _______ _____ _____    ______ ____
ROOT
ATOM      1  C   UNL     1      33.907 -23.556 -12.935  0.00  0.00    +0.015 C 
ATOM      2  C   UNL     1      34.678 -22.903 -13.897  0.00  0.00    +0.004 C 
ATOM      3  C   UNL     1      32.571 -23.857 -13.198  0.00  0.00    +0.004 C 
ATOM      4  C   UNL     1      32.779 -22.852 -15.377  0.00  0.00    +0.139 C 
ATOM      5  C   UNL     1      34.111 -22.550 -15.122  0.00  0.00    +0.037 C 
ATOM      6  C   UNL     1      32.005 -23.504 -14.422  0.00  0.00    +0.037 C 
ENDROOT
BRANCH   1   9
ATOM      7  N   UNL     1      33.920 -23.580 -10.478  0.00  0.00    -0.236 N 
ATOM      8  N   UNL     1      34.605 -24.005  -9.403  0.00  0.00    -0.180 NA
ATOM      9  C   UNL     1      34.493 -23.921 -11.668  0.00  0.00    +0.067 C 
ATOM     10  C   UNL     1      35.634 -24.617 -11.349  0.00  0.00    +0.036 C 
ATOM     11  C   UNL     1      35.651 -24.637  -9.941  0.00  0.00    +0.119 C 
ATOM     12  H   UNL     1      33.080 -23.070 -10.413  0.00  0.00    +0.174 HD
BRANCH  10  14
ATOM     13  N   UNL     1      38.352 -26.252 -14.150  0.00  0.00    -0.242 NA
ATOM     14  C   UNL     1      36.553 -25.170 -12.297  0.00  0.00    +0.006 C 
ATOM     15  C   UNL     1      37.876 -24.736 -12.327  0.00  0.00    +0.021 C 
ATOM     16  C   UNL     1      36.133 -26.147 -13.196  0.00  0.00    +0.021 C 
ATOM     17  C   UNL     1      38.727 -25.302 -13.263  0.00  0.00    +0.099 C 
ATOM     18  C   UNL     1      37.061 -26.650 -14.093  0.00  0.00    +0.099 C 
ENDBRANCH  10  14
ENDBRANCH   1   9
BRANCH   4  19
ATOM     19  O   UNL     1      32.222 -22.506 -16.580  0.00  0.00    -0.468 OA
BRANCH  19  20
ATOM     20  C   UNL     1      32.937 -22.884 -17.749  0.00  0.00    +0.264 C 
BRANCH  20  22
ATOM     21  N   UNL     1      34.424 -21.290 -18.801  0.00  0.00    -0.406 NA
ATOM     22  C   UNL     1      33.144 -21.685 -18.613  0.00  0.00    +0.152 C 
ATOM     23  C   UNL     1      33.597 -19.495 -20.180  0.00  0.00    +0.026 C 
ATOM     24  C   UNL     1      34.651 -20.211 -19.573  0.00  0.00    +0.113 C 
ATOM     25  C   UNL     1      32.050 -21.049 -19.163  0.00  0.00    +0.031 C 
ATOM     26  C   UNL     1      32.286 -19.937 -19.958  0.00  0.00    +0.005 C 
ATOM     27  C   UNL     1      33.869 -18.372 -20.980  0.00  0.00    +0.002 C 
ATOM     28  C   UNL     1      35.953 -19.771 -19.795  0.00  0.00    +0.085 C 
ATOM     29  C   UNL     1      35.181 -17.954 -21.184  0.00  0.00    -0.004 C 
ATOM     30  C   UNL     1      36.224 -18.654 -20.590  0.00  0.00    -0.019 C 
ENDBRANCH  20  22
ENDBRANCH  19  20
ENDBRANCH   4  19
TORSDOF 5
ENDMDL
MODEL 4
REMARK VINA RESULT:     -11.2      1.114      1.835
REMARK  Name = 11610553
REMARK  5 active torsions:
REMARK  status: ('A' for Active; 'I' for Inactive)
REMARK    1  A    between atoms: C_1  and  C_9
REMARK    2  A    between atoms: C_4  and  O_19
REMARK    3  A    between atoms: C_10  and  C_14
REMARK    4  A    between atoms: O_19  and  C_20
REMARK    5  A    between atoms: C_20  and  C_22
REMARK                            x       y       z     vdW  Elec       q    Type
REMARK                         _______ _______ _______ _____ _____    ______ ____
ROOT
ATOM      1  C   UNL     1      34.023 -22.625 -15.291  0.00  0.00    +0.015 C 
ATOM      2  C   UNL     1      33.188 -22.600 -16.408  0.00  0.00    +0.004 C 
ATOM      3  C   UNL     1      35.310 -22.093 -15.369  0.00  0.00    +0.004 C 
ATOM      4  C   UNL     1      34.927 -21.515 -17.674  0.00  0.00    +0.139 C 
ATOM      5  C   UNL     1      33.643 -22.042 -17.604  0.00  0.00    +0.037 C 
ATOM      6  C   UNL     1      35.764 -21.536 -16.563  0.00  0.00    +0.037 C 
ENDROOT
BRANCH   1   9
ATOM      7  N   UNL     1      32.371 -22.832 -13.484  0.00  0.00    -0.236 N 
ATOM      8  N   UNL     1      32.097 -23.475 -12.336  0.00  0.00    -0.180 NA
ATOM      9  C   UNL     1      33.554 -23.202 -14.055  0.00  0.00    +0.067 C 
ATOM     10  C   UNL     1      34.091 -24.153 -13.221  0.00  0.00    +0.036 C 
ATOM     11  C   UNL     1      33.151 -24.281 -12.181  0.00  0.00    +0.119 C 
ATOM     12  H   UNL     1      31.773 -22.157 -13.877  0.00  0.00    +0.174 HD
BRANCH  10  14
ATOM     13  N   UNL     1      37.778 -26.133 -13.846  0.00  0.00    -0.242 NA
ATOM     14  C   UNL     1      35.338 -24.823 -13.433  0.00  0.00    +0.006 C 
ATOM     15  C   UNL     1      36.496 -24.363 -12.812  0.00  0.00    +0.021 C 
ATOM     16  C   UNL     1      35.404 -25.941 -14.261  0.00  0.00    +0.021 C 
ATOM     17  C   UNL     1      37.679 -25.045 -13.048  0.00  0.00    +0.099 C 
ATOM     18  C   UNL     1      36.635 -26.553 -14.433  0.00  0.00    +0.099 C 
ENDBRANCH  10  14
ENDBRANCH   1   9
BRANCH   4  19
ATOM     19  O   UNL     1      35.372 -20.967 -18.849  0.00  0.00    -0.468 OA
BRANCH  19  20
ATOM     20  C   UNL     1      34.475 -20.997 -19.951  0.00  0.00    +0.264 C 
BRANCH  20  22
ATOM     21  N   UNL     1      33.798 -19.584 -21.796  0.00  0.00    -0.406 NA
ATOM     22  C   UNL     1      34.483 -19.670 -20.632  0.00  0.00    +0.152 C 
ATOM     23  C   UNL     1      34.457 -17.271 -21.936  0.00  0.00    +0.026 C 
ATOM     24  C   UNL     1      33.784 -18.403 -22.441  0.00  0.00    +0.113 C 
ATOM     25  C   UNL     1      35.171 -18.619 -20.061  0.00  0.00    +0.031 C 
ATOM     26  C   UNL     1      35.155 -17.403 -20.728  0.00  0.00    +0.005 C 
ATOM     27  C   UNL     1      34.421 -16.053 -22.636  0.00  0.00    +0.002 C 
ATOM     28  C   UNL     1      33.090 -18.270 -23.641  0.00  0.00    +0.085 C 
ATOM     29  C   UNL     1      33.721 -15.949 -23.834  0.00  0.00    -0.004 C 
ATOM     30  C   UNL     1      33.055 -17.059 -24.337  0.00  0.00    -0.019 C 
ENDBRANCH  20  22
ENDBRANCH  19  20
ENDBRANCH   4  19
TORSDOF 5
ENDMDL
MODEL 5
REMARK VINA RESULT:     -11.2      1.601      3.405
REMARK  Name = 11610553
REMARK  5 active torsions:
REMARK  status: ('A' for Active; 'I' for Inactive)
REMARK    1  A    between atoms: C_1  and  C_9
REMARK    2  A    between atoms: C_4  and  O_19
REMARK    3  A    between atoms: C_10  and  C_14
REMARK    4  A    between atoms: O_19  and  C_20
REMARK    5  A    between atoms: C_20  and  C_22
REMARK                            x       y       z     vdW  Elec       q    Type
REMARK                         _______ _______ _______ _____ _____    ______ ____
ROOT
ATOM      1  C   UNL     1      33.633 -22.702 -15.744  0.00  0.00    +0.015 C 
ATOM      2  C   UNL     1      34.834 -22.123 -16.151  0.00  0.00    +0.004 C 
ATOM      3  C   UNL     1      32.532 -22.702 -16.600  0.00  0.00    +0.004 C 
ATOM      4  C   UNL     1      33.833 -21.544 -18.263  0.00  0.00    +0.139 C 
ATOM      5  C   UNL     1      34.934 -21.542 -17.415  0.00  0.00    +0.037 C 
ATOM      6  C   UNL     1      32.632 -22.121 -17.864  0.00  0.00    +0.037 C 
ENDROOT
BRANCH   1   9
ATOM      7  N   UNL     1      34.630 -23.618 -13.693  0.00  0.00    -0.236 N 
ATOM      8  N   UNL     1      34.341 -24.169 -12.501  0.00  0.00    -0.180 NA
ATOM      9  C   UNL     1      33.530 -23.303 -14.436  0.00  0.00    +0.067 C 
ATOM     10  C   UNL     1      32.445 -23.674 -13.677  0.00  0.00    +0.036 C 
ATOM     11  C   UNL     1      33.005 -24.200 -12.498  0.00  0.00    +0.119 C 
ATOM     12  H   UNL     1      35.550 -23.456 -14.001  0.00  0.00    +0.174 HD
BRANCH  10  14
ATOM     13  N   UNL     1      28.401 -23.233 -14.840  0.00  0.00    -0.242 NA
ATOM     14  C   UNL     1      31.077 -23.525 -14.070  0.00  0.00    +0.006 C 
ATOM     15  C   UNL     1      30.447 -22.287 -13.965  0.00  0.00    +0.021 C 
ATOM     16  C   UNL     1      30.365 -24.615 -14.562  0.00  0.00    +0.021 C 
ATOM     17  C   UNL     1      29.122 -22.194 -14.358  0.00  0.00    +0.099 C 
ATOM     18  C   UNL     1      29.043 -24.419 -14.929  0.00  0.00    +0.099 C 
ENDBRANCH  10  14
ENDBRANCH   1   9
BRANCH   4  19
ATOM     19  O   UNL     1      33.931 -20.974 -19.505  0.00  0.00    -0.468 OA
BRANCH  19  20
ATOM     20  C   UNL     1      34.893 -19.939 -19.661  0.00  0.00    +0.264 C 
BRANCH  20  22
ATOM     21  N   UNL     1      34.511 -17.732 -20.577  0.00  0.00    -0.406 NA
ATOM     22  C   UNL     1      34.501 -19.065 -20.805  0.00  0.00    +0.152 C 
ATOM     23  C   UNL     1      33.789 -17.406 -22.853  0.00  0.00    +0.026 C 
ATOM     24  C   UNL     1      34.160 -16.911 -21.585  0.00  0.00    +0.113 C 
ATOM     25  C   UNL     1      34.152 -19.642 -22.009  0.00  0.00    +0.031 C 
ATOM     26  C   UNL     1      33.791 -18.794 -23.046  0.00  0.00    +0.005 C 
ATOM     27  C   UNL     1      33.429 -16.520 -23.883  0.00  0.00    +0.002 C 
ATOM     28  C   UNL     1      34.158 -15.532 -21.395  0.00  0.00    +0.085 C 
ATOM     29  C   UNL     1      33.435 -15.146 -23.665  0.00  0.00    -0.004 C 
ATOM     30  C   UNL     1      33.800 -14.651 -22.419  0.00  0.00    -0.019 C 
ENDBRANCH  20  22
ENDBRANCH  19  20
ENDBRANCH   4  19
TORSDOF 5
ENDMDL
MODEL 6
REMARK VINA RESULT:     -11.0      2.528      4.372
REMARK  Name = 11610553
REMARK  5 active torsions:
REMARK  status: ('A' for Active; 'I' for Inactive)
REMARK    1  A    between atoms: C_1  and  C_9
REMARK    2  A    between atoms: C_4  and  O_19
REMARK    3  A    between atoms: C_10  and  C_14
REMARK    4  A    between atoms: O_19  and  C_20
REMARK    5  A    between atoms: C_20  and  C_22
REMARK                            x       y       z     vdW  Elec       q    Type
REMARK                         _______ _______ _______ _____ _____    ______ ____
ROOT
ATOM      1  C   UNL     1      36.285 -23.737 -14.595  0.00  0.00    +0.015 C 
ATOM      2  C   UNL     1      35.059 -24.398 -14.525  0.00  0.00    +0.004 C 
ATOM      3  C   UNL     1      36.389 -22.528 -15.282  0.00  0.00    +0.004 C 
ATOM      4  C   UNL     1      34.047 -22.645 -15.829  0.00  0.00    +0.139 C 
ATOM      5  C   UNL     1      33.936 -23.849 -15.145  0.00  0.00    +0.037 C 
ATOM      6  C   UNL     1      35.266 -21.980 -15.902  0.00  0.00    +0.037 C 
ENDROOT
BRANCH   1   9
ATOM      7  N   UNL     1      38.544 -24.704 -14.661  0.00  0.00    -0.236 N 
ATOM      8  N   UNL     1      39.528 -25.207 -13.898  0.00  0.00    -0.180 NA
ATOM      9  C   UNL     1      37.447 -24.304 -13.954  0.00  0.00    +0.067 C 
ATOM     10  C   UNL     1      37.735 -24.565 -12.636  0.00  0.00    +0.036 C 
ATOM     11  C   UNL     1      39.029 -25.120 -12.662  0.00  0.00    +0.119 C 
ATOM     12  H   UNL     1      38.607 -24.629 -15.640  0.00  0.00    +0.174 HD
BRANCH  10  14
ATOM     13  N   UNL     1      35.148 -23.788  -9.379  0.00  0.00    -0.242 NA
ATOM     14  C   UNL     1      36.859 -24.302 -11.535  0.00  0.00    +0.006 C 
ATOM     15  C   UNL     1      35.965 -25.277 -11.100  0.00  0.00    +0.021 C 
ATOM     16  C   UNL     1      36.895 -23.069 -10.887  0.00  0.00    +0.021 C 
ATOM     17  C   UNL     1      35.139 -24.974 -10.030  0.00  0.00    +0.099 C 
ATOM     18  C   UNL     1      36.027 -22.865  -9.827  0.00  0.00    +0.099 C 
ENDBRANCH  10  14
ENDBRANCH   1   9
BRANCH   4  19
ATOM     19  O   UNL     1      32.943 -22.106 -16.438  0.00  0.00    -0.468 OA
BRANCH  19  20
ATOM     20  C   UNL     1      32.682 -22.520 -17.772  0.00  0.00    +0.264 C 
BRANCH  20  22
ATOM     21  N   UNL     1      34.292 -21.076 -18.859  0.00  0.00    -0.406 NA
ATOM     22  C   UNL     1      32.987 -21.399 -18.708  0.00  0.00    +0.152 C 
ATOM     23  C   UNL     1      33.618 -19.353 -20.403  0.00  0.00    +0.026 C 
ATOM     24  C   UNL     1      34.607 -20.068 -19.694  0.00  0.00    +0.113 C 
ATOM     25  C   UNL     1      31.952 -20.757 -19.358  0.00  0.00    +0.031 C 
ATOM     26  C   UNL     1      32.278 -19.719 -20.217  0.00  0.00    +0.005 C 
ATOM     27  C   UNL     1      33.982 -18.306 -21.267  0.00  0.00    +0.002 C 
ATOM     28  C   UNL     1      35.937 -19.704 -19.880  0.00  0.00    +0.085 C 
ATOM     29  C   UNL     1      35.321 -17.962 -21.433  0.00  0.00    -0.004 C 
ATOM     30  C   UNL     1      36.299 -18.663 -20.739  0.00  0.00    -0.019 C 
ENDBRANCH  20  22
ENDBRANCH  19  20
ENDBRANCH   4  19
TORSDOF 5
ENDMDL
MODEL 7
REMARK VINA RESULT:     -10.9      2.447      4.403
REMARK  Name = 11610553
REMARK  5 active torsions:
REMARK  status: ('A' for Active; 'I' for Inactive)
REMARK    1  A    between atoms: C_1  and  C_9
REMARK    2  A    between atoms: C_4  and  O_19
REMARK    3  A    between atoms: C_10  and  C_14
REMARK    4  A    between atoms: O_19  and  C_20
REMARK    5  A    between atoms: C_20  and  C_22
REMARK                            x       y       z     vdW  Elec       q    Type
REMARK                         _______ _______ _______ _____ _____    ______ ____
ROOT
ATOM      1  C   UNL     1      32.004 -22.680 -15.288  0.00  0.00    +0.015 C 
ATOM      2  C   UNL     1      33.393 -22.739 -15.402  0.00  0.00    +0.004 C 
ATOM      3  C   UNL     1      31.227 -22.336 -16.394  0.00  0.00    +0.004 C 
ATOM      4  C   UNL     1      33.224 -22.109 -17.721  0.00  0.00    +0.139 C 
ATOM      5  C   UNL     1      34.004 -22.452 -16.623  0.00  0.00    +0.037 C 
ATOM      6  C   UNL     1      31.838 -22.049 -17.614  0.00  0.00    +0.037 C 
ENDROOT
BRANCH   1   9
ATOM      7  N   UNL     1      32.075 -23.037 -12.858  0.00  0.00    -0.236 N 
ATOM      8  N   UNL     1      31.320 -23.324 -11.784  0.00  0.00    -0.180 NA
ATOM      9  C   UNL     1      31.372 -22.976 -14.026  0.00  0.00    +0.067 C 
ATOM     10  C   UNL     1      30.065 -23.243 -13.692  0.00  0.00    +0.036 C 
ATOM     11  C   UNL     1      30.094 -23.449 -12.300  0.00  0.00    +0.119 C 
ATOM     12  H   UNL     1      33.045 -22.884 -12.808  0.00  0.00    +0.174 HD
BRANCH  10  14
ATOM     13  N   UNL     1      26.832 -23.365 -16.418  0.00  0.00    -0.242 NA
ATOM     14  C   UNL     1      28.972 -23.284 -14.615  0.00  0.00    +0.006 C 
ATOM     15  C   UNL     1      28.578 -24.493 -15.183  0.00  0.00    +0.021 C 
ATOM     16  C   UNL     1      28.292 -22.116 -14.951  0.00  0.00    +0.021 C 
ATOM     17  C   UNL     1      27.514 -24.480 -16.070  0.00  0.00    +0.099 C 
ATOM     18  C   UNL     1      27.241 -22.210 -15.849  0.00  0.00    +0.099 C 
ENDBRANCH  10  14
ENDBRANCH   1   9
BRANCH   4  19
ATOM     19  O   UNL     1      33.825 -21.827 -18.920  0.00  0.00    -0.468 OA
BRANCH  19  20
ATOM     20  C   UNL     1      35.057 -21.121 -18.869  0.00  0.00    +0.264 C 
BRANCH  20  22
ATOM     21  N   UNL     1      34.070 -20.068 -20.812  0.00  0.00    -0.406 NA
ATOM     22  C   UNL     1      35.033 -20.010 -19.865  0.00  0.00    +0.152 C 
ATOM     23  C   UNL     1      34.934 -18.012 -21.722  0.00  0.00    +0.026 C 
ATOM     24  C   UNL     1      34.018 -19.084 -21.729  0.00  0.00    +0.113 C 
ATOM     25  C   UNL     1      35.972 -19.002 -19.778  0.00  0.00    +0.031 C 
ATOM     26  C   UNL     1      35.917 -17.990 -20.724  0.00  0.00    +0.005 C 
ATOM     27  C   UNL     1      34.851 -17.001 -22.696  0.00  0.00    +0.002 C 
ATOM     28  C   UNL     1      33.041 -19.105 -22.721  0.00  0.00    +0.085 C 
ATOM     29  C   UNL     1      33.864 -17.047 -23.677  0.00  0.00    -0.004 C 
ATOM     30  C   UNL     1      32.959 -18.100 -23.689  0.00  0.00    -0.019 C 
ENDBRANCH  20  22
ENDBRANCH  19  20
ENDBRANCH   4  19
TORSDOF 5
ENDMDL
MODEL 8
REMARK VINA RESULT:     -10.8      2.149      3.701
REMARK  Name = 11610553
REMARK  5 active torsions:
REMARK  status: ('A' for Active; 'I' for Inactive)
REMARK    1  A    between atoms: C_1  and  C_9
REMARK    2  A    between atoms: C_4  and  O_19
REMARK    3  A    between atoms: C_10  and  C_14
REMARK    4  A    between atoms: O_19  and  C_20
REMARK    5  A    between atoms: C_20  and  C_22
REMARK                            x       y       z     vdW  Elec       q    Type
REMARK                         _______ _______ _______ _____ _____    ______ ____
ROOT
ATOM      1  C   UNL     1      33.965 -23.477 -13.045  0.00  0.00    +0.015 C 
ATOM      2  C   UNL     1      34.775 -22.760 -13.924  0.00  0.00    +0.004 C 
ATOM      3  C   UNL     1      32.648 -23.777 -13.395  0.00  0.00    +0.004 C 
ATOM      4  C   UNL     1      32.955 -22.643 -15.497  0.00  0.00    +0.139 C 
ATOM      5  C   UNL     1      34.268 -22.342 -15.155  0.00  0.00    +0.037 C 
ATOM      6  C   UNL     1      32.141 -23.359 -14.625  0.00  0.00    +0.037 C 
ENDROOT
BRANCH   1   9
ATOM      7  N   UNL     1      33.871 -23.610 -10.593  0.00  0.00    -0.236 N 
ATOM      8  N   UNL     1      34.502 -24.096  -9.510  0.00  0.00    -0.180 NA
ATOM      9  C   UNL     1      34.489 -23.909 -11.772  0.00  0.00    +0.067 C 
ATOM     10  C   UNL     1      35.602 -24.642 -11.437  0.00  0.00    +0.036 C 
ATOM     11  C   UNL     1      35.558 -24.725 -10.032  0.00  0.00    +0.119 C 
ATOM     12  H   UNL     1      33.038 -23.088 -10.541  0.00  0.00    +0.174 HD
BRANCH  10  14
ATOM     13  N   UNL     1      38.407 -26.200 -14.195  0.00  0.00    -0.242 NA
ATOM     14  C   UNL     1      36.551 -25.169 -12.369  0.00  0.00    +0.006 C 
ATOM     15  C   UNL     1      36.156 -26.109 -13.318  0.00  0.00    +0.021 C 
ATOM     16  C   UNL     1      37.878 -24.747 -12.337  0.00  0.00    +0.021 C 
ATOM     17  C   UNL     1      37.111 -26.588 -14.198  0.00  0.00    +0.099 C 
ATOM     18  C   UNL     1      38.757 -25.288 -13.261  0.00  0.00    +0.099 C 
ENDBRANCH  10  14
ENDBRANCH   1   9
BRANCH   4  19
ATOM     19  O   UNL     1      32.457 -22.232 -16.706  0.00  0.00    -0.468 OA
BRANCH  19  20
ATOM     20  C   UNL     1      33.078 -22.764 -17.869  0.00  0.00    +0.264 C 
BRANCH  20  22
ATOM     21  N   UNL     1      33.224 -20.966 -19.483  0.00  0.00    -0.406 NA
ATOM     22  C   UNL     1      33.869 -21.693 -18.542  0.00  0.00    +0.152 C 
ATOM     23  C   UNL     1      35.258 -19.718 -19.818  0.00  0.00    +0.026 C 
ATOM     24  C   UNL     1      33.906 -19.992 -20.114  0.00  0.00    +0.113 C 
ATOM     25  C   UNL     1      35.188 -21.499 -18.185  0.00  0.00    +0.031 C 
ATOM     26  C   UNL     1      35.889 -20.495 -18.837  0.00  0.00    +0.005 C 
ATOM     27  C   UNL     1      35.940 -18.693 -20.496  0.00  0.00    +0.002 C 
ATOM     28  C   UNL     1      33.281 -19.219 -21.089  0.00  0.00    +0.085 C 
ATOM     29  C   UNL     1      35.290 -17.937 -21.467  0.00  0.00    -0.004 C 
ATOM     30  C   UNL     1      33.958 -18.201 -21.763  0.00  0.00    -0.019 C 
ENDBRANCH  20  22
ENDBRANCH  19  20
ENDBRANCH   4  19
TORSDOF 5
ENDMDL
MODEL 9
REMARK VINA RESULT:     -10.7      4.696     11.990
REMARK  Name = 11610553
REMARK  5 active torsions:
REMARK  status: ('A' for Active; 'I' for Inactive)
REMARK    1  A    between atoms: C_1  and  C_9
REMARK    2  A    between atoms: C_4  and  O_19
REMARK    3  A    between atoms: C_10  and  C_14
REMARK    4  A    between atoms: O_19  and  C_20
REMARK    5  A    between atoms: C_20  and  C_22
REMARK                            x       y       z     vdW  Elec       q    Type
REMARK                         _______ _______ _______ _____ _____    ______ ____
ROOT
ATOM      1  C   UNL     1      33.274 -12.370 -23.444  0.00  0.00    +0.015 C 
ATOM      2  C   UNL     1      32.688 -13.126 -24.458  0.00  0.00    +0.004 C 
ATOM      3  C   UNL     1      33.781 -13.000 -22.308  0.00  0.00    +0.004 C 
ATOM      4  C   UNL     1      33.117 -15.135 -23.201  0.00  0.00    +0.139 C 
ATOM      5  C   UNL     1      32.609 -14.514 -24.336  0.00  0.00    +0.037 C 
ATOM      6  C   UNL     1      33.703 -14.387 -22.185  0.00  0.00    +0.037 C 
ENDROOT
BRANCH   1   9
ATOM      7  N   UNL     1      34.157 -10.331 -24.493  0.00  0.00    -0.236 N 
ATOM      8  N   UNL     1      34.103  -8.989 -24.465  0.00  0.00    -0.180 NA
ATOM      9  C   UNL     1      33.354 -10.935 -23.570  0.00  0.00    +0.067 C 
ATOM     10  C   UNL     1      32.732  -9.915 -22.890  0.00  0.00    +0.036 C 
ATOM     11  C   UNL     1      33.231  -8.741 -23.484  0.00  0.00    +0.119 C 
ATOM     12  H   UNL     1      34.723 -10.833 -25.122  0.00  0.00    +0.174 HD
BRANCH  10  14
ATOM     13  N   UNL     1      29.956 -10.433 -19.739  0.00  0.00    -0.242 NA
ATOM     14  C   UNL     1      31.794 -10.090 -21.823  0.00  0.00    +0.006 C 
ATOM     15  C   UNL     1      31.237  -8.983 -21.189  0.00  0.00    +0.021 C 
ATOM     16  C   UNL     1      31.428 -11.370 -21.412  0.00  0.00    +0.021 C 
ATOM     17  C   UNL     1      30.333  -9.205 -20.163  0.00  0.00    +0.099 C 
ATOM     18  C   UNL     1      30.516 -11.485 -20.376  0.00  0.00    +0.099 C 
ENDBRANCH  10  14
ENDBRANCH   1   9
BRANCH   4  19
ATOM     19  O   UNL     1      33.040 -16.498 -23.081  0.00  0.00    -0.468 OA
BRANCH  19  20
ATOM     20  C   UNL     1      34.239 -17.229 -23.300  0.00  0.00    +0.264 C 
BRANCH  20  22
ATOM     21  N   UNL     1      33.401 -18.742 -21.607  0.00  0.00    -0.406 NA
ATOM     22  C   UNL     1      34.485 -18.136 -22.141  0.00  0.00    +0.152 C 
ATOM     23  C   UNL     1      34.862 -19.806 -20.014  0.00  0.00    +0.026 C 
ATOM     24  C   UNL     1      33.583 -19.567 -20.558  0.00  0.00    +0.113 C 
ATOM     25  C   UNL     1      35.774 -18.308 -21.677  0.00  0.00    +0.031 C 
ATOM     26  C   UNL     1      35.959 -19.157 -20.597  0.00  0.00    +0.005 C 
ATOM     27  C   UNL     1      35.017 -20.673 -18.919  0.00  0.00    +0.002 C 
ATOM     28  C   UNL     1      32.494 -20.212 -19.979  0.00  0.00    +0.085 C 
ATOM     29  C   UNL     1      33.911 -21.304 -18.359  0.00  0.00    -0.004 C 
ATOM     30  C   UNL     1      32.648 -21.073 -18.890  0.00  0.00    -0.019 C 
ENDBRANCH  20  22
ENDBRANCH  19  20
ENDBRANCH   4  19
TORSDOF 5
ENDMDL
