MODEL 1
REMARK VINA RESULT:     -11.4      0.000      0.000
REMARK  Name = 42628060
REMARK  6 active torsions:
REMARK  status: ('A' for Active; 'I' for Inactive)
REMARK    1  A    between atoms: N_2  and  C_6
REMARK    2  A    between atoms: C_3  and  C_19
REMARK    3  A    between atoms: C_9  and  N_13
REMARK    4  A    between atoms: C_19  and  N_20
REMARK    5  A    between atoms: C_21  and  N_27
REMARK    6  A    between atoms: C_28  and  C_32
REMARK                            x       y       z     vdW  Elec       q    Type
REMARK                         _______ _______ _______ _____ _____    ______ ____
ROOT
ATOM      1  O   UNL     1      31.912 -13.135 -22.456  0.00  0.00    -0.277 OA
ATOM      2  N   UNL     1      33.788 -14.171 -23.415  0.00  0.00    -0.284 N 
ATOM      3  C   UNL     1      32.827 -13.171 -23.271  0.00  0.00    +0.205 C 
ATOM      4  H   UNL     1      34.450 -14.038 -24.130  0.00  0.00    +0.155 HD
ENDROOT
BRANCH   2   6
ATOM      5  F   UNL     1      34.007 -16.670 -24.628  0.00  0.00    -0.203 F 
ATOM      6  C   UNL     1      33.921 -15.355 -22.652  0.00  0.00    +0.078 C 
ATOM      7  C   UNL     1      34.029 -16.590 -23.290  0.00  0.00    +0.155 C 
ATOM      8  C   UNL     1      33.944 -15.285 -21.259  0.00  0.00    +0.018 C 
ATOM      9  C   UNL     1      34.182 -17.686 -21.142  0.00  0.00    +0.061 C 
ATOM     10  C   UNL     1      34.160 -17.757 -22.534  0.00  0.00    +0.046 C 
ATOM     11  C   UNL     1      34.074 -16.451 -20.503  0.00  0.00    +0.017 C 
BRANCH   9  13
ATOM     12  O   UNL     1      36.639 -18.643 -19.953  0.00  0.00    -0.269 OA
ATOM     13  N   UNL     1      34.317 -18.898 -20.357  0.00  0.00    -0.233 N 
ATOM     14  C   UNL     1      35.590 -19.280 -19.861  0.00  0.00    +0.257 C 
ATOM     15  C   UNL     1      33.198 -19.682 -20.066  0.00  0.00    +0.072 C 
ATOM     16  C   UNL     1      35.649 -20.567 -19.099  0.00  0.00    +0.059 C 
ATOM     17  C   UNL     1      33.272 -20.812 -19.355  0.00  0.00    +0.017 C 
ATOM     18  C   UNL     1      34.538 -21.269 -18.864  0.00  0.00    +0.006 C 
ENDBRANCH   9  13
ENDBRANCH   2   6
BRANCH   3  19
ATOM     19  C   UNL     1      33.051 -12.076 -24.300  0.00  0.00    +0.010 C 
BRANCH  19  20
ATOM     20  N   UNL     1      33.622 -10.908 -23.647  0.00  0.00    +0.394 N 
ATOM     21  C   UNL     1      33.381  -8.754 -22.787  0.00  0.00    +0.049 C 
ATOM     22  C   UNL     1      34.520  -8.751 -23.810  0.00  0.00    -0.005 C 
ATOM     23  C   UNL     1      32.597 -10.029 -23.080  0.00  0.00    -0.057 C 
ATOM     24  C   UNL     1      34.371 -10.061 -24.575  0.00  0.00    -0.075 C 
ATOM     25  H   UNL     1      34.225 -11.299 -22.923  0.00  0.00    -0.079 HD
BRANCH  21  27
ATOM     26  O   UNL     1      32.224  -7.328 -20.581  0.00  0.00    -0.270 OA
ATOM     27  N   UNL     1      32.559  -7.579 -22.862  0.00  0.00    -0.304 N 
ATOM     28  C   UNL     1      32.039  -6.953 -21.736  0.00  0.00    +0.252 C 
ATOM     29  H   UNL     1      32.354  -7.202 -23.749  0.00  0.00    +0.150 HD
BRANCH  28  32
ATOM     30 CL   UNL     1      29.168  -2.934 -24.227  0.00  0.00    -0.075 Cl
ATOM     31  S   UNL     1      30.864  -5.288 -23.598  0.00  0.00    -0.071 S 
ATOM     32  C   UNL     1      31.185  -5.762 -21.984  0.00  0.00    +0.084 C 
ATOM     33  C   UNL     1      30.574  -4.932 -21.070  0.00  0.00    +0.012 C 
ATOM     34  C   UNL     1      29.832  -3.894 -21.704  0.00  0.00    +0.019 C 
ATOM     35  C   UNL     1      29.904  -3.969 -23.077  0.00  0.00    +0.087 C 
ENDBRANCH  28  32
ENDBRANCH  21  27
ENDBRANCH  19  20
ENDBRANCH   3  19
TORSDOF 6
ENDMDL
MODEL 2
REMARK VINA RESULT:     -11.2      7.498     13.903
REMARK  Name = 42628060
REMARK  6 active torsions:
REMARK  status: ('A' for Active; 'I' for Inactive)
REMARK    1  A    between atoms: N_2  and  C_6
REMARK    2  A    between atoms: C_3  and  C_19
REMARK    3  A    between atoms: C_9  and  N_13
REMARK    4  A    between atoms: C_19  and  N_20
REMARK    5  A    between atoms: C_21  and  N_27
REMARK    6  A    between atoms: C_28  and  C_32
REMARK                            x       y       z     vdW  Elec       q    Type
REMARK                         _______ _______ _______ _____ _____    ______ ____
ROOT
ATOM      1  O   UNL     1      32.617 -19.733 -20.018  0.00  0.00    -0.277 OA
ATOM      2  N   UNL     1      34.672 -19.019 -20.902  0.00  0.00    -0.284 N 
ATOM      3  C   UNL     1      33.825 -19.864 -20.188  0.00  0.00    +0.205 C 
ATOM      4  H   UNL     1      35.621 -19.278 -20.930  0.00  0.00    +0.155 HD
ENDROOT
BRANCH   2   6
ATOM      5  F   UNL     1      34.073 -19.034 -23.622  0.00  0.00    -0.203 F 
ATOM      6  C   UNL     1      34.327 -17.832 -21.590  0.00  0.00    +0.078 C 
ATOM      7  C   UNL     1      34.033 -17.874 -22.953  0.00  0.00    +0.155 C 
ATOM      8  C   UNL     1      34.284 -16.618 -20.904  0.00  0.00    +0.018 C 
ATOM      9  C   UNL     1      33.651 -15.488 -22.943  0.00  0.00    +0.061 C 
ATOM     10  C   UNL     1      33.694 -16.701 -23.629  0.00  0.00    +0.046 C 
ATOM     11  C   UNL     1      33.945 -15.446 -21.580  0.00  0.00    +0.017 C 
BRANCH   9  13
ATOM     12  O   UNL     1      32.447 -15.361 -25.569  0.00  0.00    -0.269 OA
ATOM     13  N   UNL     1      33.299 -14.269 -23.646  0.00  0.00    -0.233 N 
ATOM     14  C   UNL     1      32.749 -14.340 -24.951  0.00  0.00    +0.257 C 
ATOM     15  C   UNL     1      33.478 -13.024 -23.038  0.00  0.00    +0.072 C 
ATOM     16  C   UNL     1      32.458 -13.035 -25.623  0.00  0.00    +0.059 C 
ATOM     17  C   UNL     1      33.179 -11.873 -23.648  0.00  0.00    +0.017 C 
ATOM     18  C   UNL     1      32.660 -11.882 -24.983  0.00  0.00    +0.006 C 
ENDBRANCH   9  13
ENDBRANCH   2   6
BRANCH   3  19
ATOM     19  C   UNL     1      34.611 -21.027 -19.606  0.00  0.00    +0.010 C 
BRANCH  19  20
ATOM     20  N   UNL     1      34.254 -21.199 -18.206  0.00  0.00    +0.394 N 
ATOM     21  C   UNL     1      34.800 -21.912 -16.054  0.00  0.00    +0.049 C 
ATOM     22  C   UNL     1      33.496 -22.591 -16.480  0.00  0.00    -0.005 C 
ATOM     23  C   UNL     1      35.425 -21.415 -17.354  0.00  0.00    -0.057 C 
ATOM     24  C   UNL     1      33.409 -22.373 -17.986  0.00  0.00    -0.075 C 
ATOM     25  H   UNL     1      33.768 -20.336 -17.966  0.00  0.00    -0.079 HD
BRANCH  21  27
ATOM     26  O   UNL     1      34.511 -22.749 -13.323  0.00  0.00    -0.270 OA
ATOM     27  N   UNL     1      35.676 -22.789 -15.329  0.00  0.00    -0.304 N 
ATOM     28  C   UNL     1      35.457 -23.141 -14.003  0.00  0.00    +0.252 C 
ATOM     29  H   UNL     1      36.465 -23.156 -15.790  0.00  0.00    +0.150 HD
BRANCH  28  32
ATOM     30 CL   UNL     1      39.984 -26.204 -13.152  0.00  0.00    -0.075 Cl
ATOM     31  S   UNL     1      37.882 -24.431 -14.271  0.00  0.00    -0.071 S 
ATOM     32  C   UNL     1      36.470 -24.037 -13.387  0.00  0.00    +0.084 C 
ATOM     33  C   UNL     1      36.454 -24.635 -12.146  0.00  0.00    +0.012 C 
ATOM     34  C   UNL     1      37.616 -25.426 -11.918  0.00  0.00    +0.019 C 
ATOM     35  C   UNL     1      38.476 -25.404 -12.994  0.00  0.00    +0.087 C 
ENDBRANCH  28  32
ENDBRANCH  21  27
ENDBRANCH  19  20
ENDBRANCH   3  19
TORSDOF 6
ENDMDL
MODEL 3
REMARK VINA RESULT:     -11.0      1.634      2.093
REMARK  Name = 42628060
REMARK  6 active torsions:
REMARK  status: ('A' for Active; 'I' for Inactive)
REMARK    1  A    between atoms: N_2  and  C_6
REMARK    2  A    between atoms: C_3  and  C_19
REMARK    3  A    between atoms: C_9  and  N_13
REMARK    4  A    between atoms: C_19  and  N_20
REMARK    5  A    between atoms: C_21  and  N_27
REMARK    6  A    between atoms: C_28  and  C_32
REMARK                            x       y       z     vdW  Elec       q    Type
REMARK                         _______ _______ _______ _____ _____    ______ ____
ROOT
ATOM      1  O   UNL     1      31.794 -13.589 -22.586  0.00  0.00    -0.277 OA
ATOM      2  N   UNL     1      33.629 -14.688 -23.554  0.00  0.00    -0.284 N 
ATOM      3  C   UNL     1      32.677 -13.678 -23.433  0.00  0.00    +0.205 C 
ATOM      4  H   UNL     1      34.263 -14.601 -24.302  0.00  0.00    +0.155 HD
ENDROOT
BRANCH   2   6
ATOM      5  F   UNL     1      34.067 -14.445 -20.814  0.00  0.00    -0.203 F 
ATOM      6  C   UNL     1      33.791 -15.824 -22.727  0.00  0.00    +0.078 C 
ATOM      7  C   UNL     1      34.009 -15.669 -21.358  0.00  0.00    +0.155 C 
ATOM      8  C   UNL     1      33.734 -17.103 -23.283  0.00  0.00    +0.018 C 
ATOM      9  C   UNL     1      34.113 -18.069 -21.102  0.00  0.00    +0.061 C 
ATOM     10  C   UNL     1      34.170 -16.791 -20.545  0.00  0.00    +0.046 C 
ATOM     11  C   UNL     1      33.895 -18.225 -22.470  0.00  0.00    +0.017 C 
BRANCH   9  13
ATOM     12  O   UNL     1      31.983 -19.820 -20.229  0.00  0.00    -0.269 OA
ATOM     13  N   UNL     1      34.280 -19.236 -20.257  0.00  0.00    -0.233 N 
ATOM     14  C   UNL     1      33.147 -19.993 -19.865  0.00  0.00    +0.257 C 
ATOM     15  C   UNL     1      35.554 -19.634 -19.843  0.00  0.00    +0.072 C 
ATOM     16  C   UNL     1      33.403 -21.153 -18.956  0.00  0.00    +0.059 C 
ATOM     17  C   UNL     1      35.759 -20.695 -19.057  0.00  0.00    +0.017 C 
ATOM     18  C   UNL     1      34.648 -21.472 -18.596  0.00  0.00    +0.006 C 
ENDBRANCH   9  13
ENDBRANCH   2   6
BRANCH   3  19
ATOM     19  C   UNL     1      32.861 -12.647 -24.534  0.00  0.00    +0.010 C 
BRANCH  19  20
ATOM     20  N   UNL     1      33.594 -11.505 -24.009  0.00  0.00    +0.394 N 
ATOM     21  C   UNL     1      33.618  -9.323 -23.188  0.00  0.00    +0.049 C 
ATOM     22  C   UNL     1      34.586  -9.414 -24.370  0.00  0.00    -0.005 C 
ATOM     23  C   UNL     1      32.722 -10.551 -23.321  0.00  0.00    -0.057 C 
ATOM     24  C   UNL     1      34.243 -10.727 -25.064  0.00  0.00    -0.075 C 
ATOM     25  H   UNL     1      34.275 -11.919 -23.373  0.00  0.00    -0.079 HD
BRANCH  21  27
ATOM     26  O   UNL     1      34.551  -6.748 -22.327  0.00  0.00    -0.270 OA
ATOM     27  N   UNL     1      32.866  -8.099 -23.174  0.00  0.00    -0.304 N 
ATOM     28  C   UNL     1      33.401  -6.893 -22.738  0.00  0.00    +0.252 C 
ATOM     29  H   UNL     1      31.932  -8.115 -23.486  0.00  0.00    +0.150 HD
BRANCH  28  32
ATOM     30 CL   UNL     1      29.579  -3.145 -21.347  0.00  0.00    -0.075 Cl
ATOM     31  S   UNL     1      31.449  -5.450 -21.426  0.00  0.00    -0.071 S 
ATOM     32  C   UNL     1      32.486  -5.723 -22.761  0.00  0.00    +0.084 C 
ATOM     33  C   UNL     1      32.329  -4.768 -23.741  0.00  0.00    +0.012 C 
ATOM     34  C   UNL     1      31.346  -3.799 -23.391  0.00  0.00    +0.019 C 
ATOM     35  C   UNL     1      30.788  -4.050 -22.157  0.00  0.00    +0.087 C 
ENDBRANCH  28  32
ENDBRANCH  21  27
ENDBRANCH  19  20
ENDBRANCH   3  19
TORSDOF 6
ENDMDL
MODEL 4
REMARK VINA RESULT:     -10.9      5.715     12.021
REMARK  Name = 42628060
REMARK  6 active torsions:
REMARK  status: ('A' for Active; 'I' for Inactive)
REMARK    1  A    between atoms: N_2  and  C_6
REMARK    2  A    between atoms: C_3  and  C_19
REMARK    3  A    between atoms: C_9  and  N_13
REMARK    4  A    between atoms: C_19  and  N_20
REMARK    5  A    between atoms: C_21  and  N_27
REMARK    6  A    between atoms: C_28  and  C_32
REMARK                            x       y       z     vdW  Elec       q    Type
REMARK                         _______ _______ _______ _____ _____    ______ ____
ROOT
ATOM      1  O   UNL     1      34.576 -15.544 -24.701  0.00  0.00    -0.277 OA
ATOM      2  N   UNL     1      32.621 -14.829 -23.613  0.00  0.00    -0.284 N 
ATOM      3  C   UNL     1      33.539 -15.766 -24.084  0.00  0.00    +0.205 C 
ATOM      4  H   UNL     1      31.837 -15.189 -23.139  0.00  0.00    +0.155 HD
ENDROOT
BRANCH   2   6
ATOM      5  F   UNL     1      32.652 -13.585 -26.105  0.00  0.00    -0.203 F 
ATOM      6  C   UNL     1      32.685 -13.422 -23.736  0.00  0.00    +0.078 C 
ATOM      7  C   UNL     1      32.700 -12.829 -24.998  0.00  0.00    +0.155 C 
ATOM      8  C   UNL     1      32.737 -12.625 -22.591  0.00  0.00    +0.018 C 
ATOM      9  C   UNL     1      32.815 -10.645 -23.972  0.00  0.00    +0.061 C 
ATOM     10  C   UNL     1      32.764 -11.441 -25.117  0.00  0.00    +0.046 C 
ATOM     11  C   UNL     1      32.801 -11.236 -22.710  0.00  0.00    +0.017 C 
BRANCH   9  13
ATOM     12  O   UNL     1      35.105  -9.016 -23.289  0.00  0.00    -0.269 OA
ATOM     13  N   UNL     1      32.883  -9.202 -24.095  0.00  0.00    -0.233 N 
ATOM     14  C   UNL     1      34.054  -8.512 -23.687  0.00  0.00    +0.257 C 
ATOM     15  C   UNL     1      31.812  -8.485 -24.633  0.00  0.00    +0.072 C 
ATOM     16  C   UNL     1      34.024  -7.021 -23.804  0.00  0.00    +0.059 C 
ATOM     17  C   UNL     1      31.823  -7.154 -24.757  0.00  0.00    +0.017 C 
ATOM     18  C   UNL     1      32.961  -6.402 -24.323  0.00  0.00    +0.006 C 
ENDBRANCH   9  13
ENDBRANCH   2   6
BRANCH   3  19
ATOM     19  C   UNL     1      33.081 -17.172 -23.734  0.00  0.00    +0.010 C 
BRANCH  19  20
ATOM     20  N   UNL     1      34.031 -17.775 -22.812  0.00  0.00    +0.394 N 
ATOM     21  C   UNL     1      34.504 -19.281 -21.096  0.00  0.00    +0.049 C 
ATOM     22  C   UNL     1      34.954 -17.883 -20.661  0.00  0.00    -0.005 C 
ATOM     23  C   UNL     1      33.544 -19.039 -22.256  0.00  0.00    -0.057 C 
ATOM     24  C   UNL     1      34.291 -16.929 -21.647  0.00  0.00    -0.075 C 
ATOM     25  H   UNL     1      34.871 -17.910 -23.374  0.00  0.00    -0.079 HD
BRANCH  21  27
ATOM     26  O   UNL     1      35.849 -20.947 -19.184  0.00  0.00    -0.270 OA
ATOM     27  N   UNL     1      33.895 -20.028 -20.030  0.00  0.00    -0.304 N 
ATOM     28  C   UNL     1      34.628 -20.812 -19.148  0.00  0.00    +0.252 C 
ATOM     29  H   UNL     1      32.917 -19.983 -19.921  0.00  0.00    +0.150 HD
BRANCH  28  32
ATOM     30 CL   UNL     1      33.174 -23.498 -14.536  0.00  0.00    -0.075 Cl
ATOM     31  S   UNL     1      34.625 -22.036 -16.675  0.00  0.00    -0.071 S 
ATOM     32  C   UNL     1      33.846 -21.544 -18.118  0.00  0.00    +0.084 C 
ATOM     33  C   UNL     1      32.518 -21.909 -18.139  0.00  0.00    +0.012 C 
ATOM     34  C   UNL     1      32.135 -22.602 -16.955  0.00  0.00    +0.019 C 
ATOM     35  C   UNL     1      33.185 -22.740 -16.074  0.00  0.00    +0.087 C 
ENDBRANCH  28  32
ENDBRANCH  21  27
ENDBRANCH  19  20
ENDBRANCH   3  19
TORSDOF 6
ENDMDL
MODEL 5
REMARK VINA RESULT:     -10.8      5.034      8.469
REMARK  Name = 42628060
REMARK  6 active torsions:
REMARK  status: ('A' for Active; 'I' for Inactive)
REMARK    1  A    between atoms: N_2  and  C_6
REMARK    2  A    between atoms: C_3  and  C_19
REMARK    3  A    between atoms: C_9  and  N_13
REMARK    4  A    between atoms: C_19  and  N_20
REMARK    5  A    between atoms: C_21  and  N_27
REMARK    6  A    between atoms: C_28  and  C_32
REMARK                            x       y       z     vdW  Elec       q    Type
REMARK                         _______ _______ _______ _____ _____    ______ ____
ROOT
ATOM      1  O   UNL     1      35.681 -20.055 -19.244  0.00  0.00    -0.277 OA
ATOM      2  N   UNL     1      33.802 -21.234 -18.471  0.00  0.00    -0.284 N 
ATOM      3  C   UNL     1      34.513 -20.417 -19.348  0.00  0.00    +0.205 C 
ATOM      4  H   UNL     1      32.866 -21.419 -18.711  0.00  0.00    +0.155 HD
ENDROOT
BRANCH   2   6
ATOM      5  F   UNL     1      32.123 -22.747 -16.842  0.00  0.00    -0.203 F 
ATOM      6  C   UNL     1      34.270 -21.829 -17.275  0.00  0.00    +0.078 C 
ATOM      7  C   UNL     1      33.404 -22.580 -16.482  0.00  0.00    +0.155 C 
ATOM      8  C   UNL     1      35.600 -21.661 -16.890  0.00  0.00    +0.018 C 
ATOM      9  C   UNL     1      35.197 -22.997 -14.918  0.00  0.00    +0.061 C 
ATOM     10  C   UNL     1      33.868 -23.165 -15.303  0.00  0.00    +0.046 C 
ATOM     11  C   UNL     1      36.064 -22.245 -15.710  0.00  0.00    +0.017 C 
BRANCH   9  13
ATOM     12  O   UNL     1      35.894 -25.785 -14.595  0.00  0.00    -0.269 OA
ATOM     13  N   UNL     1      35.680 -23.603 -13.692  0.00  0.00    -0.233 N 
ATOM     14  C   UNL     1      35.949 -24.996 -13.651  0.00  0.00    +0.257 C 
ATOM     15  C   UNL     1      35.902 -22.823 -12.555  0.00  0.00    +0.072 C 
ATOM     16  C   UNL     1      36.399 -25.549 -12.336  0.00  0.00    +0.059 C 
ATOM     17  C   UNL     1      36.336 -23.337 -11.400  0.00  0.00    +0.017 C 
ATOM     18  C   UNL     1      36.585 -24.743 -11.288  0.00  0.00    +0.006 C 
ENDBRANCH   9  13
ENDBRANCH   2   6
BRANCH   3  19
ATOM     19  C   UNL     1      33.627 -19.996 -20.508  0.00  0.00    +0.010 C 
BRANCH  19  20
ATOM     20  N   UNL     1      34.293 -18.953 -21.272  0.00  0.00    +0.394 N 
ATOM     21  C   UNL     1      34.491 -16.713 -21.890  0.00  0.00    +0.049 C 
ATOM     22  C   UNL     1      34.345 -17.561 -23.156  0.00  0.00    -0.005 C 
ATOM     23  C   UNL     1      34.003 -17.612 -20.759  0.00  0.00    -0.057 C 
ATOM     24  C   UNL     1      33.860 -18.921 -22.669  0.00  0.00    -0.075 C 
ATOM     25  H   UNL     1      35.284 -19.180 -21.191  0.00  0.00    -0.079 HD
BRANCH  21  27
ATOM     26  O   UNL     1      33.719 -15.055 -19.677  0.00  0.00    -0.270 OA
ATOM     27  N   UNL     1      33.761 -15.477 -21.957  0.00  0.00    -0.304 N 
ATOM     28  C   UNL     1      33.430 -14.738 -20.829  0.00  0.00    +0.252 C 
ATOM     29  H   UNL     1      33.484 -15.140 -22.841  0.00  0.00    +0.150 HD
BRANCH  28  32
ATOM     30 CL   UNL     1      29.806 -10.592 -20.305  0.00  0.00    -0.075 Cl
ATOM     31  S   UNL     1      31.429 -13.053 -19.949  0.00  0.00    -0.071 S 
ATOM     32  C   UNL     1      32.650 -13.496 -21.065  0.00  0.00    +0.084 C 
ATOM     33  C   UNL     1      32.760 -12.591 -22.098  0.00  0.00    +0.012 C 
ATOM     34  C   UNL     1      31.829 -11.519 -21.971  0.00  0.00    +0.019 C 
ATOM     35  C   UNL     1      31.044 -11.646 -20.847  0.00  0.00    +0.087 C 
ENDBRANCH  28  32
ENDBRANCH  21  27
ENDBRANCH  19  20
ENDBRANCH   3  19
TORSDOF 6
ENDMDL
MODEL 6
REMARK VINA RESULT:     -10.6      5.581     11.889
REMARK  Name = 42628060
REMARK  6 active torsions:
REMARK  status: ('A' for Active; 'I' for Inactive)
REMARK    1  A    between atoms: N_2  and  C_6
REMARK    2  A    between atoms: C_3  and  C_19
REMARK    3  A    between atoms: C_9  and  N_13
REMARK    4  A    between atoms: C_19  and  N_20
REMARK    5  A    between atoms: C_21  and  N_27
REMARK    6  A    between atoms: C_28  and  C_32
REMARK                            x       y       z     vdW  Elec       q    Type
REMARK                         _______ _______ _______ _____ _____    ______ ____
ROOT
ATOM      1  O   UNL     1      34.298 -15.040 -24.876  0.00  0.00    -0.277 OA
ATOM      2  N   UNL     1      32.574 -14.579 -23.349  0.00  0.00    -0.284 N 
ATOM      3  C   UNL     1      33.391 -15.395 -24.129  0.00  0.00    +0.205 C 
ATOM      4  H   UNL     1      31.890 -15.037 -22.811  0.00  0.00    +0.155 HD
ENDROOT
BRANCH   2   6
ATOM      5  F   UNL     1      31.733 -13.270 -21.038  0.00  0.00    -0.203 F 
ATOM      6  C   UNL     1      32.614 -13.169 -23.241  0.00  0.00    +0.078 C 
ATOM      7  C   UNL     1      32.186 -12.544 -22.070  0.00  0.00    +0.155 C 
ATOM      8  C   UNL     1      33.082 -12.403 -24.309  0.00  0.00    +0.018 C 
ATOM      9  C   UNL     1      32.693 -10.388 -23.035  0.00  0.00    +0.061 C 
ATOM     10  C   UNL     1      32.226 -11.153 -21.967  0.00  0.00    +0.046 C 
ATOM     11  C   UNL     1      33.121 -11.012 -24.206  0.00  0.00    +0.017 C 
BRANCH   9  13
ATOM     12  O   UNL     1      35.048  -8.750 -23.404  0.00  0.00    -0.269 OA
ATOM     13  N   UNL     1      32.734  -8.942 -22.928  0.00  0.00    -0.233 N 
ATOM     14  C   UNL     1      33.965  -8.256 -23.092  0.00  0.00    +0.257 C 
ATOM     15  C   UNL     1      31.565  -8.216 -22.685  0.00  0.00    +0.072 C 
ATOM     16  C   UNL     1      33.927  -6.770 -22.921  0.00  0.00    +0.059 C 
ATOM     17  C   UNL     1      31.553  -6.885 -22.568  0.00  0.00    +0.017 C 
ATOM     18  C   UNL     1      32.772  -6.143 -22.684  0.00  0.00    +0.006 C 
ENDBRANCH   9  13
ENDBRANCH   2   6
BRANCH   3  19
ATOM     19  C   UNL     1      33.005 -16.853 -23.947  0.00  0.00    +0.010 C 
BRANCH  19  20
ATOM     20  N   UNL     1      33.954 -17.496 -23.050  0.00  0.00    +0.394 N 
ATOM     21  C   UNL     1      34.420 -19.062 -21.388  0.00  0.00    +0.049 C 
ATOM     22  C   UNL     1      34.888 -17.685 -20.910  0.00  0.00    -0.005 C 
ATOM     23  C   UNL     1      33.456 -18.773 -22.533  0.00  0.00    -0.057 C 
ATOM     24  C   UNL     1      34.230 -16.692 -21.860  0.00  0.00    -0.075 C 
ATOM     25  H   UNL     1      34.789 -17.621 -23.622  0.00  0.00    -0.079 HD
BRANCH  21  27
ATOM     26  O   UNL     1      35.776 -20.547 -19.338  0.00  0.00    -0.270 OA
ATOM     27  N   UNL     1      33.809 -19.838 -20.344  0.00  0.00    -0.304 N 
ATOM     28  C   UNL     1      34.548 -20.527 -19.390  0.00  0.00    +0.252 C 
ATOM     29  H   UNL     1      32.826 -19.883 -20.303  0.00  0.00    +0.150 HD
BRANCH  28  32
ATOM     30 CL   UNL     1      33.126 -23.539 -14.974  0.00  0.00    -0.075 Cl
ATOM     31  S   UNL     1      34.573 -21.973 -17.039  0.00  0.00    -0.071 S 
ATOM     32  C   UNL     1      33.766 -21.305 -18.393  0.00  0.00    +0.084 C 
ATOM     33  C   UNL     1      32.418 -21.589 -18.384  0.00  0.00    +0.012 C 
ATOM     34  C   UNL     1      32.044 -22.365 -17.250  0.00  0.00    +0.019 C 
ATOM     35  C   UNL     1      33.118 -22.645 -16.435  0.00  0.00    +0.087 C 
ENDBRANCH  28  32
ENDBRANCH  21  27
ENDBRANCH  19  20
ENDBRANCH   3  19
TORSDOF 6
ENDMDL
MODEL 7
REMARK VINA RESULT:     -10.4      3.063      5.620
REMARK  Name = 42628060
REMARK  6 active torsions:
REMARK  status: ('A' for Active; 'I' for Inactive)
REMARK    1  A    between atoms: N_2  and  C_6
REMARK    2  A    between atoms: C_3  and  C_19
REMARK    3  A    between atoms: C_9  and  N_13
REMARK    4  A    between atoms: C_19  and  N_20
REMARK    5  A    between atoms: C_21  and  N_27
REMARK    6  A    between atoms: C_28  and  C_32
REMARK                            x       y       z     vdW  Elec       q    Type
REMARK                         _______ _______ _______ _____ _____    ______ ____
ROOT
ATOM      1  O   UNL     1      36.129 -18.307 -21.411  0.00  0.00    -0.277 OA
ATOM      2  N   UNL     1      33.897 -19.027 -21.275  0.00  0.00    -0.284 N 
ATOM      3  C   UNL     1      34.974 -18.332 -21.824  0.00  0.00    +0.205 C 
ATOM      4  H   UNL     1      33.035 -18.929 -21.738  0.00  0.00    +0.155 HD
ENDROOT
BRANCH   2   6
ATOM      5  F   UNL     1      31.528 -19.959 -20.144  0.00  0.00    -0.203 F 
ATOM      6  C   UNL     1      33.901 -19.857 -20.129  0.00  0.00    +0.078 C 
ATOM      7  C   UNL     1      32.697 -20.306 -19.587  0.00  0.00    +0.155 C 
ATOM      8  C   UNL     1      35.111 -20.224 -19.540  0.00  0.00    +0.018 C 
ATOM      9  C   UNL     1      33.914 -21.491 -17.868  0.00  0.00    +0.061 C 
ATOM     10  C   UNL     1      32.704 -21.124 -18.456  0.00  0.00    +0.046 C 
ATOM     11  C   UNL     1      35.118 -21.041 -18.410  0.00  0.00    +0.017 C 
BRANCH   9  13
ATOM     12  O   UNL     1      36.143 -21.816 -16.055  0.00  0.00    -0.269 OA
ATOM     13  N   UNL     1      33.921 -22.340 -16.692  0.00  0.00    -0.233 N 
ATOM     14  C   UNL     1      35.095 -22.444 -15.904  0.00  0.00    +0.257 C 
ATOM     15  C   UNL     1      32.772 -23.040 -16.317  0.00  0.00    +0.072 C 
ATOM     16  C   UNL     1      35.032 -23.377 -14.735  0.00  0.00    +0.059 C 
ATOM     17  C   UNL     1      32.731 -23.843 -15.249  0.00  0.00    +0.017 C 
ATOM     18  C   UNL     1      33.899 -24.019 -14.439  0.00  0.00    +0.006 C 
ENDBRANCH   9  13
ENDBRANCH   2   6
BRANCH   3  19
ATOM     19  C   UNL     1      34.528 -17.562 -23.056  0.00  0.00    +0.010 C 
BRANCH  19  20
ATOM     20  N   UNL     1      33.662 -16.464 -22.653  0.00  0.00    +0.394 N 
ATOM     21  C   UNL     1      32.977 -14.246 -22.869  0.00  0.00    +0.049 C 
ATOM     22  C   UNL     1      33.345 -14.506 -21.406  0.00  0.00    -0.005 C 
ATOM     23  C   UNL     1      33.627 -15.388 -23.645  0.00  0.00    -0.057 C 
ATOM     24  C   UNL     1      34.114 -15.822 -21.418  0.00  0.00    -0.075 C 
ATOM     25  H   UNL     1      32.747 -16.900 -22.538  0.00  0.00    -0.079 HD
BRANCH  21  27
ATOM     26  O   UNL     1      31.898 -11.699 -22.102  0.00  0.00    -0.270 OA
ATOM     27  N   UNL     1      33.409 -12.957 -23.334  0.00  0.00    -0.304 N 
ATOM     28  C   UNL     1      32.825 -11.771 -22.906  0.00  0.00    +0.252 C 
ATOM     29  H   UNL     1      34.149 -12.912 -23.983  0.00  0.00    +0.150 HD
BRANCH  28  32
ATOM     30 CL   UNL     1      33.903  -6.446 -23.950  0.00  0.00    -0.075 Cl
ATOM     31  S   UNL     1      32.885  -9.012 -22.856  0.00  0.00    -0.071 S 
ATOM     32  C   UNL     1      33.369 -10.522 -23.501  0.00  0.00    +0.084 C 
ATOM     33  C   UNL     1      34.252 -10.378 -24.549  0.00  0.00    +0.012 C 
ATOM     34  C   UNL     1      34.534  -9.009 -24.824  0.00  0.00    +0.019 C 
ATOM     35  C   UNL     1      33.857  -8.159 -23.978  0.00  0.00    +0.087 C 
ENDBRANCH  28  32
ENDBRANCH  21  27
ENDBRANCH  19  20
ENDBRANCH   3  19
TORSDOF 6
ENDMDL
MODEL 8
REMARK VINA RESULT:     -10.1      7.372     13.647
REMARK  Name = 42628060
REMARK  6 active torsions:
REMARK  status: ('A' for Active; 'I' for Inactive)
REMARK    1  A    between atoms: N_2  and  C_6
REMARK    2  A    between atoms: C_3  and  C_19
REMARK    3  A    between atoms: C_9  and  N_13
REMARK    4  A    between atoms: C_19  and  N_20
REMARK    5  A    between atoms: C_21  and  N_27
REMARK    6  A    between atoms: C_28  and  C_32
REMARK                            x       y       z     vdW  Elec       q    Type
REMARK                         _______ _______ _______ _____ _____    ______ ____
ROOT
ATOM      1  O   UNL     1      36.448 -18.312 -19.953  0.00  0.00    -0.277 OA
ATOM      2  N   UNL     1      34.621 -18.860 -21.324  0.00  0.00    -0.284 N 
ATOM      3  C   UNL     1      35.637 -19.115 -20.404  0.00  0.00    +0.205 C 
ATOM      4  H   UNL     1      34.063 -19.629 -21.580  0.00  0.00    +0.155 HD
ENDROOT
BRANCH   2   6
ATOM      5  F   UNL     1      34.159 -16.568 -19.808  0.00  0.00    -0.203 F 
ATOM      6  C   UNL     1      34.298 -17.624 -21.931  0.00  0.00    +0.078 C 
ATOM      7  C   UNL     1      34.072 -16.495 -21.144  0.00  0.00    +0.155 C 
ATOM      8  C   UNL     1      34.203 -17.535 -23.320  0.00  0.00    +0.018 C 
ATOM      9  C   UNL     1      33.658 -15.189 -23.135  0.00  0.00    +0.061 C 
ATOM     10  C   UNL     1      33.753 -15.277 -21.746  0.00  0.00    +0.046 C 
ATOM     11  C   UNL     1      33.883 -16.318 -23.922  0.00  0.00    +0.017 C 
BRANCH   9  13
ATOM     12  O   UNL     1      32.520 -14.879 -25.775  0.00  0.00    -0.269 OA
ATOM     13  N   UNL     1      33.326 -13.924 -23.760  0.00  0.00    -0.233 N 
ATOM     14  C   UNL     1      32.808 -13.904 -25.081  0.00  0.00    +0.257 C 
ATOM     15  C   UNL     1      33.490 -12.724 -23.065  0.00  0.00    +0.072 C 
ATOM     16  C   UNL     1      32.535 -12.555 -25.669  0.00  0.00    +0.059 C 
ATOM     17  C   UNL     1      33.207 -11.533 -23.601  0.00  0.00    +0.017 C 
ATOM     18  C   UNL     1      32.721 -11.449 -24.946  0.00  0.00    +0.006 C 
ENDBRANCH   9  13
ENDBRANCH   2   6
BRANCH   3  19
ATOM     19  C   UNL     1      35.631 -20.581 -20.008  0.00  0.00    +0.010 C 
BRANCH  19  20
ATOM     20  N   UNL     1      34.853 -20.751 -18.790  0.00  0.00    +0.394 N 
ATOM     21  C   UNL     1      34.647 -21.590 -16.625  0.00  0.00    +0.049 C 
ATOM     22  C   UNL     1      33.465 -22.089 -17.460  0.00  0.00    -0.005 C 
ATOM     23  C   UNL     1      35.683 -21.135 -17.647  0.00  0.00    -0.057 C 
ATOM     24  C   UNL     1      33.859 -21.817 -18.907  0.00  0.00    -0.075 C 
ATOM     25  H   UNL     1      34.415 -19.841 -18.648  0.00  0.00    -0.079 HD
BRANCH  21  27
ATOM     26  O   UNL     1      37.015 -21.392 -15.014  0.00  0.00    -0.270 OA
ATOM     27  N   UNL     1      35.163 -22.590 -15.733  0.00  0.00    -0.304 N 
ATOM     28  C   UNL     1      36.322 -22.407 -14.989  0.00  0.00    +0.252 C 
ATOM     29  H   UNL     1      34.675 -23.441 -15.645  0.00  0.00    +0.150 HD
BRANCH  28  32
ATOM     30 CL   UNL     1      36.476 -26.254 -11.017  0.00  0.00    -0.075 Cl
ATOM     31  S   UNL     1      35.760 -23.990 -12.799  0.00  0.00    -0.071 S 
ATOM     32  C   UNL     1      36.738 -23.549 -14.133  0.00  0.00    +0.084 C 
ATOM     33  C   UNL     1      37.849 -24.355 -14.249  0.00  0.00    +0.012 C 
ATOM     34  C   UNL     1      37.896 -25.349 -13.229  0.00  0.00    +0.019 C 
ATOM     35  C   UNL     1      36.821 -25.264 -12.372  0.00  0.00    +0.087 C 
ENDBRANCH  28  32
ENDBRANCH  21  27
ENDBRANCH  19  20
ENDBRANCH   3  19
TORSDOF 6
ENDMDL
MODEL 9
REMARK VINA RESULT:      -9.9      5.117      9.047
REMARK  Name = 42628060
REMARK  6 active torsions:
REMARK  status: ('A' for Active; 'I' for Inactive)
REMARK    1  A    between atoms: N_2  and  C_6
REMARK    2  A    between atoms: C_3  and  C_19
REMARK    3  A    between atoms: C_9  and  N_13
REMARK    4  A    between atoms: C_19  and  N_20
REMARK    5  A    between atoms: C_21  and  N_27
REMARK    6  A    between atoms: C_28  and  C_32
REMARK                            x       y       z     vdW  Elec       q    Type
REMARK                         _______ _______ _______ _____ _____    ______ ____
ROOT
ATOM      1  O   UNL     1      34.982 -21.738 -19.721  0.00  0.00    -0.277 OA
ATOM      2  N   UNL     1      33.818 -20.944 -17.842  0.00  0.00    -0.284 N 
ATOM      3  C   UNL     1      34.167 -20.989 -19.190  0.00  0.00    +0.205 C 
ATOM      4  H   UNL     1      33.145 -20.272 -17.589  0.00  0.00    +0.155 HD
ENDROOT
BRANCH   2   6
ATOM      5  F   UNL     1      36.451 -20.720 -16.959  0.00  0.00    -0.203 F 
ATOM      6  C   UNL     1      34.318 -21.752 -16.794  0.00  0.00    +0.078 C 
ATOM      7  C   UNL     1      35.641 -21.616 -16.375  0.00  0.00    +0.155 C 
ATOM      8  C   UNL     1      33.486 -22.689 -16.180  0.00  0.00    +0.018 C 
ATOM      9  C   UNL     1      35.300 -23.351 -14.729  0.00  0.00    +0.061 C 
ATOM     10  C   UNL     1      36.132 -22.415 -15.342  0.00  0.00    +0.046 C 
ATOM     11  C   UNL     1      33.977 -23.488 -15.147  0.00  0.00    +0.017 C 
BRANCH   9  13
ATOM     12  O   UNL     1      35.400 -26.241 -14.757  0.00  0.00    -0.269 OA
ATOM     13  N   UNL     1      35.810 -24.182 -13.656  0.00  0.00    -0.233 N 
ATOM     14  C   UNL     1      35.767 -25.595 -13.775  0.00  0.00    +0.257 C 
ATOM     15  C   UNL     1      36.364 -23.602 -12.512  0.00  0.00    +0.072 C 
ATOM     16  C   UNL     1      36.271 -26.378 -12.604  0.00  0.00    +0.059 C 
ATOM     17  C   UNL     1      36.839 -24.325 -11.493  0.00  0.00    +0.017 C 
ATOM     18  C   UNL     1      36.783 -25.755 -11.540  0.00  0.00    +0.006 C 
ENDBRANCH   9  13
ENDBRANCH   2   6
BRANCH   3  19
ATOM     19  C   UNL     1      33.388 -19.944 -19.970  0.00  0.00    +0.010 C 
BRANCH  19  20
ATOM     20  N   UNL     1      34.267 -19.308 -20.939  0.00  0.00    +0.394 N 
ATOM     21  C   UNL     1      34.953 -17.409 -22.105  0.00  0.00    +0.049 C 
ATOM     22  C   UNL     1      34.623 -18.512 -23.114  0.00  0.00    -0.005 C 
ATOM     23  C   UNL     1      34.280 -17.849 -20.809  0.00  0.00    -0.057 C 
ATOM     24  C   UNL     1      33.850 -19.557 -22.319  0.00  0.00    -0.075 C 
ATOM     25  H   UNL     1      35.183 -19.711 -20.744  0.00  0.00    -0.079 HD
BRANCH  21  27
ATOM     26  O   UNL     1      33.086 -16.838 -24.209  0.00  0.00    -0.270 OA
ATOM     27  N   UNL     1      34.514 -16.109 -22.533  0.00  0.00    -0.304 N 
ATOM     28  C   UNL     1      33.603 -15.927 -23.566  0.00  0.00    +0.252 C 
ATOM     29  H   UNL     1      34.874 -15.315 -22.075  0.00  0.00    +0.150 HD
BRANCH  28  32
ATOM     30 CL   UNL     1      32.858 -10.454 -23.273  0.00  0.00    -0.075 Cl
ATOM     31  S   UNL     1      33.479 -13.304 -22.718  0.00  0.00    -0.071 S 
ATOM     32  C   UNL     1      33.271 -14.519 -23.905  0.00  0.00    +0.084 C 
ATOM     33  C   UNL     1      32.796 -14.006 -25.093  0.00  0.00    +0.012 C 
ATOM     34  C   UNL     1      32.601 -12.597 -25.025  0.00  0.00    +0.019 C 
ATOM     35  C   UNL     1      32.934 -12.086 -23.791  0.00  0.00    +0.087 C 
ENDBRANCH  28  32
ENDBRANCH  21  27
ENDBRANCH  19  20
ENDBRANCH   3  19
TORSDOF 6
ENDMDL
