MODEL 1
REMARK VINA RESULT:     -11.0      0.000      0.000
REMARK  Name = 72734520
REMARK  6 active torsions:
REMARK  status: ('A' for Active; 'I' for Inactive)
REMARK    1  A    between atoms: N_1  and  C_19
REMARK    2  A    between atoms: C_8  and  O_28
REMARK    3  A    between atoms: C_14  and  N_20
REMARK    4  A    between atoms: O_28  and  C_29
REMARK    5  A    between atoms: C_32  and  N_36
REMARK    6  A    between atoms: C_37  and  C_39
REMARK                            x       y       z     vdW  Elec       q    Type
REMARK                         _______ _______ _______ _____ _____    ______ ____
ROOT
ATOM      1  N   UNL     1      33.379 -18.058 -23.025  0.00  0.00    -0.238 N 
ATOM      2  N   UNL     1      32.875 -16.405 -24.594  0.00  0.00    -0.316 NA
ATOM      3  N   UNL     1      33.547 -15.834 -22.325  0.00  0.00    -0.294 NA
ATOM      4  N   UNL     1      32.424 -14.468 -25.957  0.00  0.00    -0.289 N 
ATOM      5  C   UNL     1      33.261 -16.688 -23.333  0.00  0.00    +0.207 C 
ATOM      6  C   UNL     1      33.051 -14.085 -23.850  0.00  0.00    +0.181 C 
ATOM      7  C   UNL     1      32.789 -15.078 -24.786  0.00  0.00    +0.188 C 
ATOM      8  C   UNL     1      33.442 -14.510 -22.582  0.00  0.00    +0.281 C 
ATOM      9  C   UNL     1      32.831 -12.841 -24.495  0.00  0.00    +0.008 C 
ATOM     10  C   UNL     1      32.445 -13.107 -25.791  0.00  0.00    +0.060 C 
ATOM     11  H   UNL     1      33.164 -18.653 -23.779  0.00  0.00    +0.166 HD
ATOM     12  H   UNL     1      32.183 -14.935 -26.790  0.00  0.00    +0.154 HD
ENDROOT
BRANCH   1  19
ATOM     13  F   UNL     1      32.189 -20.616 -19.151  0.00  0.00    -0.203 F 
ATOM     14  C   UNL     1      34.477 -20.097 -19.520  0.00  0.00    +0.076 C 
ATOM     15  C   UNL     1      33.136 -20.032 -19.898  0.00  0.00    +0.155 C 
ATOM     16  C   UNL     1      35.453 -19.483 -20.306  0.00  0.00    +0.018 C 
ATOM     17  C   UNL     1      32.772 -19.355 -21.063  0.00  0.00    +0.046 C 
ATOM     18  C   UNL     1      35.089 -18.806 -21.469  0.00  0.00    +0.017 C 
ATOM     19  C   UNL     1      33.748 -18.743 -21.848  0.00  0.00    +0.061 C 
BRANCH  14  20
ATOM     20  N   UNL     1      34.846 -20.774 -18.352  0.00  0.00    -0.310 N 
ATOM     21  N   UNL     1      35.678 -22.351 -16.121  0.00  0.00    +0.388 N 
ATOM     22  C   UNL     1      34.131 -22.012 -18.019  0.00  0.00    +0.068 C 
ATOM     23  C   UNL     1      36.226 -20.688 -17.867  0.00  0.00    +0.068 C 
ATOM     24  C   UNL     1      34.267 -22.325 -16.527  0.00  0.00    -0.056 C 
ATOM     25  C   UNL     1      36.296 -21.045 -16.379  0.00  0.00    -0.056 C 
ATOM     26  C   UNL     1      35.799 -22.705 -14.707  0.00  0.00    -0.101 C 
ATOM     27  H   UNL     1      36.165 -23.059 -16.669  0.00  0.00    -0.080 HD
ENDBRANCH  14  20
ENDBRANCH   1  19
BRANCH   8  28
ATOM     28  O   UNL     1      33.731 -13.630 -21.569  0.00  0.00    -0.429 OA
BRANCH  28  29
ATOM     29  C   UNL     1      32.675 -12.936 -21.015  0.00  0.00    +0.149 C 
ATOM     30  C   UNL     1      32.407 -11.630 -21.427  0.00  0.00    +0.052 C 
ATOM     31  C   UNL     1      31.875 -13.538 -20.044  0.00  0.00    +0.038 C 
ATOM     32  C   UNL     1      31.339 -10.928 -20.868  0.00  0.00    +0.054 C 
ATOM     33  C   UNL     1      30.539 -11.530 -19.898  0.00  0.00    +0.015 C 
ATOM     34  C   UNL     1      30.806 -12.836 -19.486  0.00  0.00    +0.004 C 
BRANCH  32  36
ATOM     35  O   UNL     1      31.682  -8.321 -19.419  0.00  0.00    -0.270 OA
ATOM     36  N   UNL     1      31.071  -9.622 -21.282  0.00  0.00    -0.280 N 
ATOM     37  C   UNL     1      31.251  -8.434 -20.560  0.00  0.00    +0.250 C 
ATOM     38  H   UNL     1      30.711  -9.524 -22.193  0.00  0.00    +0.155 HD
BRANCH  37  39
ATOM     39  C   UNL     1      30.844  -7.240 -21.356  0.00  0.00    +0.058 C 
ATOM     40  C   UNL     1      30.009  -7.366 -22.392  0.00  0.00    +0.005 C 
ENDBRANCH  37  39
ENDBRANCH  32  36
ENDBRANCH  28  29
ENDBRANCH   8  28
TORSDOF 6
ENDMDL
MODEL 2
REMARK VINA RESULT:     -10.8      2.379      3.566
REMARK  Name = 72734520
REMARK  6 active torsions:
REMARK  status: ('A' for Active; 'I' for Inactive)
REMARK    1  A    between atoms: N_1  and  C_19
REMARK    2  A    between atoms: C_8  and  O_28
REMARK    3  A    between atoms: C_14  and  N_20
REMARK    4  A    between atoms: O_28  and  C_29
REMARK    5  A    between atoms: C_32  and  N_36
REMARK    6  A    between atoms: C_37  and  C_39
REMARK                            x       y       z     vdW  Elec       q    Type
REMARK                         _______ _______ _______ _____ _____    ______ ____
ROOT
ATOM      1  N   UNL     1      34.207 -20.476 -20.707  0.00  0.00    -0.238 N 
ATOM      2  N   UNL     1      34.065 -19.095 -22.583  0.00  0.00    -0.316 NA
ATOM      3  N   UNL     1      34.183 -18.169 -20.335  0.00  0.00    -0.294 NA
ATOM      4  N   UNL     1      33.923 -17.401 -24.293  0.00  0.00    -0.289 N 
ATOM      5  C   UNL     1      34.149 -19.173 -21.240  0.00  0.00    +0.207 C 
ATOM      6  C   UNL     1      34.038 -16.686 -22.182  0.00  0.00    +0.181 C 
ATOM      7  C   UNL     1      34.012 -17.815 -22.990  0.00  0.00    +0.188 C 
ATOM      8  C   UNL     1      34.127 -16.903 -20.808  0.00  0.00    +0.281 C 
ATOM      9  C   UNL     1      33.962 -15.560 -23.042  0.00  0.00    +0.008 C 
ATOM     10  C   UNL     1      33.891 -16.031 -24.336  0.00  0.00    +0.060 C 
ATOM     11  H   UNL     1      34.180 -21.185 -21.390  0.00  0.00    +0.166 HD
ATOM     12  H   UNL     1      33.888 -17.994 -25.077  0.00  0.00    +0.154 HD
ENDROOT
BRANCH   1  19
ATOM     13  F   UNL     1      32.208 -22.609 -16.909  0.00  0.00    -0.203 F 
ATOM     14  C   UNL     1      34.479 -21.929 -16.775  0.00  0.00    +0.076 C 
ATOM     15  C   UNL     1      33.280 -22.041 -17.478  0.00  0.00    +0.155 C 
ATOM     16  C   UNL     1      35.587 -21.334 -17.378  0.00  0.00    +0.018 C 
ATOM     17  C   UNL     1      33.190 -21.559 -18.784  0.00  0.00    +0.046 C 
ATOM     18  C   UNL     1      35.497 -20.852 -18.683  0.00  0.00    +0.017 C 
ATOM     19  C   UNL     1      34.299 -20.964 -19.386  0.00  0.00    +0.061 C 
BRANCH  14  20
ATOM     20  N   UNL     1      34.573 -22.410 -15.464  0.00  0.00    -0.310 N 
ATOM     21  N   UNL     1      34.777 -23.145 -12.712  0.00  0.00    +0.388 N 
ATOM     22  C   UNL     1      35.820 -22.169 -14.729  0.00  0.00    +0.068 C 
ATOM     23  C   UNL     1      33.363 -22.524 -14.643  0.00  0.00    +0.068 C 
ATOM     24  C   UNL     1      35.964 -23.164 -13.575  0.00  0.00    -0.056 C 
ATOM     25  C   UNL     1      33.587 -23.507 -13.491  0.00  0.00    -0.056 C 
ATOM     26  C   UNL     1      34.949 -24.060 -11.583  0.00  0.00    -0.101 C 
ATOM     27  H   UNL     1      34.654 -22.203 -12.342  0.00  0.00    -0.080 HD
ENDBRANCH  14  20
ENDBRANCH   1  19
BRANCH   8  28
ATOM     28  O   UNL     1      34.163 -15.872 -19.902  0.00  0.00    -0.429 OA
BRANCH  28  29
ATOM     29  C   UNL     1      33.365 -14.776 -20.161  0.00  0.00    +0.149 C 
ATOM     30  C   UNL     1      33.764 -13.831 -21.106  0.00  0.00    +0.052 C 
ATOM     31  C   UNL     1      32.159 -14.614 -19.478  0.00  0.00    +0.038 C 
ATOM     32  C   UNL     1      32.957 -12.724 -21.369  0.00  0.00    +0.054 C 
ATOM     33  C   UNL     1      31.752 -12.561 -20.686  0.00  0.00    +0.015 C 
ATOM     34  C   UNL     1      31.352 -13.507 -19.742  0.00  0.00    +0.004 C 
BRANCH  32  36
ATOM     35  O   UNL     1      32.560 -12.664 -24.344  0.00  0.00    -0.270 OA
ATOM     36  N   UNL     1      33.356 -11.778 -22.315  0.00  0.00    -0.280 N 
ATOM     37  C   UNL     1      33.143 -11.800 -23.700  0.00  0.00    +0.250 C 
ATOM     38  H   UNL     1      33.848 -11.000 -21.966  0.00  0.00    +0.155 HD
BRANCH  37  39
ATOM     39  C   UNL     1      33.727 -10.600 -24.365  0.00  0.00    +0.058 C 
ATOM     40  C   UNL     1      33.986  -9.492 -23.663  0.00  0.00    +0.005 C 
ENDBRANCH  37  39
ENDBRANCH  32  36
ENDBRANCH  28  29
ENDBRANCH   8  28
TORSDOF 6
ENDMDL
MODEL 3
REMARK VINA RESULT:     -10.6      4.906     11.089
REMARK  Name = 72734520
REMARK  6 active torsions:
REMARK  status: ('A' for Active; 'I' for Inactive)
REMARK    1  A    between atoms: N_1  and  C_19
REMARK    2  A    between atoms: C_8  and  O_28
REMARK    3  A    between atoms: C_14  and  N_20
REMARK    4  A    between atoms: O_28  and  C_29
REMARK    5  A    between atoms: C_32  and  N_36
REMARK    6  A    between atoms: C_37  and  C_39
REMARK                            x       y       z     vdW  Elec       q    Type
REMARK                         _______ _______ _______ _____ _____    ______ ____
ROOT
ATOM      1  N   UNL     1      36.164 -20.818 -17.589  0.00  0.00    -0.238 N 
ATOM      2  N   UNL     1      36.449 -22.241 -15.761  0.00  0.00    -0.316 NA
ATOM      3  N   UNL     1      34.326 -22.110 -16.945  0.00  0.00    -0.294 NA
ATOM      4  N   UNL     1      36.407 -23.801 -13.924  0.00  0.00    -0.289 N 
ATOM      5  C   UNL     1      35.616 -21.778 -16.716  0.00  0.00    +0.207 C 
ATOM      6  C   UNL     1      34.521 -23.585 -15.096  0.00  0.00    +0.181 C 
ATOM      7  C   UNL     1      35.834 -23.146 -14.981  0.00  0.00    +0.188 C 
ATOM      8  C   UNL     1      33.764 -23.028 -16.126  0.00  0.00    +0.281 C 
ATOM      9  C   UNL     1      34.311 -24.536 -14.065  0.00  0.00    +0.008 C 
ATOM     10  C   UNL     1      35.489 -24.649 -13.359  0.00  0.00    +0.060 C 
ATOM     11  H   UNL     1      37.104 -20.597 -17.396  0.00  0.00    +0.166 HD
ATOM     12  H   UNL     1      37.335 -23.682 -13.616  0.00  0.00    +0.154 HD
ENDROOT
BRANCH   1  19
ATOM     13  F   UNL     1      32.551 -19.937 -20.613  0.00  0.00    -0.203 F 
ATOM     14  C   UNL     1      34.574 -18.718 -20.861  0.00  0.00    +0.076 C 
ATOM     15  C   UNL     1      33.801 -19.677 -20.207  0.00  0.00    +0.155 C 
ATOM     16  C   UNL     1      35.875 -18.458 -20.430  0.00  0.00    +0.018 C 
ATOM     17  C   UNL     1      34.329 -20.374 -19.119  0.00  0.00    +0.046 C 
ATOM     18  C   UNL     1      36.402 -19.154 -19.343  0.00  0.00    +0.017 C 
ATOM     19  C   UNL     1      35.630 -20.112 -18.688  0.00  0.00    +0.061 C 
BRANCH  14  20
ATOM     20  N   UNL     1      34.047 -18.018 -21.953  0.00  0.00    -0.310 N 
ATOM     21  N   UNL     1      33.216 -16.576 -24.274  0.00  0.00    +0.388 N 
ATOM     22  C   UNL     1      34.457 -16.620 -22.137  0.00  0.00    +0.068 C 
ATOM     23  C   UNL     1      33.689 -18.741 -23.177  0.00  0.00    +0.068 C 
ATOM     24  C   UNL     1      33.442 -15.873 -23.005  0.00  0.00    -0.056 C 
ATOM     25  C   UNL     1      32.699 -17.925 -24.012  0.00  0.00    -0.056 C 
ATOM     26  C   UNL     1      32.286 -15.826 -25.118  0.00  0.00    -0.101 C 
ATOM     27  H   UNL     1      34.103 -16.654 -24.770  0.00  0.00    -0.080 HD
ENDBRANCH  14  20
ENDBRANCH   1  19
BRANCH   8  28
ATOM     28  O   UNL     1      32.455 -23.377 -16.346  0.00  0.00    -0.429 OA
BRANCH  28  29
ATOM     29  C   UNL     1      31.553 -23.119 -15.335  0.00  0.00    +0.149 C 
ATOM     30  C   UNL     1      30.259 -22.700 -15.646  0.00  0.00    +0.052 C 
ATOM     31  C   UNL     1      31.933 -23.278 -14.002  0.00  0.00    +0.038 C 
ATOM     32  C   UNL     1      29.345 -22.441 -14.624  0.00  0.00    +0.054 C 
ATOM     33  C   UNL     1      29.725 -22.599 -13.292  0.00  0.00    +0.015 C 
ATOM     34  C   UNL     1      31.019 -23.019 -12.981  0.00  0.00    +0.004 C 
BRANCH  32  36
ATOM     35  O   UNL     1      27.107 -23.901 -15.993  0.00  0.00    -0.270 OA
ATOM     36  N   UNL     1      28.050 -22.023 -14.935  0.00  0.00    -0.280 N 
ATOM     37  C   UNL     1      27.040 -22.750 -15.579  0.00  0.00    +0.250 C 
ATOM     38  H   UNL     1      27.818 -21.104 -14.669  0.00  0.00    +0.155 HD
BRANCH  37  39
ATOM     39  C   UNL     1      25.792 -21.947 -15.726  0.00  0.00    +0.058 C 
ATOM     40  C   UNL     1      25.569 -21.234 -16.834  0.00  0.00    +0.005 C 
ENDBRANCH  37  39
ENDBRANCH  32  36
ENDBRANCH  28  29
ENDBRANCH   8  28
TORSDOF 6
ENDMDL
MODEL 4
REMARK VINA RESULT:     -10.4      4.885     12.418
REMARK  Name = 72734520
REMARK  6 active torsions:
REMARK  status: ('A' for Active; 'I' for Inactive)
REMARK    1  A    between atoms: N_1  and  C_19
REMARK    2  A    between atoms: C_8  and  O_28
REMARK    3  A    between atoms: C_14  and  N_20
REMARK    4  A    between atoms: O_28  and  C_29
REMARK    5  A    between atoms: C_32  and  N_36
REMARK    6  A    between atoms: C_37  and  C_39
REMARK                            x       y       z     vdW  Elec       q    Type
REMARK                         _______ _______ _______ _____ _____    ______ ____
ROOT
ATOM      1  N   UNL     1      31.302  -8.347 -22.497  0.00  0.00    -0.238 N 
ATOM      2  N   UNL     1      30.794 -10.095 -21.036  0.00  0.00    -0.316 NA
ATOM      3  N   UNL     1      32.510 -10.332 -22.746  0.00  0.00    -0.294 NA
ATOM      4  N   UNL     1      30.517 -12.083 -19.700  0.00  0.00    -0.289 N 
ATOM      5  C   UNL     1      31.549  -9.666 -22.068  0.00  0.00    +0.207 C 
ATOM      6  C   UNL     1      32.062 -12.166 -21.308  0.00  0.00    +0.181 C 
ATOM      7  C   UNL     1      31.103 -11.361 -20.705  0.00  0.00    +0.188 C 
ATOM      8  C   UNL     1      32.775 -11.602 -22.365  0.00  0.00    +0.281 C 
ATOM      9  C   UNL     1      32.040 -13.412 -20.632  0.00  0.00    +0.008 C 
ATOM     10  C   UNL     1      31.078 -13.333 -19.647  0.00  0.00    +0.060 C 
ATOM     11  H   UNL     1      30.597  -7.889 -21.984  0.00  0.00    +0.166 HD
ATOM     12  H   UNL     1      29.802 -11.756 -19.107  0.00  0.00    +0.154 HD
ENDROOT
BRANCH   1  19
ATOM     13  F   UNL     1      34.736  -5.384 -24.045  0.00  0.00    -0.203 F 
ATOM     14  C   UNL     1      32.985  -5.983 -25.534  0.00  0.00    +0.076 C 
ATOM     15  C   UNL     1      33.604  -6.060 -24.287  0.00  0.00    +0.155 C 
ATOM     16  C   UNL     1      31.806  -6.690 -25.772  0.00  0.00    +0.018 C 
ATOM     17  C   UNL     1      33.045  -6.846 -23.278  0.00  0.00    +0.046 C 
ATOM     18  C   UNL     1      31.247  -7.475 -24.764  0.00  0.00    +0.017 C 
ATOM     19  C   UNL     1      31.867  -7.554 -23.517  0.00  0.00    +0.061 C 
BRANCH  14  20
ATOM     20  N   UNL     1      33.542  -5.195 -26.547  0.00  0.00    -0.310 N 
ATOM     21  N   UNL     1      34.568  -3.748 -28.786  0.00  0.00    +0.388 N 
ATOM     22  C   UNL     1      34.558  -5.805 -27.414  0.00  0.00    +0.068 C 
ATOM     23  C   UNL     1      32.747  -4.124 -27.156  0.00  0.00    +0.068 C 
ATOM     24  C   UNL     1      35.411  -4.725 -28.084  0.00  0.00    -0.056 C 
ATOM     25  C   UNL     1      33.659  -3.098 -27.835  0.00  0.00    -0.056 C 
ATOM     26  C   UNL     1      35.396  -2.752 -29.466  0.00  0.00    -0.101 C 
ATOM     27  H   UNL     1      34.015  -4.237 -29.489  0.00  0.00    -0.080 HD
ENDBRANCH  14  20
ENDBRANCH   1  19
BRANCH   8  28
ATOM     28  O   UNL     1      33.749 -12.292 -23.043  0.00  0.00    -0.429 OA
BRANCH  28  29
ATOM     29  C   UNL     1      33.460 -13.588 -23.420  0.00  0.00    +0.149 C 
ATOM     30  C   UNL     1      34.115 -14.654 -22.803  0.00  0.00    +0.052 C 
ATOM     31  C   UNL     1      32.515 -13.831 -24.415  0.00  0.00    +0.038 C 
ATOM     32  C   UNL     1      33.823 -15.965 -23.183  0.00  0.00    +0.054 C 
ATOM     33  C   UNL     1      32.877 -16.208 -24.178  0.00  0.00    +0.015 C 
ATOM     34  C   UNL     1      32.222 -15.142 -24.794  0.00  0.00    +0.004 C 
BRANCH  32  36
ATOM     35  O   UNL     1      34.189 -16.598 -20.270  0.00  0.00    -0.270 OA
ATOM     36  N   UNL     1      34.477 -17.032 -22.565  0.00  0.00    -0.280 N 
ATOM     37  C   UNL     1      34.618 -17.280 -21.193  0.00  0.00    +0.250 C 
ATOM     38  H   UNL     1      34.889 -17.692 -23.168  0.00  0.00    +0.155 HD
BRANCH  37  39
ATOM     39  C   UNL     1      35.389 -18.532 -20.937  0.00  0.00    +0.058 C 
ATOM     40  C   UNL     1      34.847 -19.532 -20.236  0.00  0.00    +0.005 C 
ENDBRANCH  37  39
ENDBRANCH  32  36
ENDBRANCH  28  29
ENDBRANCH   8  28
TORSDOF 6
ENDMDL
MODEL 5
REMARK VINA RESULT:     -10.4      4.926     12.382
REMARK  Name = 72734520
REMARK  6 active torsions:
REMARK  status: ('A' for Active; 'I' for Inactive)
REMARK    1  A    between atoms: N_1  and  C_19
REMARK    2  A    between atoms: C_8  and  O_28
REMARK    3  A    between atoms: C_14  and  N_20
REMARK    4  A    between atoms: O_28  and  C_29
REMARK    5  A    between atoms: C_32  and  N_36
REMARK    6  A    between atoms: C_37  and  C_39
REMARK                            x       y       z     vdW  Elec       q    Type
REMARK                         _______ _______ _______ _____ _____    ______ ____
ROOT
ATOM      1  N   UNL     1      31.414  -8.359 -22.540  0.00  0.00    -0.238 N 
ATOM      2  N   UNL     1      30.861 -10.107 -21.097  0.00  0.00    -0.316 NA
ATOM      3  N   UNL     1      32.589 -10.363 -22.793  0.00  0.00    -0.294 NA
ATOM      4  N   UNL     1      30.536 -12.100 -19.779  0.00  0.00    -0.289 N 
ATOM      5  C   UNL     1      31.634  -9.685 -22.118  0.00  0.00    +0.207 C 
ATOM      6  C   UNL     1      32.094 -12.198 -21.372  0.00  0.00    +0.181 C 
ATOM      7  C   UNL     1      31.145 -11.381 -20.773  0.00  0.00    +0.188 C 
ATOM      8  C   UNL     1      32.828 -11.640 -22.418  0.00  0.00    +0.281 C 
ATOM      9  C   UNL     1      32.044 -13.449 -20.706  0.00  0.00    +0.008 C 
ATOM     10  C   UNL     1      31.074 -13.360 -19.729  0.00  0.00    +0.060 C 
ATOM     11  H   UNL     1      30.713  -7.892 -22.031  0.00  0.00    +0.166 HD
ATOM     12  H   UNL     1      29.821 -11.764 -19.190  0.00  0.00    +0.154 HD
ENDROOT
BRANCH   1  19
ATOM     13  F   UNL     1      31.324  -6.495 -26.955  0.00  0.00    -0.203 F 
ATOM     14  C   UNL     1      33.170  -6.004 -25.544  0.00  0.00    +0.076 C 
ATOM     15  C   UNL     1      31.947  -6.633 -25.777  0.00  0.00    +0.155 C 
ATOM     16  C   UNL     1      33.810  -6.158 -24.314  0.00  0.00    +0.018 C 
ATOM     17  C   UNL     1      31.364  -7.415 -24.779  0.00  0.00    +0.046 C 
ATOM     18  C   UNL     1      33.227  -6.939 -23.317  0.00  0.00    +0.017 C 
ATOM     19  C   UNL     1      32.004  -7.568 -23.549  0.00  0.00    +0.061 C 
BRANCH  14  20
ATOM     20  N   UNL     1      33.758  -5.221 -26.543  0.00  0.00    -0.310 N 
ATOM     21  N   UNL     1      35.174  -3.618 -28.436  0.00  0.00    +0.388 N 
ATOM     22  C   UNL     1      34.127  -3.840 -26.208  0.00  0.00    +0.068 C 
ATOM     23  C   UNL     1      34.568  -5.859 -27.585  0.00  0.00    +0.068 C 
ATOM     24  C   UNL     1      34.252  -2.995 -27.478  0.00  0.00    -0.056 C 
ATOM     25  C   UNL     1      34.681  -4.948 -28.811  0.00  0.00    -0.056 C 
ATOM     26  C   UNL     1      35.328  -2.775 -29.622  0.00  0.00    -0.101 C 
ATOM     27  H   UNL     1      36.088  -3.718 -27.996  0.00  0.00    -0.080 HD
ENDBRANCH  14  20
ENDBRANCH   1  19
BRANCH   8  28
ATOM     28  O   UNL     1      33.796 -12.342 -23.092  0.00  0.00    -0.429 OA
BRANCH  28  29
ATOM     29  C   UNL     1      33.501 -13.642 -23.450  0.00  0.00    +0.149 C 
ATOM     30  C   UNL     1      34.136 -14.703 -22.804  0.00  0.00    +0.052 C 
ATOM     31  C   UNL     1      32.569 -13.894 -24.456  0.00  0.00    +0.038 C 
ATOM     32  C   UNL     1      33.837 -16.017 -23.165  0.00  0.00    +0.054 C 
ATOM     33  C   UNL     1      32.905 -16.270 -24.171  0.00  0.00    +0.015 C 
ATOM     34  C   UNL     1      32.270 -15.209 -24.816  0.00  0.00    +0.004 C 
BRANCH  32  36
ATOM     35  O   UNL     1      34.193 -16.577 -20.236  0.00  0.00    -0.270 OA
ATOM     36  N   UNL     1      34.471 -17.079 -22.518  0.00  0.00    -0.280 N 
ATOM     37  C   UNL     1      34.608 -17.292 -21.139  0.00  0.00    +0.250 C 
ATOM     38  H   UNL     1      34.870 -17.763 -23.102  0.00  0.00    +0.155 HD
BRANCH  37  39
ATOM     39  C   UNL     1      35.355 -18.551 -20.849  0.00  0.00    +0.058 C 
ATOM     40  C   UNL     1      34.762 -19.559 -20.203  0.00  0.00    +0.005 C 
ENDBRANCH  37  39
ENDBRANCH  32  36
ENDBRANCH  28  29
ENDBRANCH   8  28
TORSDOF 6
ENDMDL
MODEL 6
REMARK VINA RESULT:      -9.6      5.386     11.519
REMARK  Name = 72734520
REMARK  6 active torsions:
REMARK  status: ('A' for Active; 'I' for Inactive)
REMARK    1  A    between atoms: N_1  and  C_19
REMARK    2  A    between atoms: C_8  and  O_28
REMARK    3  A    between atoms: C_14  and  N_20
REMARK    4  A    between atoms: O_28  and  C_29
REMARK    5  A    between atoms: C_32  and  N_36
REMARK    6  A    between atoms: C_37  and  C_39
REMARK                            x       y       z     vdW  Elec       q    Type
REMARK                         _______ _______ _______ _____ _____    ______ ____
ROOT
ATOM      1  N   UNL     1      36.150 -22.332 -16.365  0.00  0.00    -0.238 N 
ATOM      2  N   UNL     1      36.247 -23.524 -14.361  0.00  0.00    -0.316 NA
ATOM      3  N   UNL     1      34.275 -22.235 -14.974  0.00  0.00    -0.294 NA
ATOM      4  N   UNL     1      36.021 -24.632 -12.231  0.00  0.00    -0.289 N 
ATOM      5  C   UNL     1      35.522 -22.720 -15.165  0.00  0.00    +0.207 C 
ATOM      6  C   UNL     1      34.281 -23.414 -12.914  0.00  0.00    +0.181 C 
ATOM      7  C   UNL     1      35.563 -23.835 -13.246  0.00  0.00    +0.188 C 
ATOM      8  C   UNL     1      33.639 -22.584 -13.833  0.00  0.00    +0.281 C 
ATOM      9  C   UNL     1      33.971 -23.986 -11.654  0.00  0.00    +0.008 C 
ATOM     10  C   UNL     1      35.061 -24.730 -11.257  0.00  0.00    +0.060 C 
ATOM     11  H   UNL     1      37.057 -22.701 -16.475  0.00  0.00    +0.166 HD
ATOM     12  H   UNL     1      36.903 -25.068 -12.204  0.00  0.00    +0.154 HD
ENDROOT
BRANCH   1  19
ATOM     13  F   UNL     1      32.824 -21.045 -19.567  0.00  0.00    -0.203 F 
ATOM     14  C   UNL     1      34.913 -19.915 -19.570  0.00  0.00    +0.076 C 
ATOM     15  C   UNL     1      34.050 -20.880 -19.051  0.00  0.00    +0.155 C 
ATOM     16  C   UNL     1      36.187 -19.754 -19.025  0.00  0.00    +0.018 C 
ATOM     17  C   UNL     1      34.461 -21.682 -17.986  0.00  0.00    +0.046 C 
ATOM     18  C   UNL     1      36.598 -20.556 -17.961  0.00  0.00    +0.017 C 
ATOM     19  C   UNL     1      35.735 -21.520 -17.441  0.00  0.00    +0.061 C 
BRANCH  14  20
ATOM     20  N   UNL     1      34.504 -19.109 -20.638  0.00  0.00    -0.310 N 
ATOM     21  N   UNL     1      33.444 -17.434 -22.694  0.00  0.00    +0.388 N 
ATOM     22  C   UNL     1      33.386 -19.578 -21.466  0.00  0.00    +0.068 C 
ATOM     23  C   UNL     1      34.668 -17.655 -20.557  0.00  0.00    +0.068 C 
ATOM     24  C   UNL     1      33.408 -18.895 -22.835  0.00  0.00    -0.056 C 
ATOM     25  C   UNL     1      34.647 -17.033 -21.956  0.00  0.00    -0.056 C 
ATOM     26  C   UNL     1      33.410 -16.791 -24.008  0.00  0.00    -0.101 C 
ATOM     27  H   UNL     1      32.622 -17.133 -22.172  0.00  0.00    -0.080 HD
ENDBRANCH  14  20
ENDBRANCH   1  19
BRANCH   8  28
ATOM     28  O   UNL     1      32.371 -22.101 -13.625  0.00  0.00    -0.429 OA
BRANCH  28  29
ATOM     29  C   UNL     1      31.317 -22.936 -13.936  0.00  0.00    +0.149 C 
ATOM     30  C   UNL     1      30.338 -22.515 -14.836  0.00  0.00    +0.052 C 
ATOM     31  C   UNL     1      31.232 -24.200 -13.353  0.00  0.00    +0.038 C 
ATOM     32  C   UNL     1      29.273 -23.359 -15.153  0.00  0.00    +0.054 C 
ATOM     33  C   UNL     1      29.187 -24.623 -14.569  0.00  0.00    +0.015 C 
ATOM     34  C   UNL     1      30.167 -25.044 -13.670  0.00  0.00    +0.004 C 
BRANCH  32  36
ATOM     35  O   UNL     1      26.385 -22.669 -14.703  0.00  0.00    -0.270 OA
ATOM     36  N   UNL     1      28.293 -22.939 -16.053  0.00  0.00    -0.280 N 
ATOM     37  C   UNL     1      26.953 -22.628 -15.788  0.00  0.00    +0.250 C 
ATOM     38  H   UNL     1      28.580 -22.849 -16.991  0.00  0.00    +0.155 HD
BRANCH  37  39
ATOM     39  C   UNL     1      26.229 -22.215 -17.026  0.00  0.00    +0.058 C 
ATOM     40  C   UNL     1      25.569 -21.054 -17.072  0.00  0.00    +0.005 C 
ENDBRANCH  37  39
ENDBRANCH  32  36
ENDBRANCH  28  29
ENDBRANCH   8  28
TORSDOF 6
ENDMDL
MODEL 7
REMARK VINA RESULT:      -9.5      4.713      9.170
REMARK  Name = 72734520
REMARK  6 active torsions:
REMARK  status: ('A' for Active; 'I' for Inactive)
REMARK    1  A    between atoms: N_1  and  C_19
REMARK    2  A    between atoms: C_8  and  O_28
REMARK    3  A    between atoms: C_14  and  N_20
REMARK    4  A    between atoms: O_28  and  C_29
REMARK    5  A    between atoms: C_32  and  N_36
REMARK    6  A    between atoms: C_37  and  C_39
REMARK                            x       y       z     vdW  Elec       q    Type
REMARK                         _______ _______ _______ _____ _____    ______ ____
ROOT
ATOM      1  N   UNL     1      33.588  -7.139 -24.885  0.00  0.00    -0.238 N 
ATOM      2  N   UNL     1      33.141  -4.848 -24.925  0.00  0.00    -0.316 NA
ATOM      3  N   UNL     1      31.779  -6.382 -23.614  0.00  0.00    -0.294 NA
ATOM      4  N   UNL     1      32.410  -2.557 -24.751  0.00  0.00    -0.289 N 
ATOM      5  C   UNL     1      32.792  -6.061 -24.450  0.00  0.00    +0.207 C 
ATOM      6  C   UNL     1      31.246  -4.070 -23.595  0.00  0.00    +0.181 C 
ATOM      7  C   UNL     1      32.321  -3.892 -24.456  0.00  0.00    +0.188 C 
ATOM      8  C   UNL     1      30.990  -5.375 -23.176  0.00  0.00    +0.281 C 
ATOM      9  C   UNL     1      30.677  -2.789 -23.374  0.00  0.00    +0.008 C 
ATOM     10  C   UNL     1      31.414  -1.877 -24.098  0.00  0.00    +0.060 C 
ATOM     11  H   UNL     1      34.316  -6.873 -25.492  0.00  0.00    +0.166 HD
ATOM     12  H   UNL     1      33.084  -2.149 -25.341  0.00  0.00    +0.154 HD
ENDROOT
BRANCH   1  19
ATOM     13  F   UNL     1      31.943 -10.840 -22.323  0.00  0.00    -0.203 F 
ATOM     14  C   UNL     1      33.471 -11.262 -24.092  0.00  0.00    +0.076 C 
ATOM     15  C   UNL     1      32.712 -10.382 -23.320  0.00  0.00    +0.155 C 
ATOM     16  C   UNL     1      34.269 -10.772 -25.126  0.00  0.00    +0.018 C 
ATOM     17  C   UNL     1      32.751  -9.012 -23.584  0.00  0.00    +0.046 C 
ATOM     18  C   UNL     1      34.308  -9.404 -25.389  0.00  0.00    +0.017 C 
ATOM     19  C   UNL     1      33.549  -8.524 -24.619  0.00  0.00    +0.061 C 
BRANCH  14  20
ATOM     20  N   UNL     1      33.435 -12.636 -23.829  0.00  0.00    -0.310 N 
ATOM     21  N   UNL     1      33.156 -15.394 -23.142  0.00  0.00    +0.388 N 
ATOM     22  C   UNL     1      33.692 -13.082 -22.454  0.00  0.00    +0.068 C 
ATOM     23  C   UNL     1      32.567 -13.507 -24.627  0.00  0.00    +0.068 C 
ATOM     24  C   UNL     1      34.127 -14.549 -22.437  0.00  0.00    -0.056 C 
ATOM     25  C   UNL     1      33.038 -14.961 -24.539  0.00  0.00    -0.056 C 
ATOM     26  C   UNL     1      33.554 -16.800 -23.072  0.00  0.00    -0.101 C 
ATOM     27  H   UNL     1      32.247 -15.298 -22.690  0.00  0.00    -0.080 HD
ENDBRANCH  14  20
ENDBRANCH   1  19
BRANCH   8  28
ATOM     28  O   UNL     1      29.958  -5.684 -22.325  0.00  0.00    -0.429 OA
BRANCH  28  29
ATOM     29  C   UNL     1      30.292  -6.101 -21.052  0.00  0.00    +0.149 C 
ATOM     30  C   UNL     1      30.619  -7.438 -20.821  0.00  0.00    +0.052 C 
ATOM     31  C   UNL     1      30.302  -5.188 -19.998  0.00  0.00    +0.038 C 
ATOM     32  C   UNL     1      30.957  -7.860 -19.536  0.00  0.00    +0.054 C 
ATOM     33  C   UNL     1      30.968  -6.947 -18.482  0.00  0.00    +0.015 C 
ATOM     34  C   UNL     1      30.641  -5.611 -18.713  0.00  0.00    +0.004 C 
BRANCH  32  36
ATOM     35  O   UNL     1      29.318 -10.352 -19.879  0.00  0.00    -0.270 OA
ATOM     36  N   UNL     1      31.286  -9.197 -19.305  0.00  0.00    -0.280 N 
ATOM     37  C   UNL     1      30.478 -10.328 -19.483  0.00  0.00    +0.250 C 
ATOM     38  H   UNL     1      32.198  -9.366 -18.977  0.00  0.00    +0.155 HD
BRANCH  37  39
ATOM     39  C   UNL     1      31.200 -11.582 -19.124  0.00  0.00    +0.058 C 
ATOM     40  C   UNL     1      31.118 -12.661 -19.909  0.00  0.00    +0.005 C 
ENDBRANCH  37  39
ENDBRANCH  32  36
ENDBRANCH  28  29
ENDBRANCH   8  28
TORSDOF 6
ENDMDL
MODEL 8
REMARK VINA RESULT:      -9.2      4.137      7.803
REMARK  Name = 72734520
REMARK  6 active torsions:
REMARK  status: ('A' for Active; 'I' for Inactive)
REMARK    1  A    between atoms: N_1  and  C_19
REMARK    2  A    between atoms: C_8  and  O_28
REMARK    3  A    between atoms: C_14  and  N_20
REMARK    4  A    between atoms: O_28  and  C_29
REMARK    5  A    between atoms: C_32  and  N_36
REMARK    6  A    between atoms: C_37  and  C_39
REMARK                            x       y       z     vdW  Elec       q    Type
REMARK                         _______ _______ _______ _____ _____    ______ ____
ROOT
ATOM      1  N   UNL     1      33.254  -9.125 -24.882  0.00  0.00    -0.238 N 
ATOM      2  N   UNL     1      32.805  -6.836 -24.804  0.00  0.00    -0.316 NA
ATOM      3  N   UNL     1      31.592  -8.413 -23.402  0.00  0.00    -0.294 NA
ATOM      4  N   UNL     1      32.097  -4.553 -24.482  0.00  0.00    -0.289 N 
ATOM      5  C   UNL     1      32.509  -8.064 -24.332  0.00  0.00    +0.207 C 
ATOM      6  C   UNL     1      31.064  -6.104 -23.254  0.00  0.00    +0.181 C 
ATOM      7  C   UNL     1      32.041  -5.897 -24.220  0.00  0.00    +0.188 C 
ATOM      8  C   UNL     1      30.855  -7.422 -22.850  0.00  0.00    +0.281 C 
ATOM      9  C   UNL     1      30.523  -4.833 -22.934  0.00  0.00    +0.008 C 
ATOM     10  C   UNL     1      31.178  -3.897 -23.705  0.00  0.00    +0.060 C 
ATOM     11  H   UNL     1      33.912  -8.839 -25.556  0.00  0.00    +0.166 HD
ATOM     12  H   UNL     1      32.704  -4.125 -25.128  0.00  0.00    +0.154 HD
ENDROOT
BRANCH   1  19
ATOM     13  F   UNL     1      33.891 -12.874 -21.966  0.00  0.00    -0.203 F 
ATOM     14  C   UNL     1      33.222 -13.271 -24.210  0.00  0.00    +0.076 C 
ATOM     15  C   UNL     1      33.567 -12.400 -23.177  0.00  0.00    +0.155 C 
ATOM     16  C   UNL     1      32.889 -12.765 -25.466  0.00  0.00    +0.018 C 
ATOM     17  C   UNL     1      33.577 -11.023 -23.400  0.00  0.00    +0.046 C 
ATOM     18  C   UNL     1      32.899 -11.389 -25.689  0.00  0.00    +0.017 C 
ATOM     19  C   UNL     1      33.243 -10.517 -24.656  0.00  0.00    +0.061 C 
BRANCH  14  20
ATOM     20  N   UNL     1      33.212 -14.653 -23.989  0.00  0.00    -0.310 N 
ATOM     21  N   UNL     1      33.327 -17.498 -23.760  0.00  0.00    +0.388 N 
ATOM     22  C   UNL     1      32.487 -15.498 -24.946  0.00  0.00    +0.068 C 
ATOM     23  C   UNL     1      34.346 -15.290 -23.312  0.00  0.00    +0.068 C 
ATOM     24  C   UNL     1      32.133 -16.845 -24.312  0.00  0.00    -0.056 C 
ATOM     25  C   UNL     1      33.932 -16.645 -22.731  0.00  0.00    -0.056 C 
ATOM     26  C   UNL     1      32.986 -18.808 -23.206  0.00  0.00    -0.101 C 
ATOM     27  H   UNL     1      34.003 -17.636 -24.511  0.00  0.00    -0.080 HD
ENDBRANCH  14  20
ENDBRANCH   1  19
BRANCH   8  28
ATOM     28  O   UNL     1      29.921  -7.760 -21.903  0.00  0.00    -0.429 OA
BRANCH  28  29
ATOM     29  C   UNL     1      30.389  -8.234 -20.695  0.00  0.00    +0.149 C 
ATOM     30  C   UNL     1      30.570  -9.605 -20.507  0.00  0.00    +0.052 C 
ATOM     31  C   UNL     1      30.681  -7.345 -19.661  0.00  0.00    +0.038 C 
ATOM     32  C   UNL     1      31.045 -10.085 -19.286  0.00  0.00    +0.054 C 
ATOM     33  C   UNL     1      31.337  -9.195 -18.253  0.00  0.00    +0.015 C 
ATOM     34  C   UNL     1      31.156  -7.825 -18.441  0.00  0.00    +0.004 C 
BRANCH  32  36
ATOM     35  O   UNL     1      30.852 -12.357 -21.240  0.00  0.00    -0.270 OA
ATOM     36  N   UNL     1      31.227 -11.456 -19.099  0.00  0.00    -0.280 N 
ATOM     37  C   UNL     1      31.125 -12.479 -20.052  0.00  0.00    +0.250 C 
ATOM     38  H   UNL     1      31.457 -11.739 -18.185  0.00  0.00    +0.155 HD
BRANCH  37  39
ATOM     39  C   UNL     1      31.395 -13.818 -19.453  0.00  0.00    +0.058 C 
ATOM     40  C   UNL     1      32.545 -14.452 -19.698  0.00  0.00    +0.005 C 
ENDBRANCH  37  39
ENDBRANCH  32  36
ENDBRANCH  28  29
ENDBRANCH   8  28
TORSDOF 6
ENDMDL
MODEL 9
REMARK VINA RESULT:      -9.1      2.250      3.426
REMARK  Name = 72734520
REMARK  6 active torsions:
REMARK  status: ('A' for Active; 'I' for Inactive)
REMARK    1  A    between atoms: N_1  and  C_19
REMARK    2  A    between atoms: C_8  and  O_28
REMARK    3  A    between atoms: C_14  and  N_20
REMARK    4  A    between atoms: O_28  and  C_29
REMARK    5  A    between atoms: C_32  and  N_36
REMARK    6  A    between atoms: C_37  and  C_39
REMARK                            x       y       z     vdW  Elec       q    Type
REMARK                         _______ _______ _______ _____ _____    ______ ____
ROOT
ATOM      1  N   UNL     1      34.213 -14.305 -23.105  0.00  0.00    -0.238 N 
ATOM      2  N   UNL     1      33.923 -12.130 -23.901  0.00  0.00    -0.316 NA
ATOM      3  N   UNL     1      32.533 -13.020 -22.111  0.00  0.00    -0.294 NA
ATOM      4  N   UNL     1      33.362  -9.859 -24.486  0.00  0.00    -0.289 N 
ATOM      5  C   UNL     1      33.518 -13.082 -23.035  0.00  0.00    +0.207 C 
ATOM      6  C   UNL     1      32.162 -10.797 -22.856  0.00  0.00    +0.181 C 
ATOM      7  C   UNL     1      33.198 -11.007 -23.757  0.00  0.00    +0.188 C 
ATOM      8  C   UNL     1      31.841 -11.862 -22.015  0.00  0.00    +0.281 C 
ATOM      9  C   UNL     1      31.696  -9.474 -23.062  0.00  0.00    +0.008 C 
ATOM     10  C   UNL     1      32.453  -8.920 -24.072  0.00  0.00    +0.060 C 
ATOM     11  H   UNL     1      34.923 -14.319 -23.787  0.00  0.00    +0.166 HD
ATOM     12  H   UNL     1      34.030  -9.728 -25.198  0.00  0.00    +0.154 HD
ENDROOT
BRANCH   1  19
ATOM     13  F   UNL     1      33.716 -19.071 -23.032  0.00  0.00    -0.203 F 
ATOM     14  C   UNL     1      33.853 -17.904 -20.968  0.00  0.00    +0.076 C 
ATOM     15  C   UNL     1      33.842 -17.917 -22.363  0.00  0.00    +0.155 C 
ATOM     16  C   UNL     1      33.983 -16.695 -20.284  0.00  0.00    +0.018 C 
ATOM     17  C   UNL     1      33.962 -16.721 -23.073  0.00  0.00    +0.046 C 
ATOM     18  C   UNL     1      34.103 -15.501 -20.993  0.00  0.00    +0.017 C 
ATOM     19  C   UNL     1      34.092 -15.514 -22.387  0.00  0.00    +0.061 C 
BRANCH  14  20
ATOM     20  N   UNL     1      33.732 -19.101 -20.254  0.00  0.00    -0.310 N 
ATOM     21  N   UNL     1      33.445 -21.663 -19.024  0.00  0.00    +0.388 N 
ATOM     22  C   UNL     1      32.431 -19.782 -20.266  0.00  0.00    +0.068 C 
ATOM     23  C   UNL     1      34.901 -19.969 -20.085  0.00  0.00    +0.068 C 
ATOM     24  C   UNL     1      32.311 -20.732 -19.072  0.00  0.00    -0.056 C 
ATOM     25  C   UNL     1      34.701 -20.914 -18.897  0.00  0.00    -0.056 C 
ATOM     26  C   UNL     1      33.292 -22.600 -17.912  0.00  0.00    -0.101 C 
ATOM     27  H   UNL     1      33.468 -22.199 -19.891  0.00  0.00    -0.080 HD
ENDBRANCH  14  20
ENDBRANCH   1  19
BRANCH   8  28
ATOM     28  O   UNL     1      30.839 -11.782 -21.080  0.00  0.00    -0.429 OA
BRANCH  28  29
ATOM     29  C   UNL     1      30.894 -10.737 -20.182  0.00  0.00    +0.149 C 
ATOM     30  C   UNL     1      30.768  -9.423 -20.634  0.00  0.00    +0.052 C 
ATOM     31  C   UNL     1      31.073 -10.992 -18.822  0.00  0.00    +0.038 C 
ATOM     32  C   UNL     1      30.822  -8.365 -19.726  0.00  0.00    +0.054 C 
ATOM     33  C   UNL     1      31.002  -8.621 -18.367  0.00  0.00    +0.015 C 
ATOM     34  C   UNL     1      31.126  -9.934 -17.915  0.00  0.00    +0.004 C 
BRANCH  32  36
ATOM     35  O   UNL     1      32.760  -6.631 -21.228  0.00  0.00    -0.270 OA
ATOM     36  N   UNL     1      30.696  -7.051 -20.178  0.00  0.00    -0.280 N 
ATOM     37  C   UNL     1      31.638  -6.284 -20.879  0.00  0.00    +0.250 C 
ATOM     38  H   UNL     1      29.840  -6.607 -19.981  0.00  0.00    +0.155 HD
BRANCH  37  39
ATOM     39  C   UNL     1      31.120  -4.919 -21.182  0.00  0.00    +0.058 C 
ATOM     40  C   UNL     1      29.817  -4.645 -21.064  0.00  0.00    +0.005 C 
ENDBRANCH  37  39
ENDBRANCH  32  36
ENDBRANCH  28  29
ENDBRANCH   8  28
TORSDOF 6
ENDMDL
