MODEL 1
REMARK VINA RESULT:     -12.4      0.000      0.000
REMARK  Name = 60870
REMARK  7 active torsions:
REMARK  status: ('A' for Active; 'I' for Inactive)
REMARK    1  A    between atoms: C_2  and  C_4
REMARK    2  A    between atoms: C_2  and  C_18
REMARK    3  A    between atoms: C_3  and  C_9
REMARK    4  A    between atoms: C_9  and  C_14
REMARK    5  A    between atoms: C_18  and  C_19
REMARK    6  A    between atoms: C_19  and  C_22
REMARK    7  A    between atoms: C_24  and  C_26
REMARK                            x       y       z     vdW  Elec       q    Type
REMARK                         _______ _______ _______ _____ _____    ______ ____
ROOT
ATOM      1  O   UNL     1      32.696 -23.892 -17.639  0.00  0.00    -0.291 OA
ATOM      2  C   UNL     1      32.511 -22.670 -17.466  0.00  0.00    +0.173 C 
ENDROOT
BRANCH   2   4
ATOM      3  C   UNL     1      34.221 -19.828 -20.088  0.00  0.00    -0.021 C 
ATOM      4  C   UNL     1      33.099 -21.693 -18.369  0.00  0.00    +0.035 C 
ATOM      5  C   UNL     1      35.050 -20.656 -19.347  0.00  0.00    -0.004 C 
ATOM      6  C   UNL     1      32.841 -19.916 -19.984  0.00  0.00    -0.004 C 
ATOM      7  C   UNL     1      34.485 -21.595 -18.482  0.00  0.00    +0.003 C 
ATOM      8  C   UNL     1      32.276 -20.854 -19.120  0.00  0.00    +0.003 C 
BRANCH   3   9
ATOM      9  C   UNL     1      34.830 -18.815 -21.023  0.00  0.00    +0.047 C 
BRANCH   9  14
ATOM     10  S   UNL     1      33.774 -18.079 -23.458  0.00  0.00    -0.048 S 
ATOM     11  O   UNL     1      34.185 -15.991 -20.239  0.00  0.00    -0.274 OA
ATOM     12  O   UNL     1      34.113 -15.879 -24.855  0.00  0.00    -0.263 OA
ATOM     13  N   UNL     1      34.169 -15.730 -22.536  0.00  0.00    -0.246 N 
ATOM     14  C   UNL     1      33.779 -17.913 -21.646  0.00  0.00    +0.137 C 
ATOM     15  C   UNL     1      34.066 -16.455 -21.367  0.00  0.00    +0.239 C 
ATOM     16  C   UNL     1      34.045 -16.373 -23.740  0.00  0.00    +0.279 C 
ATOM     17  H   UNL     1      34.329 -14.760 -22.506  0.00  0.00    +0.158 HD
ENDBRANCH   9  14
ENDBRANCH   3   9
ENDBRANCH   2   4
BRANCH   2  18
ATOM     18  C   UNL     1      31.646 -22.200 -16.281  0.00  0.00    +0.076 C 
BRANCH  18  19
ATOM     19  C   UNL     1      31.023 -23.350 -15.485  0.00  0.00    +0.066 C 
BRANCH  19  22
ATOM     20  O   UNL     1      32.401 -24.237 -12.222  0.00  0.00    -0.449 OA
ATOM     21  N   UNL     1      33.154 -23.572 -14.249  0.00  0.00    -0.373 NA
ATOM     22  C   UNL     1      31.800 -23.669 -14.243  0.00  0.00    +0.130 C 
ATOM     23  C   UNL     1      31.324 -24.066 -13.039  0.00  0.00    +0.216 C 
ATOM     24  C   UNL     1      33.458 -23.921 -13.019  0.00  0.00    +0.277 C 
ATOM     25  C   UNL     1      30.001 -24.335 -12.464  0.00  0.00    +0.055 C 
BRANCH  24  26
ATOM     26  C   UNL     1      34.747 -24.019 -12.392  0.00  0.00    +0.066 C 
ATOM     27  C   UNL     1      35.131 -23.088 -11.423  0.00  0.00    +0.006 C 
ATOM     28  C   UNL     1      35.626 -25.045 -12.750  0.00  0.00    +0.006 C 
ATOM     29  C   UNL     1      36.384 -23.183 -10.816  0.00  0.00    +0.000 C 
ATOM     30  C   UNL     1      36.879 -25.140 -12.143  0.00  0.00    +0.000 C 
ATOM     31  C   UNL     1      37.257 -24.208 -11.176  0.00  0.00    +0.000 C 
ENDBRANCH  24  26
ENDBRANCH  19  22
ENDBRANCH  18  19
ENDBRANCH   2  18
TORSDOF 7
ENDMDL
MODEL 2
REMARK VINA RESULT:     -12.0      2.870      4.759
REMARK  Name = 60870
REMARK  7 active torsions:
REMARK  status: ('A' for Active; 'I' for Inactive)
REMARK    1  A    between atoms: C_2  and  C_4
REMARK    2  A    between atoms: C_2  and  C_18
REMARK    3  A    between atoms: C_3  and  C_9
REMARK    4  A    between atoms: C_9  and  C_14
REMARK    5  A    between atoms: C_18  and  C_19
REMARK    6  A    between atoms: C_19  and  C_22
REMARK    7  A    between atoms: C_24  and  C_26
REMARK                            x       y       z     vdW  Elec       q    Type
REMARK                         _______ _______ _______ _____ _____    ______ ____
ROOT
ATOM      1  O   UNL     1      35.390 -20.125 -19.319  0.00  0.00    -0.291 OA
ATOM      2  C   UNL     1      34.302 -19.824 -19.853  0.00  0.00    +0.173 C 
ENDROOT
BRANCH   2   4
ATOM      3  C   UNL     1      34.136 -16.954 -22.953  0.00  0.00    -0.021 C 
ATOM      4  C   UNL     1      34.246 -18.837 -20.920  0.00  0.00    +0.035 C 
ATOM      5  C   UNL     1      34.568 -16.571 -21.693  0.00  0.00    -0.004 C 
ATOM      6  C   UNL     1      33.758 -18.262 -23.215  0.00  0.00    -0.004 C 
ATOM      7  C   UNL     1      34.624 -17.518 -20.670  0.00  0.00    +0.003 C 
ATOM      8  C   UNL     1      33.814 -19.210 -22.192  0.00  0.00    +0.003 C 
BRANCH   3   9
ATOM      9  C   UNL     1      34.077 -15.931 -24.059  0.00  0.00    +0.047 C 
BRANCH   9  14
ATOM     10  S   UNL     1      32.055 -14.749 -25.508  0.00  0.00    -0.048 S 
ATOM     11  O   UNL     1      33.944 -13.424 -22.414  0.00  0.00    -0.274 OA
ATOM     12  O   UNL     1      31.791 -12.267 -26.333  0.00  0.00    -0.263 OA
ATOM     13  N   UNL     1      32.896 -12.648 -24.324  0.00  0.00    -0.246 N 
ATOM     14  C   UNL     1      32.886 -15.002 -23.909  0.00  0.00    +0.137 C 
ATOM     15  C   UNL     1      33.312 -13.627 -23.446  0.00  0.00    +0.239 C 
ATOM     16  C   UNL     1      32.221 -13.007 -25.461  0.00  0.00    +0.279 C 
ATOM     17  H   UNL     1      33.082 -11.700 -24.136  0.00  0.00    +0.158 HD
ENDBRANCH   9  14
ENDBRANCH   3   9
ENDBRANCH   2   4
BRANCH   2  18
ATOM     18  C   UNL     1      33.011 -20.511 -19.372  0.00  0.00    +0.076 C 
BRANCH  18  19
ATOM     19  C   UNL     1      33.182 -22.007 -19.093  0.00  0.00    +0.066 C 
BRANCH  19  22
ATOM     20  O   UNL     1      33.315 -22.656 -15.503  0.00  0.00    -0.449 OA
ATOM     21  N   UNL     1      31.812 -22.790 -17.189  0.00  0.00    -0.373 NA
ATOM     22  C   UNL     1      33.010 -22.339 -17.641  0.00  0.00    +0.130 C 
ATOM     23  C   UNL     1      33.927 -22.250 -16.650  0.00  0.00    +0.216 C 
ATOM     24  C   UNL     1      32.052 -22.963 -15.908  0.00  0.00    +0.277 C 
ATOM     25  C   UNL     1      35.332 -21.841 -16.547  0.00  0.00    +0.055 C 
BRANCH  24  26
ATOM     26  C   UNL     1      31.174 -23.429 -14.871  0.00  0.00    +0.066 C 
ATOM     27  C   UNL     1      31.696 -23.903 -13.665  0.00  0.00    +0.006 C 
ATOM     28  C   UNL     1      29.789 -23.413 -15.065  0.00  0.00    +0.006 C 
ATOM     29  C   UNL     1      30.842 -24.357 -12.659  0.00  0.00    +0.000 C 
ATOM     30  C   UNL     1      28.935 -23.866 -14.059  0.00  0.00    +0.000 C 
ATOM     31  C   UNL     1      29.462 -24.338 -12.856  0.00  0.00    +0.000 C 
ENDBRANCH  24  26
ENDBRANCH  19  22
ENDBRANCH  18  19
ENDBRANCH   2  18
TORSDOF 7
ENDMDL
MODEL 3
REMARK VINA RESULT:     -11.9      3.778     11.587
REMARK  Name = 60870
REMARK  7 active torsions:
REMARK  status: ('A' for Active; 'I' for Inactive)
REMARK    1  A    between atoms: C_2  and  C_4
REMARK    2  A    between atoms: C_2  and  C_18
REMARK    3  A    between atoms: C_3  and  C_9
REMARK    4  A    between atoms: C_9  and  C_14
REMARK    5  A    between atoms: C_18  and  C_19
REMARK    6  A    between atoms: C_19  and  C_22
REMARK    7  A    between atoms: C_24  and  C_26
REMARK                            x       y       z     vdW  Elec       q    Type
REMARK                         _______ _______ _______ _____ _____    ______ ____
ROOT
ATOM      1  O   UNL     1      35.802 -19.218 -19.849  0.00  0.00    -0.291 OA
ATOM      2  C   UNL     1      34.655 -19.637 -20.110  0.00  0.00    +0.173 C 
ENDROOT
BRANCH   2   4
ATOM      3  C   UNL     1      32.668 -22.282 -17.476  0.00  0.00    -0.021 C 
ATOM      4  C   UNL     1      33.972 -20.546 -19.203  0.00  0.00    +0.035 C 
ATOM      5  C   UNL     1      34.054 -22.220 -17.463  0.00  0.00    -0.004 C 
ATOM      6  C   UNL     1      31.923 -21.490 -18.337  0.00  0.00    -0.004 C 
ATOM      7  C   UNL     1      34.709 -21.347 -18.332  0.00  0.00    +0.003 C 
ATOM      8  C   UNL     1      32.579 -20.617 -19.206  0.00  0.00    +0.003 C 
BRANCH   3   9
ATOM      9  C   UNL     1      31.960 -23.224 -16.537  0.00  0.00    +0.047 C 
BRANCH   9  14
ATOM     10  S   UNL     1      31.897 -23.252 -13.783  0.00  0.00    -0.048 S 
ATOM     11  O   UNL     1      29.149 -22.204 -16.282  0.00  0.00    -0.274 OA
ATOM     12  O   UNL     1      30.010 -24.059 -12.142  0.00  0.00    -0.263 OA
ATOM     13  N   UNL     1      29.376 -23.137 -14.179  0.00  0.00    -0.246 N 
ATOM     14  C   UNL     1      31.359 -22.495 -15.348  0.00  0.00    +0.137 C 
ATOM     15  C   UNL     1      29.849 -22.584 -15.351  0.00  0.00    +0.239 C 
ATOM     16  C   UNL     1      30.266 -23.551 -13.223  0.00  0.00    +0.279 C 
ATOM     17  H   UNL     1      28.408 -23.234 -14.031  0.00  0.00    +0.158 HD
ENDBRANCH   9  14
ENDBRANCH   3   9
ENDBRANCH   2   4
BRANCH   2  18
ATOM     18  C   UNL     1      33.963 -19.180 -21.407  0.00  0.00    +0.076 C 
BRANCH  18  19
ATOM     19  C   UNL     1      34.842 -18.285 -22.286  0.00  0.00    +0.066 C 
BRANCH  19  22
ATOM     20  O   UNL     1      32.592 -16.337 -24.401  0.00  0.00    -0.449 OA
ATOM     21  N   UNL     1      34.315 -15.971 -22.982  0.00  0.00    -0.373 NA
ATOM     22  C   UNL     1      34.037 -17.296 -23.075  0.00  0.00    +0.130 C 
ATOM     23  C   UNL     1      33.008 -17.542 -23.920  0.00  0.00    +0.216 C 
ATOM     24  C   UNL     1      33.423 -15.448 -23.794  0.00  0.00    +0.277 C 
ATOM     25  C   UNL     1      32.294 -18.732 -24.394  0.00  0.00    +0.055 C 
BRANCH  24  26
ATOM     26  C   UNL     1      33.198 -14.070 -24.133  0.00  0.00    +0.066 C 
ATOM     27  C   UNL     1      32.748 -13.723 -25.410  0.00  0.00    +0.006 C 
ATOM     28  C   UNL     1      33.430 -13.066 -23.188  0.00  0.00    +0.006 C 
ATOM     29  C   UNL     1      32.530 -12.385 -25.740  0.00  0.00    +0.000 C 
ATOM     30  C   UNL     1      33.213 -11.728 -23.517  0.00  0.00    +0.000 C 
ATOM     31  C   UNL     1      32.763 -11.388 -24.793  0.00  0.00    +0.000 C 
ENDBRANCH  24  26
ENDBRANCH  19  22
ENDBRANCH  18  19
ENDBRANCH   2  18
TORSDOF 7
ENDMDL
MODEL 4
REMARK VINA RESULT:     -11.8      3.446     11.165
REMARK  Name = 60870
REMARK  7 active torsions:
REMARK  status: ('A' for Active; 'I' for Inactive)
REMARK    1  A    between atoms: C_2  and  C_4
REMARK    2  A    between atoms: C_2  and  C_18
REMARK    3  A    between atoms: C_3  and  C_9
REMARK    4  A    between atoms: C_9  and  C_14
REMARK    5  A    between atoms: C_18  and  C_19
REMARK    6  A    between atoms: C_19  and  C_22
REMARK    7  A    between atoms: C_24  and  C_26
REMARK                            x       y       z     vdW  Elec       q    Type
REMARK                         _______ _______ _______ _____ _____    ______ ____
ROOT
ATOM      1  O   UNL     1      33.812 -19.318 -22.037  0.00  0.00    -0.291 OA
ATOM      2  C   UNL     1      33.981 -19.115 -20.817  0.00  0.00    +0.173 C 
ENDROOT
BRANCH   2   4
ATOM      3  C   UNL     1      32.949 -22.065 -17.969  0.00  0.00    -0.021 C 
ATOM      4  C   UNL     1      33.626 -20.131 -19.838  0.00  0.00    +0.035 C 
ATOM      5  C   UNL     1      31.946 -21.330 -18.582  0.00  0.00    -0.004 C 
ATOM      6  C   UNL     1      34.285 -21.850 -18.274  0.00  0.00    -0.004 C 
ATOM      7  C   UNL     1      32.286 -20.357 -19.523  0.00  0.00    +0.003 C 
ATOM      8  C   UNL     1      34.625 -20.877 -19.215  0.00  0.00    +0.003 C 
BRANCH   3   9
ATOM      9  C   UNL     1      32.581 -23.117 -16.954  0.00  0.00    +0.047 C 
BRANCH   9  14
ATOM     10  S   UNL     1      33.051 -23.273 -14.245  0.00  0.00    -0.048 S 
ATOM     11  O   UNL     1      29.791 -22.396 -16.116  0.00  0.00    -0.274 OA
ATOM     12  O   UNL     1      31.594 -24.337 -12.333  0.00  0.00    -0.263 OA
ATOM     13  N   UNL     1      30.501 -23.393 -14.154  0.00  0.00    -0.246 N 
ATOM     14  C   UNL     1      32.157 -22.505 -15.631  0.00  0.00    +0.137 C 
ATOM     15  C   UNL     1      30.689 -22.745 -15.357  0.00  0.00    +0.239 C 
ATOM     16  C   UNL     1      31.591 -23.758 -13.409  0.00  0.00    +0.279 C 
ATOM     17  H   UNL     1      29.592 -23.593 -13.834  0.00  0.00    +0.158 HD
ENDBRANCH   9  14
ENDBRANCH   3   9
ENDBRANCH   2   4
BRANCH   2  18
ATOM     18  C   UNL     1      34.575 -17.772 -20.352  0.00  0.00    +0.076 C 
BRANCH  18  19
ATOM     19  C   UNL     1      35.102 -16.907 -21.500  0.00  0.00    +0.066 C 
BRANCH  19  22
ATOM     20  O   UNL     1      32.784 -14.478 -22.935  0.00  0.00    -0.449 OA
ATOM     21  N   UNL     1      33.751 -14.913 -20.937  0.00  0.00    -0.373 NA
ATOM     22  C   UNL     1      34.146 -15.813 -21.873  0.00  0.00    +0.130 C 
ATOM     23  C   UNL     1      33.580 -15.574 -23.079  0.00  0.00    +0.216 C 
ATOM     24  C   UNL     1      32.941 -14.140 -21.627  0.00  0.00    +0.277 C 
ATOM     25  C   UNL     1      33.631 -16.191 -24.409  0.00  0.00    +0.055 C 
BRANCH  24  26
ATOM     26  C   UNL     1      32.195 -12.990 -21.197  0.00  0.00    +0.066 C 
ATOM     27  C   UNL     1      32.175 -11.832 -21.979  0.00  0.00    +0.006 C 
ATOM     28  C   UNL     1      31.485 -13.023 -19.993  0.00  0.00    +0.006 C 
ATOM     29  C   UNL     1      31.450 -10.715 -21.561  0.00  0.00    +0.000 C 
ATOM     30  C   UNL     1      30.761 -11.906 -19.575  0.00  0.00    +0.000 C 
ATOM     31  C   UNL     1      30.744 -10.752 -20.359  0.00  0.00    +0.000 C 
ENDBRANCH  24  26
ENDBRANCH  19  22
ENDBRANCH  18  19
ENDBRANCH   2  18
TORSDOF 7
ENDMDL
MODEL 5
REMARK VINA RESULT:     -11.8      5.076     13.102
REMARK  Name = 60870
REMARK  7 active torsions:
REMARK  status: ('A' for Active; 'I' for Inactive)
REMARK    1  A    between atoms: C_2  and  C_4
REMARK    2  A    between atoms: C_2  and  C_18
REMARK    3  A    between atoms: C_3  and  C_9
REMARK    4  A    between atoms: C_9  and  C_14
REMARK    5  A    between atoms: C_18  and  C_19
REMARK    6  A    between atoms: C_19  and  C_22
REMARK    7  A    between atoms: C_24  and  C_26
REMARK                            x       y       z     vdW  Elec       q    Type
REMARK                         _______ _______ _______ _____ _____    ______ ____
ROOT
ATOM      1  O   UNL     1      33.814 -15.750 -24.716  0.00  0.00    -0.291 OA
ATOM      2  C   UNL     1      33.951 -15.722 -23.476  0.00  0.00    +0.173 C 
ENDROOT
BRANCH   2   4
ATOM      3  C   UNL     1      34.286 -19.304 -21.255  0.00  0.00    -0.021 C 
ATOM      4  C   UNL     1      34.067 -16.955 -22.712  0.00  0.00    +0.035 C 
ATOM      5  C   UNL     1      33.853 -19.357 -22.571  0.00  0.00    -0.004 C 
ATOM      6  C   UNL     1      34.612 -18.097 -20.654  0.00  0.00    -0.004 C 
ATOM      7  C   UNL     1      33.744 -18.175 -23.304  0.00  0.00    +0.003 C 
ATOM      8  C   UNL     1      34.502 -16.915 -21.387  0.00  0.00    +0.003 C 
BRANCH   3   9
ATOM      9  C   UNL     1      34.406 -20.581 -20.463  0.00  0.00    +0.047 C 
BRANCH   9  14
ATOM     10  S   UNL     1      34.508 -21.622 -17.915  0.00  0.00    -0.048 S 
ATOM     11  O   UNL     1      31.474 -20.288 -19.893  0.00  0.00    -0.274 OA
ATOM     12  O   UNL     1      32.900 -23.321 -16.715  0.00  0.00    -0.263 OA
ATOM     13  N   UNL     1      31.991 -21.861 -18.278  0.00  0.00    -0.246 N 
ATOM     14  C   UNL     1      33.750 -20.467 -19.098  0.00  0.00    +0.137 C 
ATOM     15  C   UNL     1      32.285 -20.839 -19.156  0.00  0.00    +0.239 C 
ATOM     16  C   UNL     1      32.995 -22.414 -17.529  0.00  0.00    +0.279 C 
ATOM     17  H   UNL     1      31.068 -22.190 -18.191  0.00  0.00    +0.158 HD
ENDBRANCH   9  14
ENDBRANCH   3   9
ENDBRANCH   2   4
BRANCH   2  18
ATOM     18  C   UNL     1      34.000 -14.362 -22.754  0.00  0.00    +0.076 C 
BRANCH  18  19
ATOM     19  C   UNL     1      32.658 -13.625 -22.749  0.00  0.00    +0.066 C 
BRANCH  19  22
ATOM     20  O   UNL     1      32.908 -10.546 -24.697  0.00  0.00    -0.449 OA
ATOM     21  N   UNL     1      32.806 -11.166 -22.524  0.00  0.00    -0.373 NA
ATOM     22  C   UNL     1      32.762 -12.250 -23.340  0.00  0.00    +0.130 C 
ATOM     23  C   UNL     1      32.821 -11.905 -24.647  0.00  0.00    +0.216 C 
ATOM     24  C   UNL     1      32.894 -10.179 -23.387  0.00  0.00    +0.277 C 
ATOM     25  C   UNL     1      32.812 -12.620 -25.928  0.00  0.00    +0.055 C 
BRANCH  24  26
ATOM     26  C   UNL     1      32.975  -8.764 -23.148  0.00  0.00    +0.066 C 
ATOM     27  C   UNL     1      34.212  -8.115 -23.178  0.00  0.00    +0.006 C 
ATOM     28  C   UNL     1      31.816  -8.029 -22.882  0.00  0.00    +0.006 C 
ATOM     29  C   UNL     1      34.291  -6.742 -22.944  0.00  0.00    +0.000 C 
ATOM     30  C   UNL     1      31.895  -6.656 -22.648  0.00  0.00    +0.000 C 
ATOM     31  C   UNL     1      33.133  -6.013 -22.679  0.00  0.00    +0.000 C 
ENDBRANCH  24  26
ENDBRANCH  19  22
ENDBRANCH  18  19
ENDBRANCH   2  18
TORSDOF 7
ENDMDL
MODEL 6
REMARK VINA RESULT:     -11.6      1.562      2.282
REMARK  Name = 60870
REMARK  7 active torsions:
REMARK  status: ('A' for Active; 'I' for Inactive)
REMARK    1  A    between atoms: C_2  and  C_4
REMARK    2  A    between atoms: C_2  and  C_18
REMARK    3  A    between atoms: C_3  and  C_9
REMARK    4  A    between atoms: C_9  and  C_14
REMARK    5  A    between atoms: C_18  and  C_19
REMARK    6  A    between atoms: C_19  and  C_22
REMARK    7  A    between atoms: C_24  and  C_26
REMARK                            x       y       z     vdW  Elec       q    Type
REMARK                         _______ _______ _______ _____ _____    ______ ____
ROOT
ATOM      1  O   UNL     1      35.554 -21.688 -17.587  0.00  0.00    -0.291 OA
ATOM      2  C   UNL     1      34.648 -21.504 -18.425  0.00  0.00    +0.173 C 
ENDROOT
BRANCH   2   4
ATOM      3  C   UNL     1      34.919 -18.364 -21.244  0.00  0.00    -0.021 C 
ATOM      4  C   UNL     1      34.741 -20.424 -19.396  0.00  0.00    +0.035 C 
ATOM      5  C   UNL     1      36.036 -18.709 -20.499  0.00  0.00    -0.004 C 
ATOM      6  C   UNL     1      33.714 -19.031 -21.082  0.00  0.00    -0.004 C 
ATOM      7  C   UNL     1      35.947 -19.745 -19.569  0.00  0.00    +0.003 C 
ATOM      8  C   UNL     1      33.625 -20.068 -20.152  0.00  0.00    +0.003 C 
BRANCH   3   9
ATOM      9  C   UNL     1      35.016 -17.245 -22.249  0.00  0.00    +0.047 C 
BRANCH   9  14
ATOM     10  S   UNL     1      33.235 -16.837 -24.311  0.00  0.00    -0.048 S 
ATOM     11  O   UNL     1      33.938 -14.642 -21.215  0.00  0.00    -0.274 OA
ATOM     12  O   UNL     1      32.678 -14.650 -25.658  0.00  0.00    -0.263 OA
ATOM     13  N   UNL     1      33.280 -14.442 -23.423  0.00  0.00    -0.246 N 
ATOM     14  C   UNL     1      33.658 -16.636 -22.553  0.00  0.00    +0.137 C 
ATOM     15  C   UNL     1      33.651 -15.145 -22.296  0.00  0.00    +0.239 C 
ATOM     16  C   UNL     1      33.013 -15.122 -24.582  0.00  0.00    +0.279 C 
ATOM     17  H   UNL     1      33.208 -13.462 -23.395  0.00  0.00    +0.158 HD
ENDBRANCH   9  14
ENDBRANCH   3   9
ENDBRANCH   2   4
BRANCH   2  18
ATOM     18  C   UNL     1      33.421 -22.435 -18.427  0.00  0.00    +0.076 C 
BRANCH  18  19
ATOM     19  C   UNL     1      32.375 -22.070 -17.370  0.00  0.00    +0.066 C 
BRANCH  19  22
ATOM     20  O   UNL     1      32.305 -23.814 -14.163  0.00  0.00    -0.449 OA
ATOM     21  N   UNL     1      33.819 -23.255 -15.748  0.00  0.00    -0.373 NA
ATOM     22  C   UNL     1      32.580 -22.816 -16.085  0.00  0.00    +0.130 C 
ATOM     23  C   UNL     1      31.654 -23.139 -15.151  0.00  0.00    +0.216 C 
ATOM     24  C   UNL     1      33.596 -23.842 -14.594  0.00  0.00    +0.277 C 
ATOM     25  C   UNL     1      30.211 -22.937 -14.982  0.00  0.00    +0.055 C 
BRANCH  24  26
ATOM     26  C   UNL     1      34.518 -24.511 -13.719  0.00  0.00    +0.066 C 
ATOM     27  C   UNL     1      35.313 -25.555 -14.200  0.00  0.00    +0.006 C 
ATOM     28  C   UNL     1      34.625 -24.123 -12.380  0.00  0.00    +0.006 C 
ATOM     29  C   UNL     1      36.208 -26.206 -13.350  0.00  0.00    +0.000 C 
ATOM     30  C   UNL     1      35.520 -24.773 -11.530  0.00  0.00    +0.000 C 
ATOM     31  C   UNL     1      36.311 -25.815 -12.015  0.00  0.00    +0.000 C 
ENDBRANCH  24  26
ENDBRANCH  19  22
ENDBRANCH  18  19
ENDBRANCH   2  18
TORSDOF 7
ENDMDL
MODEL 7
REMARK VINA RESULT:     -11.6      3.261     10.268
REMARK  Name = 60870
REMARK  7 active torsions:
REMARK  status: ('A' for Active; 'I' for Inactive)
REMARK    1  A    between atoms: C_2  and  C_4
REMARK    2  A    between atoms: C_2  and  C_18
REMARK    3  A    between atoms: C_3  and  C_9
REMARK    4  A    between atoms: C_9  and  C_14
REMARK    5  A    between atoms: C_18  and  C_19
REMARK    6  A    between atoms: C_19  and  C_22
REMARK    7  A    between atoms: C_24  and  C_26
REMARK                            x       y       z     vdW  Elec       q    Type
REMARK                         _______ _______ _______ _____ _____    ______ ____
ROOT
ATOM      1  O   UNL     1      31.339 -23.108 -16.007  0.00  0.00    -0.291 OA
ATOM      2  C   UNL     1      32.557 -22.917 -16.201  0.00  0.00    +0.173 C 
ENDROOT
BRANCH   2   4
ATOM      3  C   UNL     1      35.290 -22.942 -12.974  0.00  0.00    -0.021 C 
ATOM      4  C   UNL     1      33.498 -22.926 -15.091  0.00  0.00    +0.035 C 
ATOM      5  C   UNL     1      34.010 -23.441 -12.787  0.00  0.00    -0.004 C 
ATOM      6  C   UNL     1      35.690 -22.435 -14.202  0.00  0.00    -0.004 C 
ATOM      7  C   UNL     1      33.108 -23.434 -13.852  0.00  0.00    +0.003 C 
ATOM      8  C   UNL     1      34.788 -22.428 -15.267  0.00  0.00    +0.003 C 
BRANCH   3   9
ATOM      9  C   UNL     1      36.264 -22.951 -11.824  0.00  0.00    +0.047 C 
BRANCH   9  14
ATOM     10  S   UNL     1      37.718 -24.774 -13.291  0.00  0.00    -0.048 S 
ATOM     11  O   UNL     1      35.323 -25.375 -10.325  0.00  0.00    -0.274 OA
ATOM     12  O   UNL     1      37.017 -27.118 -14.252  0.00  0.00    -0.263 OA
ATOM     13  N   UNL     1      36.063 -26.418 -12.251  0.00  0.00    -0.246 N 
ATOM     14  C   UNL     1      36.984 -24.283 -11.701  0.00  0.00    +0.137 C 
ATOM     15  C   UNL     1      36.028 -25.395 -11.328  0.00  0.00    +0.239 C 
ATOM     16  C   UNL     1      36.876 -26.307 -13.349  0.00  0.00    +0.279 C 
ATOM     17  H   UNL     1      35.510 -27.222 -12.123  0.00  0.00    +0.158 HD
ENDBRANCH   9  14
ENDBRANCH   3   9
ENDBRANCH   2   4
BRANCH   2  18
ATOM     18  C   UNL     1      33.062 -22.671 -17.635  0.00  0.00    +0.076 C 
BRANCH  18  19
ATOM     19  C   UNL     1      32.280 -21.585 -18.380  0.00  0.00    +0.066 C 
BRANCH  19  22
ATOM     20  O   UNL     1      34.885 -19.680 -20.089  0.00  0.00    -0.449 OA
ATOM     21  N   UNL     1      32.635 -19.907 -20.162  0.00  0.00    -0.373 NA
ATOM     22  C   UNL     1      33.173 -20.709 -19.208  0.00  0.00    +0.130 C 
ATOM     23  C   UNL     1      34.520 -20.591 -19.145  0.00  0.00    +0.216 C 
ATOM     24  C   UNL     1      33.701 -19.316 -20.654  0.00  0.00    +0.277 C 
ATOM     25  C   UNL     1      35.594 -21.187 -18.342  0.00  0.00    +0.055 C 
BRANCH  24  26
ATOM     26  C   UNL     1      33.799 -18.342 -21.706  0.00  0.00    +0.066 C 
ATOM     27  C   UNL     1      33.351 -18.648 -22.993  0.00  0.00    +0.006 C 
ATOM     28  C   UNL     1      34.346 -17.082 -21.447  0.00  0.00    +0.006 C 
ATOM     29  C   UNL     1      33.448 -17.703 -24.015  0.00  0.00    +0.000 C 
ATOM     30  C   UNL     1      34.442 -16.136 -22.468  0.00  0.00    +0.000 C 
ATOM     31  C   UNL     1      33.993 -16.447 -23.751  0.00  0.00    +0.000 C 
ENDBRANCH  24  26
ENDBRANCH  19  22
ENDBRANCH  18  19
ENDBRANCH   2  18
TORSDOF 7
ENDMDL
MODEL 8
REMARK VINA RESULT:     -11.5      3.702      9.955
REMARK  Name = 60870
REMARK  7 active torsions:
REMARK  status: ('A' for Active; 'I' for Inactive)
REMARK    1  A    between atoms: C_2  and  C_4
REMARK    2  A    between atoms: C_2  and  C_18
REMARK    3  A    between atoms: C_3  and  C_9
REMARK    4  A    between atoms: C_9  and  C_14
REMARK    5  A    between atoms: C_18  and  C_19
REMARK    6  A    between atoms: C_19  and  C_22
REMARK    7  A    between atoms: C_24  and  C_26
REMARK                            x       y       z     vdW  Elec       q    Type
REMARK                         _______ _______ _______ _____ _____    ______ ____
ROOT
ATOM      1  O   UNL     1      31.221 -23.629 -14.948  0.00  0.00    -0.291 OA
ATOM      2  C   UNL     1      32.233 -23.111 -15.461  0.00  0.00    +0.173 C 
ENDROOT
BRANCH   2   4
ATOM      3  C   UNL     1      36.074 -23.779 -13.823  0.00  0.00    -0.021 C 
ATOM      4  C   UNL     1      33.554 -23.341 -14.896  0.00  0.00    +0.035 C 
ATOM      5  C   UNL     1      35.579 -22.486 -13.894  0.00  0.00    -0.004 C 
ATOM      6  C   UNL     1      35.330 -24.857 -14.279  0.00  0.00    -0.004 C 
ATOM      7  C   UNL     1      34.312 -22.265 -14.434  0.00  0.00    +0.003 C 
ATOM      8  C   UNL     1      34.063 -24.637 -14.819  0.00  0.00    +0.003 C 
BRANCH   3   9
ATOM      9  C   UNL     1      37.443 -24.018 -13.239  0.00  0.00    +0.047 C 
BRANCH   9  14
ATOM     10  S   UNL     1      36.164 -25.580 -11.365  0.00  0.00    -0.048 S 
ATOM     11  O   UNL     1      37.505 -21.976 -11.041  0.00  0.00    -0.274 OA
ATOM     12  O   UNL     1      34.264 -24.961  -9.658  0.00  0.00    -0.263 OA
ATOM     13  N   UNL     1      35.815 -23.323 -10.221  0.00  0.00    -0.246 N 
ATOM     14  C   UNL     1      37.384 -24.284 -11.746  0.00  0.00    +0.137 C 
ATOM     15  C   UNL     1      36.934 -23.059 -10.983  0.00  0.00    +0.239 C 
ATOM     16  C   UNL     1      35.250 -24.571 -10.265  0.00  0.00    +0.279 C 
ATOM     17  H   UNL     1      35.425 -22.622  -9.651  0.00  0.00    +0.158 HD
ENDBRANCH   9  14
ENDBRANCH   3   9
ENDBRANCH   2   4
BRANCH   2  18
ATOM     18  C   UNL     1      32.074 -22.220 -16.708  0.00  0.00    +0.076 C 
BRANCH  18  19
ATOM     19  C   UNL     1      32.888 -22.704 -17.912  0.00  0.00    +0.066 C 
BRANCH  19  22
ATOM     20  O   UNL     1      35.173 -20.134 -19.140  0.00  0.00    -0.449 OA
ATOM     21  N   UNL     1      33.079 -20.876 -19.567  0.00  0.00    -0.373 NA
ATOM     22  C   UNL     1      33.652 -21.591 -18.566  0.00  0.00    +0.130 C 
ATOM     23  C   UNL     1      34.907 -21.166 -18.291  0.00  0.00    +0.216 C 
ATOM     24  C   UNL     1      34.031 -20.021 -19.870  0.00  0.00    +0.277 C 
ATOM     25  C   UNL     1      35.967 -21.545 -17.349  0.00  0.00    +0.055 C 
BRANCH  24  26
ATOM     26  C   UNL     1      34.040 -18.984 -20.864  0.00  0.00    +0.066 C 
ATOM     27  C   UNL     1      33.651 -19.263 -22.177  0.00  0.00    +0.006 C 
ATOM     28  C   UNL     1      34.443 -17.689 -20.524  0.00  0.00    +0.006 C 
ATOM     29  C   UNL     1      33.662 -18.256 -23.143  0.00  0.00    +0.000 C 
ATOM     30  C   UNL     1      34.454 -16.682 -21.490  0.00  0.00    +0.000 C 
ATOM     31  C   UNL     1      34.063 -16.966 -22.799  0.00  0.00    +0.000 C 
ENDBRANCH  24  26
ENDBRANCH  19  22
ENDBRANCH  18  19
ENDBRANCH   2  18
TORSDOF 7
ENDMDL
MODEL 9
REMARK VINA RESULT:     -11.5      5.928      9.941
REMARK  Name = 60870
REMARK  7 active torsions:
REMARK  status: ('A' for Active; 'I' for Inactive)
REMARK    1  A    between atoms: C_2  and  C_4
REMARK    2  A    between atoms: C_2  and  C_18
REMARK    3  A    between atoms: C_3  and  C_9
REMARK    4  A    between atoms: C_9  and  C_14
REMARK    5  A    between atoms: C_18  and  C_19
REMARK    6  A    between atoms: C_19  and  C_22
REMARK    7  A    between atoms: C_24  and  C_26
REMARK                            x       y       z     vdW  Elec       q    Type
REMARK                         _______ _______ _______ _____ _____    ______ ____
ROOT
ATOM      1  O   UNL     1      33.448 -14.826 -19.890  0.00  0.00    -0.291 OA
ATOM      2  C   UNL     1      33.107 -14.298 -20.968  0.00  0.00    +0.173 C 
ENDROOT
BRANCH   2   4
ATOM      3  C   UNL     1      30.976 -10.647 -21.011  0.00  0.00    -0.021 C 
ATOM      4  C   UNL     1      32.375 -13.041 -20.982  0.00  0.00    +0.035 C 
ATOM      5  C   UNL     1      30.779 -11.538 -19.968  0.00  0.00    -0.004 C 
ATOM      6  C   UNL     1      31.861 -10.931 -22.040  0.00  0.00    -0.004 C 
ATOM      7  C   UNL     1      31.482 -12.743 -19.953  0.00  0.00    +0.003 C 
ATOM      8  C   UNL     1      32.565 -12.136 -22.026  0.00  0.00    +0.003 C 
BRANCH   3   9
ATOM      9  C   UNL     1      30.217  -9.344 -21.026  0.00  0.00    +0.047 C 
BRANCH   9  14
ATOM     10  S   UNL     1      31.803  -7.890 -19.307  0.00  0.00    -0.048 S 
ATOM     11  O   UNL     1      29.812  -6.704 -22.394  0.00  0.00    -0.274 OA
ATOM     12  O   UNL     1      31.398  -5.532 -18.218  0.00  0.00    -0.263 OA
ATOM     13  N   UNL     1      30.531  -5.928 -20.338  0.00  0.00    -0.246 N 
ATOM     14  C   UNL     1      31.147  -8.145 -20.985  0.00  0.00    +0.137 C 
ATOM     15  C   UNL     1      30.418  -6.868 -21.341  0.00  0.00    +0.239 C 
ATOM     16  C   UNL     1      31.213  -6.245 -19.192  0.00  0.00    +0.279 C 
ATOM     17  H   UNL     1      30.126  -5.038 -20.444  0.00  0.00    +0.158 HD
ENDBRANCH   9  14
ENDBRANCH   3   9
ENDBRANCH   2   4
BRANCH   2  18
ATOM     18  C   UNL     1      33.473 -14.991 -22.295  0.00  0.00    +0.076 C 
BRANCH  18  19
ATOM     19  C   UNL     1      34.645 -15.968 -22.170  0.00  0.00    +0.066 C 
BRANCH  19  22
ATOM     20  O   UNL     1      33.370 -19.381 -21.929  0.00  0.00    -0.449 OA
ATOM     21  N   UNL     1      34.374 -17.855 -20.595  0.00  0.00    -0.373 NA
ATOM     22  C   UNL     1      34.193 -17.361 -21.845  0.00  0.00    +0.130 C 
ATOM     23  C   UNL     1      33.592 -18.256 -22.664  0.00  0.00    +0.216 C 
ATOM     24  C   UNL     1      33.865 -19.062 -20.702  0.00  0.00    +0.277 C 
ATOM     25  C   UNL     1      33.161 -18.279 -24.066  0.00  0.00    +0.055 C 
BRANCH  24  26
ATOM     26  C   UNL     1      33.756 -20.097 -19.711  0.00  0.00    +0.066 C 
ATOM     27  C   UNL     1      34.906 -20.647 -19.138  0.00  0.00    +0.006 C 
ATOM     28  C   UNL     1      32.498 -20.561 -19.315  0.00  0.00    +0.006 C 
ATOM     29  C   UNL     1      34.799 -21.652 -18.176  0.00  0.00    +0.000 C 
ATOM     30  C   UNL     1      32.391 -21.566 -18.354  0.00  0.00    +0.000 C 
ATOM     31  C   UNL     1      33.543 -22.111 -17.785  0.00  0.00    +0.000 C 
ENDBRANCH  24  26
ENDBRANCH  19  22
ENDBRANCH  18  19
ENDBRANCH   2  18
TORSDOF 7
ENDMDL
