MODEL 1
REMARK VINA RESULT:     -11.8      0.000      0.000
REMARK  Name = 11697676
REMARK  7 active torsions:
REMARK  status: ('A' for Active; 'I' for Inactive)
REMARK    1  A    between atoms: N_1  and  C_18
REMARK    2  A    between atoms: N_2  and  C_8
REMARK    3  A    between atoms: C_18  and  C_19
REMARK    4  A    between atoms: C_19  and  C_20
REMARK    5  A    between atoms: C_20  and  C_21
REMARK    6  A    between atoms: C_21  and  O_22
REMARK    7  A    between atoms: O_22  and  C_28
REMARK                            x       y       z     vdW  Elec       q    Type
REMARK                         _______ _______ _______ _____ _____    ______ ____
ROOT
ATOM      1  N   UNL     1      34.859 -20.691 -19.465  0.00  0.00    +0.389 N 
ATOM      2  N   UNL     1      34.375 -18.402 -21.104  0.00  0.00    -0.312 N 
ATOM      3  C   UNL     1      33.488 -20.215 -19.689  0.00  0.00    -0.055 C 
ATOM      4  C   UNL     1      35.786 -19.552 -19.445  0.00  0.00    -0.055 C 
ATOM      5  C   UNL     1      33.375 -19.474 -21.024  0.00  0.00    +0.068 C 
ATOM      6  C   UNL     1      35.748 -18.789 -20.771  0.00  0.00    +0.068 C 
ATOM      7  H   UNL     1      35.120 -21.315 -20.229  0.00  0.00    -0.080 HD
ENDROOT
BRANCH   2   8
ATOM      8  C   UNL     1      34.147 -17.358 -22.007  0.00  0.00    +0.048 C 
ATOM      9  C   UNL     1      33.872 -16.025 -21.591  0.00  0.00    +0.013 C 
ATOM     10  C   UNL     1      34.190 -17.630 -23.392  0.00  0.00    +0.015 C 
ATOM     11  C   UNL     1      33.649 -15.006 -22.547  0.00  0.00    +0.001 C 
ATOM     12  C   UNL     1      33.819 -15.708 -20.224  0.00  0.00    +0.001 C 
ATOM     13  C   UNL     1      33.972 -16.628 -24.333  0.00  0.00    +0.001 C 
ATOM     14  C   UNL     1      33.703 -15.324 -23.914  0.00  0.00    +0.000 C 
ATOM     15  C   UNL     1      33.380 -13.700 -22.109  0.00  0.00    +0.000 C 
ATOM     16  C   UNL     1      33.550 -14.404 -19.806  0.00  0.00    +0.000 C 
ATOM     17  C   UNL     1      33.331 -13.402 -20.747  0.00  0.00    +0.000 C 
ENDBRANCH   2   8
BRANCH   1  18
ATOM     18  C   UNL     1      34.943 -21.443 -18.214  0.00  0.00    -0.077 C 
BRANCH  18  19
ATOM     19  C   UNL     1      36.029 -20.857 -17.314  0.00  0.00    -0.019 C 
BRANCH  19  20
ATOM     20  C   UNL     1      36.457 -21.857 -16.241  0.00  0.00    +0.045 C 
BRANCH  20  21
ATOM     21  C   UNL     1      35.392 -22.016 -15.164  0.00  0.00    +0.208 C 
BRANCH  21  22
ATOM     22  O   UNL     1      34.791 -23.299 -15.266  0.00  0.00    -0.452 OA
BRANCH  22  28
ATOM     23  O   UNL     1      28.014 -22.092 -16.426  0.00  0.00    -0.275 OA
ATOM     24  N   UNL     1      30.228 -22.556 -16.025  0.00  0.00    -0.263 N 
ATOM     25  N   UNL     1      32.529 -22.936 -15.631  0.00  0.00    -0.357 NA
ATOM     26  C   UNL     1      30.912 -23.628 -13.973  0.00  0.00    +0.090 C 
ATOM     27  C   UNL     1      29.472 -23.816 -13.602  0.00  0.00    +0.022 C 
ATOM     28  C   UNL     1      33.500 -23.415 -14.821  0.00  0.00    +0.278 C 
ATOM     29  C   UNL     1      31.253 -23.040 -15.191  0.00  0.00    +0.170 C 
ATOM     30  C   UNL     1      28.614 -22.706 -14.187  0.00  0.00    +0.086 C 
ATOM     31  C   UNL     1      31.943 -24.123 -13.174  0.00  0.00    -0.012 C 
ATOM     32  C   UNL     1      33.262 -24.009 -13.595  0.00  0.00    +0.068 C 
ATOM     33  C   UNL     1      28.901 -22.455 -15.653  0.00  0.00    +0.228 C 
ATOM     34  H   UNL     1      30.472 -22.271 -16.935  0.00  0.00    +0.157 HD
ENDBRANCH  22  28
ENDBRANCH  21  22
ENDBRANCH  20  21
ENDBRANCH  19  20
ENDBRANCH  18  19
ENDBRANCH   1  18
TORSDOF 7
ENDMDL
MODEL 2
REMARK VINA RESULT:     -11.6      2.941      5.446
REMARK  Name = 11697676
REMARK  7 active torsions:
REMARK  status: ('A' for Active; 'I' for Inactive)
REMARK    1  A    between atoms: N_1  and  C_18
REMARK    2  A    between atoms: N_2  and  C_8
REMARK    3  A    between atoms: C_18  and  C_19
REMARK    4  A    between atoms: C_19  and  C_20
REMARK    5  A    between atoms: C_20  and  C_21
REMARK    6  A    between atoms: C_21  and  O_22
REMARK    7  A    between atoms: O_22  and  C_28
REMARK                            x       y       z     vdW  Elec       q    Type
REMARK                         _______ _______ _______ _____ _____    ______ ____
ROOT
ATOM      1  N   UNL     1      33.830 -15.669 -23.742  0.00  0.00    +0.389 N 
ATOM      2  N   UNL     1      32.950 -13.022 -23.127  0.00  0.00    -0.312 N 
ATOM      3  C   UNL     1      32.704 -15.072 -24.473  0.00  0.00    -0.055 C 
ATOM      4  C   UNL     1      33.837 -15.186 -22.356  0.00  0.00    -0.055 C 
ATOM      5  C   UNL     1      32.810 -13.545 -24.491  0.00  0.00    +0.068 C 
ATOM      6  C   UNL     1      33.980 -13.663 -22.305  0.00  0.00    +0.068 C 
ATOM      7  H   UNL     1      34.700 -15.389 -24.194  0.00  0.00    -0.080 HD
ENDROOT
BRANCH   2   8
ATOM      8  C   UNL     1      32.614 -11.682 -22.899  0.00  0.00    +0.048 C 
ATOM      9  C   UNL     1      31.838 -11.262 -21.783  0.00  0.00    +0.013 C 
ATOM     10  C   UNL     1      33.059 -10.701 -23.811  0.00  0.00    +0.015 C 
ATOM     11  C   UNL     1      31.526  -9.894 -21.600  0.00  0.00    +0.001 C 
ATOM     12  C   UNL     1      31.373 -12.203 -20.850  0.00  0.00    +0.001 C 
ATOM     13  C   UNL     1      32.753  -9.355 -23.631  0.00  0.00    +0.001 C 
ATOM     14  C   UNL     1      31.993  -8.953 -22.533  0.00  0.00    +0.000 C 
ATOM     15  C   UNL     1      30.759  -9.507 -20.490  0.00  0.00    +0.000 C 
ATOM     16  C   UNL     1      30.612 -11.801 -19.752  0.00  0.00    +0.000 C 
ATOM     17  C   UNL     1      30.305 -10.455 -19.572  0.00  0.00    +0.000 C 
ENDBRANCH   2   8
BRANCH   1  18
ATOM     18  C   UNL     1      33.747 -17.128 -23.777  0.00  0.00    -0.077 C 
BRANCH  18  19
ATOM     19  C   UNL     1      34.294 -17.722 -22.480  0.00  0.00    -0.019 C 
BRANCH  19  20
ATOM     20  C   UNL     1      33.568 -19.015 -22.115  0.00  0.00    +0.045 C 
BRANCH  20  21
ATOM     21  C   UNL     1      33.751 -19.367 -20.644  0.00  0.00    +0.208 C 
BRANCH  21  22
ATOM     22  O   UNL     1      32.655 -20.152 -20.196  0.00  0.00    -0.452 OA
BRANCH  22  28
ATOM     23  O   UNL     1      29.827 -23.418 -14.714  0.00  0.00    -0.275 OA
ATOM     24  N   UNL     1      30.798 -22.401 -16.530  0.00  0.00    -0.263 N 
ATOM     25  N   UNL     1      31.746 -21.268 -18.377  0.00  0.00    -0.357 NA
ATOM     26  C   UNL     1      33.197 -22.387 -16.800  0.00  0.00    +0.090 C 
ATOM     27  C   UNL     1      33.327 -23.293 -15.613  0.00  0.00    +0.022 C 
ATOM     28  C   UNL     1      32.851 -20.898 -19.063  0.00  0.00    +0.278 C 
ATOM     29  C   UNL     1      31.937 -21.997 -17.252  0.00  0.00    +0.170 C 
ATOM     30  C   UNL     1      32.195 -23.055 -14.626  0.00  0.00    +0.086 C 
ATOM     31  C   UNL     1      34.310 -21.996 -17.546  0.00  0.00    -0.012 C 
ATOM     32  C   UNL     1      34.141 -21.231 -18.692  0.00  0.00    +0.068 C 
ATOM     33  C   UNL     1      30.836 -23.014 -15.292  0.00  0.00    +0.228 C 
ATOM     34  H   UNL     1      29.915 -22.236 -16.933  0.00  0.00    +0.157 HD
ENDBRANCH  22  28
ENDBRANCH  21  22
ENDBRANCH  20  21
ENDBRANCH  19  20
ENDBRANCH  18  19
ENDBRANCH   1  18
TORSDOF 7
ENDMDL
MODEL 3
REMARK VINA RESULT:     -11.6      3.572     10.702
REMARK  Name = 11697676
REMARK  7 active torsions:
REMARK  status: ('A' for Active; 'I' for Inactive)
REMARK    1  A    between atoms: N_1  and  C_18
REMARK    2  A    between atoms: N_2  and  C_8
REMARK    3  A    between atoms: C_18  and  C_19
REMARK    4  A    between atoms: C_19  and  C_20
REMARK    5  A    between atoms: C_20  and  C_21
REMARK    6  A    between atoms: C_21  and  O_22
REMARK    7  A    between atoms: O_22  and  C_28
REMARK                            x       y       z     vdW  Elec       q    Type
REMARK                         _______ _______ _______ _____ _____    ______ ____
ROOT
ATOM      1  N   UNL     1      34.828 -21.649 -18.361  0.00  0.00    +0.389 N 
ATOM      2  N   UNL     1      33.373 -22.575 -16.085  0.00  0.00    -0.312 N 
ATOM      3  C   UNL     1      35.301 -21.346 -17.004  0.00  0.00    -0.055 C 
ATOM      4  C   UNL     1      33.361 -21.687 -18.382  0.00  0.00    -0.055 C 
ATOM      5  C   UNL     1      34.829 -22.409 -16.008  0.00  0.00    +0.068 C 
ATOM      6  C   UNL     1      32.825 -22.761 -17.432  0.00  0.00    +0.068 C 
ATOM      7  H   UNL     1      35.186 -22.563 -18.637  0.00  0.00    -0.080 HD
ENDROOT
BRANCH   2   8
ATOM      8  C   UNL     1      32.717 -23.142 -14.985  0.00  0.00    +0.048 C 
ATOM      9  C   UNL     1      31.302 -23.128 -14.841  0.00  0.00    +0.013 C 
ATOM     10  C   UNL     1      33.486 -23.754 -13.972  0.00  0.00    +0.015 C 
ATOM     11  C   UNL     1      30.690 -23.715 -13.709  0.00  0.00    +0.001 C 
ATOM     12  C   UNL     1      30.497 -22.530 -15.824  0.00  0.00    +0.001 C 
ATOM     13  C   UNL     1      32.884 -24.332 -12.858  0.00  0.00    +0.001 C 
ATOM     14  C   UNL     1      31.496 -24.314 -12.726  0.00  0.00    +0.000 C 
ATOM     15  C   UNL     1      29.291 -23.687 -13.592  0.00  0.00    +0.000 C 
ATOM     16  C   UNL     1      29.108 -22.511 -15.692  0.00  0.00    +0.000 C 
ATOM     17  C   UNL     1      28.506 -23.089 -14.578  0.00  0.00    +0.000 C 
ENDBRANCH   2   8
BRANCH   1  18
ATOM     18  C   UNL     1      35.330 -20.657 -19.312  0.00  0.00    -0.077 C 
BRANCH  18  19
ATOM     19  C   UNL     1      34.166 -19.950 -20.004  0.00  0.00    -0.019 C 
BRANCH  19  20
ATOM     20  C   UNL     1      34.655 -19.093 -21.170  0.00  0.00    +0.045 C 
BRANCH  20  21
ATOM     21  C   UNL     1      33.560 -18.875 -22.206  0.00  0.00    +0.208 C 
BRANCH  21  22
ATOM     22  O   UNL     1      34.057 -18.076 -23.271  0.00  0.00    -0.452 OA
BRANCH  22  28
ATOM     23  O   UNL     1      31.814 -12.290 -26.467  0.00  0.00    -0.275 OA
ATOM     24  N   UNL     1      32.513 -14.176 -25.359  0.00  0.00    -0.263 N 
ATOM     25  N   UNL     1      33.295 -16.139 -24.295  0.00  0.00    -0.357 NA
ATOM     26  C   UNL     1      33.326 -14.044 -23.089  0.00  0.00    +0.090 C 
ATOM     27  C   UNL     1      32.940 -12.596 -23.045  0.00  0.00    +0.022 C 
ATOM     28  C   UNL     1      33.818 -16.729 -23.197  0.00  0.00    +0.278 C 
ATOM     29  C   UNL     1      33.067 -14.806 -24.228  0.00  0.00    +0.170 C 
ATOM     30  C   UNL     1      33.032 -11.970 -24.427  0.00  0.00    +0.086 C 
ATOM     31  C   UNL     1      33.853 -14.694 -21.972  0.00  0.00    -0.012 C 
ATOM     32  C   UNL     1      34.114 -16.057 -22.024  0.00  0.00    +0.068 C 
ATOM     33  C   UNL     1      32.365 -12.810 -25.497  0.00  0.00    +0.228 C 
ATOM     34  H   UNL     1      32.210 -14.748 -26.101  0.00  0.00    +0.157 HD
ENDBRANCH  22  28
ENDBRANCH  21  22
ENDBRANCH  20  21
ENDBRANCH  19  20
ENDBRANCH  18  19
ENDBRANCH   1  18
TORSDOF 7
ENDMDL
MODEL 4
REMARK VINA RESULT:     -11.3      3.054      6.037
REMARK  Name = 11697676
REMARK  7 active torsions:
REMARK  status: ('A' for Active; 'I' for Inactive)
REMARK    1  A    between atoms: N_1  and  C_18
REMARK    2  A    between atoms: N_2  and  C_8
REMARK    3  A    between atoms: C_18  and  C_19
REMARK    4  A    between atoms: C_19  and  C_20
REMARK    5  A    between atoms: C_20  and  C_21
REMARK    6  A    between atoms: C_21  and  O_22
REMARK    7  A    between atoms: O_22  and  C_28
REMARK                            x       y       z     vdW  Elec       q    Type
REMARK                         _______ _______ _______ _____ _____    ______ ____
ROOT
ATOM      1  N   UNL     1      33.651 -15.556 -23.429  0.00  0.00    +0.389 N 
ATOM      2  N   UNL     1      32.875 -12.842 -22.989  0.00  0.00    -0.312 N 
ATOM      3  C   UNL     1      32.615 -14.936 -24.264  0.00  0.00    -0.055 C 
ATOM      4  C   UNL     1      33.587 -15.012 -22.066  0.00  0.00    -0.055 C 
ATOM      5  C   UNL     1      32.805 -13.418 -24.338  0.00  0.00    +0.068 C 
ATOM      6  C   UNL     1      33.808 -13.498 -22.068  0.00  0.00    +0.068 C 
ATOM      7  H   UNL     1      34.566 -15.341 -23.826  0.00  0.00    -0.080 HD
ENDROOT
BRANCH   2   8
ATOM      8  C   UNL     1      32.597 -11.478 -22.842  0.00  0.00    +0.048 C 
ATOM      9  C   UNL     1      31.783 -10.967 -21.793  0.00  0.00    +0.013 C 
ATOM     10  C   UNL     1      33.144 -10.565 -23.770  0.00  0.00    +0.015 C 
ATOM     11  C   UNL     1      31.533  -9.579 -21.691  0.00  0.00    +0.001 C 
ATOM     12  C   UNL     1      31.218 -11.839 -20.848  0.00  0.00    +0.001 C 
ATOM     13  C   UNL     1      32.899  -9.198 -23.668  0.00  0.00    +0.001 C 
ATOM     14  C   UNL     1      32.099  -8.708 -22.636  0.00  0.00    +0.000 C 
ATOM     15  C   UNL     1      30.725  -9.101 -20.646  0.00  0.00    +0.000 C 
ATOM     16  C   UNL     1      30.417 -11.347 -19.816  0.00  0.00    +0.000 C 
ATOM     17  C   UNL     1      30.171  -9.981 -19.715  0.00  0.00    +0.000 C 
ENDBRANCH   2   8
BRANCH   1  18
ATOM     18  C   UNL     1      33.492 -17.009 -23.410  0.00  0.00    -0.077 C 
BRANCH  18  19
ATOM     19  C   UNL     1      34.403 -17.629 -22.351  0.00  0.00    -0.019 C 
BRANCH  19  20
ATOM     20  C   UNL     1      34.059 -19.099 -22.118  0.00  0.00    +0.045 C 
BRANCH  20  21
ATOM     21  C   UNL     1      33.757 -19.380 -20.652  0.00  0.00    +0.208 C 
BRANCH  21  22
ATOM     22  O   UNL     1      34.740 -20.255 -20.116  0.00  0.00    -0.452 OA
BRANCH  22  28
ATOM     23  O   UNL     1      36.754 -22.671 -13.885  0.00  0.00    -0.275 OA
ATOM     24  N   UNL     1      36.032 -21.851 -15.905  0.00  0.00    -0.263 N 
ATOM     25  N   UNL     1      35.369 -21.050 -18.030  0.00  0.00    -0.357 NA
ATOM     26  C   UNL     1      33.785 -22.278 -16.678  0.00  0.00    +0.090 C 
ATOM     27  C   UNL     1      33.462 -22.913 -15.359  0.00  0.00    +0.022 C 
ATOM     28  C   UNL     1      34.408 -20.934 -18.973  0.00  0.00    +0.278 C 
ATOM     29  C   UNL     1      35.047 -21.728 -16.903  0.00  0.00    +0.170 C 
ATOM     30  C   UNL     1      34.699 -23.552 -14.750  0.00  0.00    +0.086 C 
ATOM     31  C   UNL     1      32.817 -22.123 -17.671  0.00  0.00    -0.012 C 
ATOM     32  C   UNL     1      33.131 -21.449 -18.845  0.00  0.00    +0.068 C 
ATOM     33  C   UNL     1      35.905 -22.636 -14.775  0.00  0.00    +0.228 C 
ATOM     34  H   UNL     1      36.868 -21.343 -16.019  0.00  0.00    +0.157 HD
ENDBRANCH  22  28
ENDBRANCH  21  22
ENDBRANCH  20  21
ENDBRANCH  19  20
ENDBRANCH  18  19
ENDBRANCH   1  18
TORSDOF 7
ENDMDL
MODEL 5
REMARK VINA RESULT:     -11.3      2.315      4.334
REMARK  Name = 11697676
REMARK  7 active torsions:
REMARK  status: ('A' for Active; 'I' for Inactive)
REMARK    1  A    between atoms: N_1  and  C_18
REMARK    2  A    between atoms: N_2  and  C_8
REMARK    3  A    between atoms: C_18  and  C_19
REMARK    4  A    between atoms: C_19  and  C_20
REMARK    5  A    between atoms: C_20  and  C_21
REMARK    6  A    between atoms: C_21  and  O_22
REMARK    7  A    between atoms: O_22  and  C_28
REMARK                            x       y       z     vdW  Elec       q    Type
REMARK                         _______ _______ _______ _____ _____    ______ ____
ROOT
ATOM      1  N   UNL     1      34.651 -20.496 -19.843  0.00  0.00    +0.389 N 
ATOM      2  N   UNL     1      34.261 -18.099 -21.346  0.00  0.00    -0.312 N 
ATOM      3  C   UNL     1      33.297 -19.976 -20.072  0.00  0.00    -0.055 C 
ATOM      4  C   UNL     1      35.601 -19.383 -19.726  0.00  0.00    -0.055 C 
ATOM      5  C   UNL     1      33.237 -19.151 -21.360  0.00  0.00    +0.068 C 
ATOM      6  C   UNL     1      35.616 -18.538 -21.003  0.00  0.00    +0.068 C 
ATOM      7  H   UNL     1      34.919 -21.077 -20.638  0.00  0.00    -0.080 HD
ENDROOT
BRANCH   2   8
ATOM      8  C   UNL     1      34.081 -16.995 -22.188  0.00  0.00    +0.048 C 
ATOM      9  C   UNL     1      33.806 -15.689 -21.696  0.00  0.00    +0.013 C 
ATOM     10  C   UNL     1      34.174 -17.178 -23.584  0.00  0.00    +0.015 C 
ATOM     11  C   UNL     1      33.632 -14.607 -22.592  0.00  0.00    +0.001 C 
ATOM     12  C   UNL     1      33.704 -15.460 -20.314  0.00  0.00    +0.001 C 
ATOM     13  C   UNL     1      34.004 -16.114 -24.466  0.00  0.00    +0.001 C 
ATOM     14  C   UNL     1      33.735 -14.837 -23.974  0.00  0.00    +0.000 C 
ATOM     15  C   UNL     1      33.362 -13.328 -22.080  0.00  0.00    +0.000 C 
ATOM     16  C   UNL     1      33.435 -14.182 -19.823  0.00  0.00    +0.000 C 
ATOM     17  C   UNL     1      33.264 -13.118 -20.704  0.00  0.00    +0.000 C 
ENDBRANCH   2   8
BRANCH   1  18
ATOM     18  C   UNL     1      34.684 -21.327 -18.640  0.00  0.00    -0.077 C 
BRANCH  18  19
ATOM     19  C   UNL     1      33.269 -21.548 -18.108  0.00  0.00    -0.019 C 
BRANCH  19  20
ATOM     20  C   UNL     1      33.052 -23.004 -17.701  0.00  0.00    +0.045 C 
BRANCH  20  21
ATOM     21  C   UNL     1      32.653 -23.125 -16.236  0.00  0.00    +0.208 C 
BRANCH  21  22
ATOM     22  O   UNL     1      33.532 -22.351 -15.432  0.00  0.00    -0.452 OA
BRANCH  22  28
ATOM     23  O   UNL     1      39.889 -25.006 -14.300  0.00  0.00    -0.275 OA
ATOM     24  N   UNL     1      37.798 -24.105 -14.606  0.00  0.00    -0.263 N 
ATOM     25  N   UNL     1      35.641 -23.224 -15.013  0.00  0.00    -0.357 NA
ATOM     26  C   UNL     1      36.070 -24.403 -12.947  0.00  0.00    +0.090 C 
ATOM     27  C   UNL     1      37.069 -25.052 -12.036  0.00  0.00    +0.022 C 
ATOM     28  C   UNL     1      34.370 -23.039 -14.592  0.00  0.00    +0.278 C 
ATOM     29  C   UNL     1      36.468 -23.911 -14.190  0.00  0.00    +0.170 C 
ATOM     30  C   UNL     1      38.147 -25.765 -12.838  0.00  0.00    +0.086 C 
ATOM     31  C   UNL     1      34.753 -24.178 -12.544  0.00  0.00    -0.012 C 
ATOM     32  C   UNL     1      33.881 -23.494 -13.380  0.00  0.00    +0.068 C 
ATOM     33  C   UNL     1      38.712 -24.908 -13.952  0.00  0.00    +0.228 C 
ATOM     34  H   UNL     1      38.098 -23.636 -15.419  0.00  0.00    +0.157 HD
ENDBRANCH  22  28
ENDBRANCH  21  22
ENDBRANCH  20  21
ENDBRANCH  19  20
ENDBRANCH  18  19
ENDBRANCH   1  18
TORSDOF 7
ENDMDL
MODEL 6
REMARK VINA RESULT:     -11.2      3.232      5.738
REMARK  Name = 11697676
REMARK  7 active torsions:
REMARK  status: ('A' for Active; 'I' for Inactive)
REMARK    1  A    between atoms: N_1  and  C_18
REMARK    2  A    between atoms: N_2  and  C_8
REMARK    3  A    between atoms: C_18  and  C_19
REMARK    4  A    between atoms: C_19  and  C_20
REMARK    5  A    between atoms: C_20  and  C_21
REMARK    6  A    between atoms: C_21  and  O_22
REMARK    7  A    between atoms: O_22  and  C_28
REMARK                            x       y       z     vdW  Elec       q    Type
REMARK                         _______ _______ _______ _____ _____    ______ ____
ROOT
ATOM      1  N   UNL     1      33.322 -15.480 -22.802  0.00  0.00    +0.389 N 
ATOM      2  N   UNL     1      32.632 -12.742 -22.369  0.00  0.00    -0.312 N 
ATOM      3  C   UNL     1      33.786 -14.779 -21.598  0.00  0.00    -0.055 C 
ATOM      4  C   UNL     1      33.253 -14.543 -23.931  0.00  0.00    -0.055 C 
ATOM      5  C   UNL     1      32.834 -13.640 -21.225  0.00  0.00    +0.068 C 
ATOM      6  C   UNL     1      32.284 -13.396 -23.634  0.00  0.00    +0.068 C 
ATOM      7  H   UNL     1      32.389 -15.853 -22.627  0.00  0.00    -0.080 HD
ENDROOT
BRANCH   2   8
ATOM      8  C   UNL     1      32.181 -11.442 -22.113  0.00  0.00    +0.048 C 
ATOM      9  C   UNL     1      32.707 -10.300 -22.779  0.00  0.00    +0.013 C 
ATOM     10  C   UNL     1      31.163 -11.248 -21.154  0.00  0.00    +0.015 C 
ATOM     11  C   UNL     1      32.215  -9.007 -22.481  0.00  0.00    +0.001 C 
ATOM     12  C   UNL     1      33.720 -10.445 -23.739  0.00  0.00    +0.001 C 
ATOM     13  C   UNL     1      30.679  -9.976 -20.862  0.00  0.00    +0.001 C 
ATOM     14  C   UNL     1      31.200  -8.863 -21.520  0.00  0.00    +0.000 C 
ATOM     15  C   UNL     1      32.751  -7.897 -23.153  0.00  0.00    +0.000 C 
ATOM     16  C   UNL     1      34.242  -9.331 -24.398  0.00  0.00    +0.000 C 
ATOM     17  C   UNL     1      33.758  -8.059 -24.105  0.00  0.00    +0.000 C 
ENDBRANCH   2   8
BRANCH   1  18
ATOM     18  C   UNL     1      34.209 -16.599 -23.118  0.00  0.00    -0.077 C 
BRANCH  18  19
ATOM     19  C   UNL     1      34.541 -17.387 -21.852  0.00  0.00    -0.019 C 
BRANCH  19  20
ATOM     20  C   UNL     1      33.831 -18.739 -21.841  0.00  0.00    +0.045 C 
BRANCH  20  21
ATOM     21  C   UNL     1      34.084 -19.497 -20.544  0.00  0.00    +0.208 C 
BRANCH  21  22
ATOM     22  O   UNL     1      32.929 -20.244 -20.189  0.00  0.00    -0.452 OA
BRANCH  22  28
ATOM     23  O   UNL     1      29.511 -23.297 -14.924  0.00  0.00    -0.275 OA
ATOM     24  N   UNL     1      30.675 -22.352 -16.664  0.00  0.00    -0.263 N 
ATOM     25  N   UNL     1      31.824 -21.291 -18.439  0.00  0.00    -0.357 NA
ATOM     26  C   UNL     1      33.087 -22.432 -16.723  0.00  0.00    +0.090 C 
ATOM     27  C   UNL     1      33.078 -23.318 -15.514  0.00  0.00    +0.022 C 
ATOM     28  C   UNL     1      32.997 -20.975 -19.031  0.00  0.00    +0.278 C 
ATOM     29  C   UNL     1      31.887 -22.005 -17.290  0.00  0.00    +0.170 C 
ATOM     30  C   UNL     1      31.875 -23.020 -14.634  0.00  0.00    +0.086 C 
ATOM     31  C   UNL     1      34.275 -22.096 -17.374  0.00  0.00    -0.012 C 
ATOM     32  C   UNL     1      34.236 -21.347 -18.543  0.00  0.00    +0.068 C 
ATOM     33  C   UNL     1      30.581 -22.942 -15.418  0.00  0.00    +0.228 C 
ATOM     34  H   UNL     1      29.838 -22.162 -17.146  0.00  0.00    +0.157 HD
ENDBRANCH  22  28
ENDBRANCH  21  22
ENDBRANCH  20  21
ENDBRANCH  19  20
ENDBRANCH  18  19
ENDBRANCH   1  18
TORSDOF 7
ENDMDL
MODEL 7
REMARK VINA RESULT:     -11.2      1.964      3.613
REMARK  Name = 11697676
REMARK  7 active torsions:
REMARK  status: ('A' for Active; 'I' for Inactive)
REMARK    1  A    between atoms: N_1  and  C_18
REMARK    2  A    between atoms: N_2  and  C_8
REMARK    3  A    between atoms: C_18  and  C_19
REMARK    4  A    between atoms: C_19  and  C_20
REMARK    5  A    between atoms: C_20  and  C_21
REMARK    6  A    between atoms: C_21  and  O_22
REMARK    7  A    between atoms: O_22  and  C_28
REMARK                            x       y       z     vdW  Elec       q    Type
REMARK                         _______ _______ _______ _____ _____    ______ ____
ROOT
ATOM      1  N   UNL     1      34.470 -17.383 -22.224  0.00  0.00    +0.389 N 
ATOM      2  N   UNL     1      33.474 -14.715 -22.447  0.00  0.00    -0.312 N 
ATOM      3  C   UNL     1      33.635 -16.996 -23.368  0.00  0.00    -0.055 C 
ATOM      4  C   UNL     1      34.052 -16.643 -21.027  0.00  0.00    -0.055 C 
ATOM      5  C   UNL     1      33.759 -15.498 -23.656  0.00  0.00    +0.068 C 
ATOM      6  C   UNL     1      34.189 -15.133 -21.238  0.00  0.00    +0.068 C 
ATOM      7  H   UNL     1      35.442 -17.151 -22.432  0.00  0.00    -0.080 HD
ENDROOT
BRANCH   2   8
ATOM      8  C   UNL     1      33.099 -13.376 -22.604  0.00  0.00    +0.048 C 
ATOM      9  C   UNL     1      32.281 -12.690 -21.664  0.00  0.00    +0.013 C 
ATOM     10  C   UNL     1      33.548 -12.669 -23.741  0.00  0.00    +0.015 C 
ATOM     11  C   UNL     1      31.931 -11.335 -21.872  0.00  0.00    +0.001 C 
ATOM     12  C   UNL     1      31.811 -13.353 -20.519  0.00  0.00    +0.001 C 
ATOM     13  C   UNL     1      33.205 -11.336 -23.945  0.00  0.00    +0.001 C 
ATOM     14  C   UNL     1      32.402 -10.672 -23.018  0.00  0.00    +0.000 C 
ATOM     15  C   UNL     1      31.122 -10.682 -20.928  0.00  0.00    +0.000 C 
ATOM     16  C   UNL     1      31.008 -12.688 -19.591  0.00  0.00    +0.000 C 
ATOM     17  C   UNL     1      30.664 -11.355 -19.796  0.00  0.00    +0.000 C 
ENDBRANCH   2   8
BRANCH   1  18
ATOM     18  C   UNL     1      34.386 -18.824 -21.992  0.00  0.00    -0.077 C 
BRANCH  18  19
ATOM     19  C   UNL     1      33.468 -19.118 -20.806  0.00  0.00    -0.019 C 
BRANCH  19  20
ATOM     20  C   UNL     1      34.054 -20.208 -19.911  0.00  0.00    +0.045 C 
BRANCH  20  21
ATOM     21  C   UNL     1      32.970 -20.936 -19.127  0.00  0.00    +0.208 C 
BRANCH  21  22
ATOM     22  O   UNL     1      33.556 -21.939 -18.310  0.00  0.00    -0.452 OA
BRANCH  22  28
ATOM     23  O   UNL     1      27.378 -22.557 -15.119  0.00  0.00    -0.275 OA
ATOM     24  N   UNL     1      29.428 -22.420 -16.147  0.00  0.00    -0.263 N 
ATOM     25  N   UNL     1      31.517 -22.181 -17.229  0.00  0.00    -0.357 NA
ATOM     26  C   UNL     1      31.444 -23.022 -14.964  0.00  0.00    +0.090 C 
ATOM     27  C   UNL     1      30.614 -23.502 -13.812  0.00  0.00    +0.022 C 
ATOM     28  C   UNL     1      32.863 -22.304 -17.185  0.00  0.00    +0.278 C 
ATOM     29  C   UNL     1      30.830 -22.531 -16.116  0.00  0.00    +0.170 C 
ATOM     30  C   UNL     1      29.317 -22.716 -13.717  0.00  0.00    +0.086 C 
ATOM     31  C   UNL     1      32.834 -23.148 -14.966  0.00  0.00    -0.012 C 
ATOM     32  C   UNL     1      33.562 -22.775 -16.089  0.00  0.00    +0.068 C 
ATOM     33  C   UNL     1      28.607 -22.594 -15.050  0.00  0.00    +0.228 C 
ATOM     34  H   UNL     1      29.002 -22.203 -17.008  0.00  0.00    +0.157 HD
ENDBRANCH  22  28
ENDBRANCH  21  22
ENDBRANCH  20  21
ENDBRANCH  19  20
ENDBRANCH  18  19
ENDBRANCH   1  18
TORSDOF 7
ENDMDL
MODEL 8
REMARK VINA RESULT:     -11.1      6.984     11.587
REMARK  Name = 11697676
REMARK  7 active torsions:
REMARK  status: ('A' for Active; 'I' for Inactive)
REMARK    1  A    between atoms: N_1  and  C_18
REMARK    2  A    between atoms: N_2  and  C_8
REMARK    3  A    between atoms: C_18  and  C_19
REMARK    4  A    between atoms: C_19  and  C_20
REMARK    5  A    between atoms: C_20  and  C_21
REMARK    6  A    between atoms: C_21  and  O_22
REMARK    7  A    between atoms: O_22  and  C_28
REMARK                            x       y       z     vdW  Elec       q    Type
REMARK                         _______ _______ _______ _____ _____    ______ ____
ROOT
ATOM      1  N   UNL     1      30.775  -8.780 -19.765  0.00  0.00    +0.389 N 
ATOM      2  N   UNL     1      31.034  -6.548 -21.527  0.00  0.00    -0.312 N 
ATOM      3  C   UNL     1      31.773  -7.737 -19.499  0.00  0.00    -0.055 C 
ATOM      4  C   UNL     1      30.607  -8.953 -21.213  0.00  0.00    -0.055 C 
ATOM      5  C   UNL     1      31.340  -6.397 -20.099  0.00  0.00    +0.068 C 
ATOM      6  C   UNL     1      30.136  -7.653 -21.870  0.00  0.00    +0.068 C 
ATOM      7  H   UNL     1      29.883  -8.494 -19.361  0.00  0.00    -0.080 HD
ENDROOT
BRANCH   2   8
ATOM      8  C   UNL     1      31.063  -5.401 -22.329  0.00  0.00    +0.048 C 
ATOM      9  C   UNL     1      32.068  -5.172 -23.310  0.00  0.00    +0.013 C 
ATOM     10  C   UNL     1      30.055  -4.426 -22.164  0.00  0.00    +0.015 C 
ATOM     11  C   UNL     1      32.049  -3.995 -24.095  0.00  0.00    +0.001 C 
ATOM     12  C   UNL     1      33.090  -6.114 -23.509  0.00  0.00    +0.001 C 
ATOM     13  C   UNL     1      30.037  -3.268 -22.937  0.00  0.00    +0.001 C 
ATOM     14  C   UNL     1      31.026  -3.053 -23.896  0.00  0.00    +0.000 C 
ATOM     15  C   UNL     1      33.053  -3.794 -25.056  0.00  0.00    +0.000 C 
ATOM     16  C   UNL     1      34.080  -5.899 -24.469  0.00  0.00    +0.000 C 
ATOM     17  C   UNL     1      34.062  -4.740 -25.240  0.00  0.00    +0.000 C 
ENDBRANCH   2   8
BRANCH   1  18
ATOM     18  C   UNL     1      31.173 -10.042 -19.141  0.00  0.00    -0.077 C 
BRANCH  18  19
ATOM     19  C   UNL     1      30.416 -11.209 -19.772  0.00  0.00    -0.019 C 
BRANCH  19  20
ATOM     20  C   UNL     1      31.334 -12.408 -19.995  0.00  0.00    +0.045 C 
BRANCH  20  21
ATOM     21  C   UNL     1      31.738 -12.545 -21.457  0.00  0.00    +0.208 C 
BRANCH  21  22
ATOM     22  O   UNL     1      33.115 -12.880 -21.548  0.00  0.00    -0.452 OA
BRANCH  22  28
ATOM     23  O   UNL     1      35.221 -19.290 -19.759  0.00  0.00    -0.275 OA
ATOM     24  N   UNL     1      34.476 -17.210 -20.387  0.00  0.00    -0.263 N 
ATOM     25  N   UNL     1      33.789 -15.027 -20.984  0.00  0.00    -0.357 NA
ATOM     26  C   UNL     1      34.024 -16.709 -22.705  0.00  0.00    +0.090 C 
ATOM     27  C   UNL     1      34.265 -18.147 -23.053  0.00  0.00    +0.022 C 
ATOM     28  C   UNL     1      33.417 -14.155 -21.948  0.00  0.00    +0.278 C 
ATOM     29  C   UNL     1      34.096 -16.286 -21.378  0.00  0.00    +0.170 C 
ATOM     30  C   UNL     1      35.270 -18.772 -22.099  0.00  0.00    +0.086 C 
ATOM     31  C   UNL     1      33.622 -15.781 -23.666  0.00  0.00    -0.012 C 
ATOM     32  C   UNL     1      33.321 -14.479 -23.290  0.00  0.00    +0.068 C 
ATOM     33  C   UNL     1      34.961 -18.477 -20.646  0.00  0.00    +0.228 C 
ATOM     34  H   UNL     1      34.390 -16.936 -19.445  0.00  0.00    +0.157 HD
ENDBRANCH  22  28
ENDBRANCH  21  22
ENDBRANCH  20  21
ENDBRANCH  19  20
ENDBRANCH  18  19
ENDBRANCH   1  18
TORSDOF 7
ENDMDL
MODEL 9
REMARK VINA RESULT:     -11.0      2.181      3.732
REMARK  Name = 11697676
REMARK  7 active torsions:
REMARK  status: ('A' for Active; 'I' for Inactive)
REMARK    1  A    between atoms: N_1  and  C_18
REMARK    2  A    between atoms: N_2  and  C_8
REMARK    3  A    between atoms: C_18  and  C_19
REMARK    4  A    between atoms: C_19  and  C_20
REMARK    5  A    between atoms: C_20  and  C_21
REMARK    6  A    between atoms: C_21  and  O_22
REMARK    7  A    between atoms: O_22  and  C_28
REMARK                            x       y       z     vdW  Elec       q    Type
REMARK                         _______ _______ _______ _____ _____    ______ ____
ROOT
ATOM      1  N   UNL     1      34.901 -20.312 -20.001  0.00  0.00    +0.389 N 
ATOM      2  N   UNL     1      34.336 -17.928 -21.468  0.00  0.00    -0.312 N 
ATOM      3  C   UNL     1      33.512 -19.902 -20.244  0.00  0.00    -0.055 C 
ATOM      4  C   UNL     1      35.752 -19.126 -19.848  0.00  0.00    -0.055 C 
ATOM      5  C   UNL     1      33.404 -19.060 -21.519  0.00  0.00    +0.068 C 
ATOM      6  C   UNL     1      35.718 -18.259 -21.109  0.00  0.00    +0.068 C 
ATOM      7  H   UNL     1      35.229 -20.854 -20.800  0.00  0.00    -0.080 HD
ENDROOT
BRANCH   2   8
ATOM      8  C   UNL     1      34.078 -16.827 -22.293  0.00  0.00    +0.048 C 
ATOM      9  C   UNL     1      33.748 -15.541 -21.781  0.00  0.00    +0.013 C 
ATOM     10  C   UNL     1      34.147 -16.991 -23.694  0.00  0.00    +0.015 C 
ATOM     11  C   UNL     1      33.496 -14.462 -22.660  0.00  0.00    +0.001 C 
ATOM     12  C   UNL     1      33.668 -15.331 -20.395  0.00  0.00    +0.001 C 
ATOM     13  C   UNL     1      33.900 -15.929 -24.559  0.00  0.00    +0.001 C 
ATOM     14  C   UNL     1      33.577 -14.673 -24.047  0.00  0.00    +0.000 C 
ATOM     15  C   UNL     1      33.172 -13.204 -22.128  0.00  0.00    +0.000 C 
ATOM     16  C   UNL     1      33.344 -14.074 -19.883  0.00  0.00    +0.000 C 
ATOM     17  C   UNL     1      33.096 -13.012 -20.748  0.00  0.00    +0.000 C 
ENDBRANCH   2   8
BRANCH   1  18
ATOM     18  C   UNL     1      34.983 -21.160 -18.812  0.00  0.00    -0.077 C 
BRANCH  18  19
ATOM     19  C   UNL     1      33.596 -21.360 -18.205  0.00  0.00    -0.019 C 
BRANCH  19  20
ATOM     20  C   UNL     1      33.152 -22.818 -18.307  0.00  0.00    +0.045 C 
BRANCH  20  21
ATOM     21  C   UNL     1      32.713 -23.368 -16.957  0.00  0.00    +0.208 C 
BRANCH  21  22
ATOM     22  O   UNL     1      32.998 -22.423 -15.935  0.00  0.00    -0.452 OA
BRANCH  22  28
ATOM     23  O   UNL     1      34.448 -24.993  -9.608  0.00  0.00    -0.275 OA
ATOM     24  N   UNL     1      34.021 -24.191 -11.718  0.00  0.00    -0.263 N 
ATOM     25  N   UNL     1      33.516 -23.297 -13.849  0.00  0.00    -0.357 NA
ATOM     26  C   UNL     1      35.825 -23.487 -13.160  0.00  0.00    +0.090 C 
ATOM     27  C   UNL     1      36.814 -23.992 -12.153  0.00  0.00    +0.022 C 
ATOM     28  C   UNL     1      33.953 -22.774 -15.016  0.00  0.00    +0.278 C 
ATOM     29  C   UNL     1      34.456 -23.635 -12.936  0.00  0.00    +0.170 C 
ATOM     30  C   UNL     1      36.250 -23.893 -10.745  0.00  0.00    +0.086 C 
ATOM     31  C   UNL     1      36.234 -22.957 -14.384  0.00  0.00    -0.012 C 
ATOM     32  C   UNL     1      35.287 -22.583 -15.328  0.00  0.00    +0.068 C 
ATOM     33  C   UNL     1      34.843 -24.444 -10.637  0.00  0.00    +0.228 C 
ATOM     34  H   UNL     1      33.066 -24.414 -11.630  0.00  0.00    +0.157 HD
ENDBRANCH  22  28
ENDBRANCH  21  22
ENDBRANCH  20  21
ENDBRANCH  19  20
ENDBRANCH  18  19
ENDBRANCH   1  18
TORSDOF 7
ENDMDL
