MODEL 1
REMARK VINA RESULT:     -11.3      0.000      0.000
REMARK  Name = 491941
REMARK  5 active torsions:
REMARK  status: ('A' for Active; 'I' for Inactive)
REMARK    1  A    between atoms: C_5  and  C_17
REMARK    2  A    between atoms: C_7  and  S_11
REMARK    3  A    between atoms: S_11  and  N_14
REMARK    4  A    between atoms: C_17  and  C_18
REMARK    5  A    between atoms: C_21  and  C_25
REMARK                            x       y       z     vdW  Elec       q    Type
REMARK                         _______ _______ _______ _____ _____    ______ ____
ROOT
ATOM      1  S   UNL     1      33.575 -24.164 -12.935  0.00  0.00    -0.035 S 
ATOM      2  O   UNL     1      34.851 -22.336 -16.730  0.00  0.00    -0.274 OA
ATOM      3  N   UNL     1      33.158 -22.915 -15.201  0.00  0.00    -0.227 N 
ATOM      4  N   UNL     1      35.148 -22.382 -13.952  0.00  0.00    -0.386 NA
ATOM      5  C   UNL     1      33.664 -22.558 -16.475  0.00  0.00    +0.236 C 
ATOM      6  C   UNL     1      34.058 -23.038 -14.100  0.00  0.00    +0.217 C 
ATOM      7  C   UNL     1      35.000 -23.764 -12.070  0.00  0.00    +0.247 C 
ATOM      8  C   UNL     1      35.707 -22.803 -12.761  0.00  0.00    +0.123 C 
ATOM      9  C   UNL     1      31.722 -23.161 -14.987  0.00  0.00    +0.123 C 
ATOM     10  C   UNL     1      36.988 -22.201 -12.339  0.00  0.00    +0.064 C 
ENDROOT
BRANCH   7  11
ATOM     11  S   UNL     1      35.234 -24.624 -10.560  0.00  0.00    +0.052 S 
ATOM     12  O   UNL     1      36.153 -23.811  -9.769  0.00  0.00    -0.157 OA
ATOM     13  O   UNL     1      33.891 -24.910 -10.069  0.00  0.00    -0.157 OA
BRANCH  11  14
ATOM     14  N   UNL     1      36.016 -26.120 -10.889  0.00  0.00    -0.206 NA
ATOM     15  H   UNL     1      36.979 -25.945 -11.173  0.00  0.00    +0.144 HD
ATOM     16  H   UNL     1      35.522 -26.604 -11.640  0.00  0.00    +0.144 HD
ENDBRANCH  11  14
ENDBRANCH   7  11
BRANCH   5  17
ATOM     17  C   UNL     1      32.640 -22.488 -17.615  0.00  0.00    +0.112 C 
BRANCH  17  18
ATOM     18  C   UNL     1      32.924 -21.428 -18.623  0.00  0.00    -0.013 C 
ATOM     19  C   UNL     1      34.242 -21.131 -18.971  0.00  0.00    -0.004 C 
ATOM     20  C   UNL     1      31.872 -20.732 -19.219  0.00  0.00    -0.004 C 
ATOM     21  C   UNL     1      33.456 -19.443 -20.510  0.00  0.00    +0.018 C 
ATOM     22  C   UNL     1      34.508 -20.139 -19.915  0.00  0.00    +0.001 C 
ATOM     23  C   UNL     1      32.138 -19.740 -20.163  0.00  0.00    +0.001 C 
BRANCH  21  25
ATOM     24  N   UNL     1      34.250 -17.275 -20.985  0.00  0.00    -0.244 NA
ATOM     25  C   UNL     1      33.731 -18.414 -21.489  0.00  0.00    +0.081 C 
ATOM     26  C   UNL     1      33.469 -18.624 -22.832  0.00  0.00    +0.019 C 
ATOM     27  C   UNL     1      33.758 -17.592 -23.718  0.00  0.00    +0.003 C 
ATOM     28  C   UNL     1      34.519 -16.293 -21.876  0.00  0.00    +0.099 C 
ATOM     29  C   UNL     1      34.293 -16.401 -23.238  0.00  0.00    +0.021 C 
ENDBRANCH  21  25
ENDBRANCH  17  18
ENDBRANCH   5  17
TORSDOF 5
ENDMDL
MODEL 2
REMARK VINA RESULT:     -11.2      5.967     10.983
REMARK  Name = 491941
REMARK  5 active torsions:
REMARK  status: ('A' for Active; 'I' for Inactive)
REMARK    1  A    between atoms: C_5  and  C_17
REMARK    2  A    between atoms: C_7  and  S_11
REMARK    3  A    between atoms: S_11  and  N_14
REMARK    4  A    between atoms: C_17  and  C_18
REMARK    5  A    between atoms: C_21  and  C_25
REMARK                            x       y       z     vdW  Elec       q    Type
REMARK                         _______ _______ _______ _____ _____    ______ ____
ROOT
ATOM      1  S   UNL     1      33.261 -16.856 -24.124  0.00  0.00    -0.035 S 
ATOM      2  O   UNL     1      34.260 -17.768 -19.936  0.00  0.00    -0.274 OA
ATOM      3  N   UNL     1      34.462 -18.222 -22.237  0.00  0.00    -0.227 N 
ATOM      4  N   UNL     1      34.238 -15.839 -21.957  0.00  0.00    -0.386 NA
ATOM      5  C   UNL     1      34.531 -18.542 -20.858  0.00  0.00    +0.236 C 
ATOM      6  C   UNL     1      34.052 -16.912 -22.630  0.00  0.00    +0.217 C 
ATOM      7  C   UNL     1      33.116 -15.163 -23.896  0.00  0.00    +0.247 C 
ATOM      8  C   UNL     1      33.691 -14.807 -22.694  0.00  0.00    +0.123 C 
ATOM      9  C   UNL     1      34.804 -19.210 -23.272  0.00  0.00    +0.123 C 
ATOM     10  C   UNL     1      33.768 -13.438 -22.144  0.00  0.00    +0.064 C 
ENDROOT
BRANCH   7  11
ATOM     11  S   UNL     1      32.308 -14.293 -25.185  0.00  0.00    +0.052 S 
ATOM     12  O   UNL     1      31.475 -13.285 -24.535  0.00  0.00    -0.157 OA
ATOM     13  O   UNL     1      33.369 -13.894 -26.103  0.00  0.00    -0.157 OA
BRANCH  11  14
ATOM     14  N   UNL     1      31.260 -15.376 -26.013  0.00  0.00    -0.206 NA
ATOM     15  H   UNL     1      30.997 -14.974 -26.912  0.00  0.00    +0.144 HD
ATOM     16  H   UNL     1      30.423 -15.535 -25.452  0.00  0.00    +0.144 HD
ENDBRANCH  11  14
ENDBRANCH   7  11
BRANCH   5  17
ATOM     17  C   UNL     1      34.938 -19.982 -20.518  0.00  0.00    +0.112 C 
BRANCH  17  18
ATOM     18  C   UNL     1      34.103 -20.615 -19.459  0.00  0.00    -0.013 C 
ATOM     19  C   UNL     1      32.712 -20.505 -19.507  0.00  0.00    -0.004 C 
ATOM     20  C   UNL     1      34.710 -21.319 -18.419  0.00  0.00    -0.004 C 
ATOM     21  C   UNL     1      32.538 -21.800 -17.476  0.00  0.00    +0.018 C 
ATOM     22  C   UNL     1      31.930 -21.097 -18.516  0.00  0.00    +0.001 C 
ATOM     23  C   UNL     1      33.928 -21.911 -17.427  0.00  0.00    +0.001 C 
BRANCH  21  25
ATOM     24  N   UNL     1      30.399 -22.220 -16.578  0.00  0.00    -0.244 NA
ATOM     25  C   UNL     1      31.728 -22.415 -16.447  0.00  0.00    +0.081 C 
ATOM     26  C   UNL     1      32.312 -23.142 -15.424  0.00  0.00    +0.019 C 
ATOM     27  C   UNL     1      31.473 -23.707 -14.469  0.00  0.00    +0.003 C 
ATOM     28  C   UNL     1      29.614 -22.783 -15.631  0.00  0.00    +0.099 C 
ATOM     29  C   UNL     1      30.097 -23.528 -14.568  0.00  0.00    +0.021 C 
ENDBRANCH  21  25
ENDBRANCH  17  18
ENDBRANCH   5  17
TORSDOF 5
ENDMDL
MODEL 3
REMARK VINA RESULT:     -10.5      6.317     11.217
REMARK  Name = 491941
REMARK  5 active torsions:
REMARK  status: ('A' for Active; 'I' for Inactive)
REMARK    1  A    between atoms: C_5  and  C_17
REMARK    2  A    between atoms: C_7  and  S_11
REMARK    3  A    between atoms: S_11  and  N_14
REMARK    4  A    between atoms: C_17  and  C_18
REMARK    5  A    between atoms: C_21  and  C_25
REMARK                            x       y       z     vdW  Elec       q    Type
REMARK                         _______ _______ _______ _____ _____    ______ ____
ROOT
ATOM      1  S   UNL     1      33.807 -15.231 -23.265  0.00  0.00    -0.035 S 
ATOM      2  O   UNL     1      34.127 -19.615 -23.046  0.00  0.00    -0.274 OA
ATOM      3  N   UNL     1      34.199 -17.501 -22.014  0.00  0.00    -0.227 N 
ATOM      4  N   UNL     1      32.540 -17.430 -23.761  0.00  0.00    -0.386 NA
ATOM      5  C   UNL     1      34.487 -18.884 -22.119  0.00  0.00    +0.236 C 
ATOM      6  C   UNL     1      33.437 -16.866 -23.041  0.00  0.00    +0.217 C 
ATOM      7  C   UNL     1      32.621 -15.212 -24.503  0.00  0.00    +0.247 C 
ATOM      8  C   UNL     1      32.056 -16.465 -24.622  0.00  0.00    +0.123 C 
ATOM      9  C   UNL     1      34.668 -16.704 -20.869  0.00  0.00    +0.123 C 
ATOM     10  C   UNL     1      30.997 -16.848 -25.577  0.00  0.00    +0.064 C 
ENDROOT
BRANCH   7  11
ATOM     11  S   UNL     1      32.394 -13.672 -25.309  0.00  0.00    +0.052 S 
ATOM     12  O   UNL     1      32.410 -12.658 -24.258  0.00  0.00    -0.157 OA
ATOM     13  O   UNL     1      33.389 -13.646 -26.375  0.00  0.00    -0.157 OA
BRANCH  11  14
ATOM     14  N   UNL     1      30.833 -13.648 -26.030  0.00  0.00    -0.206 NA
ATOM     15  H   UNL     1      30.121 -13.646 -25.300  0.00  0.00    +0.144 HD
ATOM     16  H   UNL     1      30.716 -14.475 -26.617  0.00  0.00    +0.144 HD
ENDBRANCH  11  14
ENDBRANCH   7  11
BRANCH   5  17
ATOM     17  C   UNL     1      35.346 -19.482 -20.998  0.00  0.00    +0.112 C 
BRANCH  17  18
ATOM     18  C   UNL     1      34.564 -20.188 -19.943  0.00  0.00    -0.013 C 
ATOM     19  C   UNL     1      35.223 -20.947 -18.976  0.00  0.00    -0.004 C 
ATOM     20  C   UNL     1      33.173 -20.088 -19.923  0.00  0.00    -0.004 C 
ATOM     21  C   UNL     1      33.100 -21.508 -17.969  0.00  0.00    +0.018 C 
ATOM     22  C   UNL     1      34.491 -21.607 -17.989  0.00  0.00    +0.001 C 
ATOM     23  C   UNL     1      32.440 -20.748 -18.935  0.00  0.00    +0.001 C 
BRANCH  21  25
ATOM     24  N   UNL     1      31.001 -22.053 -17.044  0.00  0.00    -0.244 NA
ATOM     25  C   UNL     1      32.340 -22.192 -16.945  0.00  0.00    +0.081 C 
ATOM     26  C   UNL     1      32.977 -22.924 -15.959  0.00  0.00    +0.019 C 
ATOM     27  C   UNL     1      32.185 -23.556 -15.007  0.00  0.00    +0.003 C 
ATOM     28  C   UNL     1      30.263 -22.681 -16.101  0.00  0.00    +0.099 C 
ATOM     29  C   UNL     1      30.801 -23.438 -15.072  0.00  0.00    +0.021 C 
ENDBRANCH  21  25
ENDBRANCH  17  18
ENDBRANCH   5  17
TORSDOF 5
ENDMDL
MODEL 4
REMARK VINA RESULT:     -10.2      3.003      4.619
REMARK  Name = 491941
REMARK  5 active torsions:
REMARK  status: ('A' for Active; 'I' for Inactive)
REMARK    1  A    between atoms: C_5  and  C_17
REMARK    2  A    between atoms: C_7  and  S_11
REMARK    3  A    between atoms: S_11  and  N_14
REMARK    4  A    between atoms: C_17  and  C_18
REMARK    5  A    between atoms: C_21  and  C_25
REMARK                            x       y       z     vdW  Elec       q    Type
REMARK                         _______ _______ _______ _____ _____    ______ ____
ROOT
ATOM      1  S   UNL     1      33.987 -22.363 -16.042  0.00  0.00    -0.035 S 
ATOM      2  O   UNL     1      32.632 -19.948 -19.463  0.00  0.00    -0.274 OA
ATOM      3  N   UNL     1      34.179 -21.427 -18.483  0.00  0.00    -0.227 N 
ATOM      4  N   UNL     1      31.988 -21.957 -17.631  0.00  0.00    -0.386 NA
ATOM      5  C   UNL     1      33.758 -20.452 -19.421  0.00  0.00    +0.236 C 
ATOM      6  C   UNL     1      33.260 -21.887 -17.493  0.00  0.00    +0.217 C 
ATOM      7  C   UNL     1      32.415 -22.730 -15.465  0.00  0.00    +0.247 C 
ATOM      8  C   UNL     1      31.485 -22.452 -16.444  0.00  0.00    +0.123 C 
ATOM      9  C   UNL     1      35.545 -21.975 -18.506  0.00  0.00    +0.123 C 
ATOM     10  C   UNL     1      30.025 -22.637 -16.327  0.00  0.00    +0.064 C 
ENDROOT
BRANCH   7  11
ATOM     11  S   UNL     1      32.338 -23.355 -13.829  0.00  0.00    +0.052 S 
ATOM     12  O   UNL     1      31.704 -24.667 -13.925  0.00  0.00    -0.157 OA
ATOM     13  O   UNL     1      33.693 -23.227 -13.305  0.00  0.00    -0.157 OA
BRANCH  11  14
ATOM     14  N   UNL     1      31.304 -22.345 -12.897  0.00  0.00    -0.206 NA
ATOM     15  H   UNL     1      31.117 -21.484 -13.410  0.00  0.00    +0.144 HD
ATOM     16  H   UNL     1      31.755 -22.123 -12.010  0.00  0.00    +0.144 HD
ENDBRANCH  11  14
ENDBRANCH   7  11
BRANCH   5  17
ATOM     17  C   UNL     1      34.817 -19.978 -20.425  0.00  0.00    +0.112 C 
BRANCH  17  18
ATOM     18  C   UNL     1      34.427 -18.760 -21.190  0.00  0.00    -0.013 C 
ATOM     19  C   UNL     1      34.564 -17.498 -20.610  0.00  0.00    -0.004 C 
ATOM     20  C   UNL     1      33.925 -18.881 -22.485  0.00  0.00    -0.004 C 
ATOM     21  C   UNL     1      33.695 -16.479 -22.621  0.00  0.00    +0.018 C 
ATOM     22  C   UNL     1      34.198 -16.358 -21.325  0.00  0.00    +0.001 C 
ATOM     23  C   UNL     1      33.559 -17.740 -23.201  0.00  0.00    +0.001 C 
BRANCH  21  25
ATOM     24  N   UNL     1      32.923 -15.527 -24.635  0.00  0.00    -0.244 NA
ATOM     25  C   UNL     1      33.316 -15.297 -23.364  0.00  0.00    +0.081 C 
ATOM     26  C   UNL     1      33.367 -14.045 -22.778  0.00  0.00    +0.019 C 
ATOM     27  C   UNL     1      32.988 -12.952 -23.550  0.00  0.00    +0.003 C 
ATOM     28  C   UNL     1      32.562 -14.441 -25.356  0.00  0.00    +0.099 C 
ATOM     29  C   UNL     1      32.576 -13.146 -24.865  0.00  0.00    +0.021 C 
ENDBRANCH  21  25
ENDBRANCH  17  18
ENDBRANCH   5  17
TORSDOF 5
ENDMDL
MODEL 5
REMARK VINA RESULT:     -10.1      9.022     13.729
REMARK  Name = 491941
REMARK  5 active torsions:
REMARK  status: ('A' for Active; 'I' for Inactive)
REMARK    1  A    between atoms: C_5  and  C_17
REMARK    2  A    between atoms: C_7  and  S_11
REMARK    3  A    between atoms: S_11  and  N_14
REMARK    4  A    between atoms: C_17  and  C_18
REMARK    5  A    between atoms: C_21  and  C_25
REMARK                            x       y       z     vdW  Elec       q    Type
REMARK                         _______ _______ _______ _____ _____    ______ ____
ROOT
ATOM      1  S   UNL     1      32.050  -8.440 -23.532  0.00  0.00    -0.035 S 
ATOM      2  O   UNL     1      31.806 -12.588 -22.080  0.00  0.00    -0.274 OA
ATOM      3  N   UNL     1      32.904 -10.908 -23.309  0.00  0.00    -0.227 N 
ATOM      4  N   UNL     1      31.867  -9.880 -21.392  0.00  0.00    -0.386 NA
ATOM      5  C   UNL     1      32.599 -12.247 -22.962  0.00  0.00    +0.236 C 
ATOM      6  C   UNL     1      32.265  -9.841 -22.609  0.00  0.00    +0.217 C 
ATOM      7  C   UNL     1      31.316  -7.737 -22.152  0.00  0.00    +0.247 C 
ATOM      8  C   UNL     1      31.309  -8.648 -21.116  0.00  0.00    +0.123 C 
ATOM      9  C   UNL     1      33.867 -10.592 -24.377  0.00  0.00    +0.123 C 
ATOM     10  C   UNL     1      30.763  -8.415 -19.763  0.00  0.00    +0.064 C 
ENDROOT
BRANCH   7  11
ATOM     11  S   UNL     1      30.763  -6.085 -22.349  0.00  0.00    +0.052 S 
ATOM     12  O   UNL     1      29.671  -5.906 -21.396  0.00  0.00    -0.157 OA
ATOM     13  O   UNL     1      31.965  -5.264 -22.257  0.00  0.00    -0.157 OA
BRANCH  11  14
ATOM     14  N   UNL     1      30.108  -5.904 -23.929  0.00  0.00    -0.206 NA
ATOM     15  H   UNL     1      29.443  -5.131 -23.934  0.00  0.00    +0.144 HD
ATOM     16  H   UNL     1      29.632  -6.765 -24.200  0.00  0.00    +0.144 HD
ENDBRANCH  11  14
ENDBRANCH   7  11
BRANCH   5  17
ATOM     17  C   UNL     1      33.295 -13.335 -23.789  0.00  0.00    +0.112 C 
BRANCH  17  18
ATOM     18  C   UNL     1      33.607 -14.575 -23.022  0.00  0.00    -0.013 C 
ATOM     19  C   UNL     1      33.800 -15.782 -23.694  0.00  0.00    -0.004 C 
ATOM     20  C   UNL     1      33.707 -14.528 -21.631  0.00  0.00    -0.004 C 
ATOM     21  C   UNL     1      34.191 -16.895 -21.586  0.00  0.00    +0.018 C 
ATOM     22  C   UNL     1      34.092 -16.942 -22.977  0.00  0.00    +0.001 C 
ATOM     23  C   UNL     1      33.999 -15.688 -20.913  0.00  0.00    +0.001 C 
BRANCH  21  25
ATOM     24  N   UNL     1      35.769 -18.189 -20.405  0.00  0.00    -0.244 NA
ATOM     25  C   UNL     1      34.494 -18.097 -20.841  0.00  0.00    +0.081 C 
ATOM     26  C   UNL     1      33.522 -19.055 -20.614  0.00  0.00    +0.019 C 
ATOM     27  C   UNL     1      33.883 -20.186 -19.890  0.00  0.00    +0.003 C 
ATOM     28  C   UNL     1      36.083 -19.302 -19.705  0.00  0.00    +0.099 C 
ATOM     29  C   UNL     1      35.186 -20.320 -19.423  0.00  0.00    +0.021 C 
ENDBRANCH  21  25
ENDBRANCH  17  18
ENDBRANCH   5  17
TORSDOF 5
ENDMDL
MODEL 6
REMARK VINA RESULT:     -10.0      2.438      3.395
REMARK  Name = 491941
REMARK  5 active torsions:
REMARK  status: ('A' for Active; 'I' for Inactive)
REMARK    1  A    between atoms: C_5  and  C_17
REMARK    2  A    between atoms: C_7  and  S_11
REMARK    3  A    between atoms: S_11  and  N_14
REMARK    4  A    between atoms: C_17  and  C_18
REMARK    5  A    between atoms: C_21  and  C_25
REMARK                            x       y       z     vdW  Elec       q    Type
REMARK                         _______ _______ _______ _____ _____    ______ ____
ROOT
ATOM      1  S   UNL     1      33.894 -22.679 -14.241  0.00  0.00    -0.035 S 
ATOM      2  O   UNL     1      33.081 -21.292 -18.339  0.00  0.00    -0.274 OA
ATOM      3  N   UNL     1      34.557 -22.160 -16.724  0.00  0.00    -0.227 N 
ATOM      4  N   UNL     1      32.359 -23.048 -16.289  0.00  0.00    -0.386 NA
ATOM      5  C   UNL     1      34.228 -21.494 -17.930  0.00  0.00    +0.236 C 
ATOM      6  C   UNL     1      33.509 -22.651 -15.888  0.00  0.00    +0.217 C 
ATOM      7  C   UNL     1      32.324 -23.309 -13.964  0.00  0.00    +0.247 C 
ATOM      8  C   UNL     1      31.658 -23.436 -15.165  0.00  0.00    +0.123 C 
ATOM      9  C   UNL     1      35.957 -22.359 -16.313  0.00  0.00    +0.123 C 
ATOM     10  C   UNL     1      30.282 -23.945 -15.341  0.00  0.00    +0.064 C 
ENDROOT
BRANCH   7  11
ATOM     11  S   UNL     1      31.928 -23.641 -12.289  0.00  0.00    +0.052 S 
ATOM     12  O   UNL     1      31.033 -24.794 -12.305  0.00  0.00    -0.157 OA
ATOM     13  O   UNL     1      33.210 -23.711 -11.598  0.00  0.00    -0.157 OA
BRANCH  11  14
ATOM     14  N   UNL     1      31.046 -22.308 -11.653  0.00  0.00    -0.206 NA
ATOM     15  H   UNL     1      31.499 -21.976 -10.802  0.00  0.00    +0.144 HD
ATOM     16  H   UNL     1      30.093 -22.603 -11.438  0.00  0.00    +0.144 HD
ENDBRANCH  11  14
ENDBRANCH   7  11
BRANCH   5  17
ATOM     17  C   UNL     1      35.409 -20.959 -18.751  0.00  0.00    +0.112 C 
BRANCH  17  18
ATOM     18  C   UNL     1      35.038 -19.897 -19.728  0.00  0.00    -0.013 C 
ATOM     19  C   UNL     1      35.952 -18.893 -20.049  0.00  0.00    -0.004 C 
ATOM     20  C   UNL     1      33.776 -19.907 -20.323  0.00  0.00    -0.004 C 
ATOM     21  C   UNL     1      34.343 -17.909 -21.558  0.00  0.00    +0.018 C 
ATOM     22  C   UNL     1      35.605 -17.900 -20.964  0.00  0.00    +0.001 C 
ATOM     23  C   UNL     1      33.428 -18.912 -21.238  0.00  0.00    +0.001 C 
BRANCH  21  25
ATOM     24  N   UNL     1      34.180 -15.615 -22.076  0.00  0.00    -0.244 NA
ATOM     25  C   UNL     1      33.982 -16.879 -22.507  0.00  0.00    +0.081 C 
ATOM     26  C   UNL     1      33.477 -17.207 -23.753  0.00  0.00    +0.019 C 
ATOM     27  C   UNL     1      33.151 -16.166 -24.616  0.00  0.00    +0.003 C 
ATOM     28  C   UNL     1      33.852 -14.628 -22.942  0.00  0.00    +0.099 C 
ATOM     29  C   UNL     1      33.340 -14.849 -24.210  0.00  0.00    +0.021 C 
ENDBRANCH  21  25
ENDBRANCH  17  18
ENDBRANCH   5  17
TORSDOF 5
ENDMDL
MODEL 7
REMARK VINA RESULT:      -9.7      5.506     10.878
REMARK  Name = 491941
REMARK  5 active torsions:
REMARK  status: ('A' for Active; 'I' for Inactive)
REMARK    1  A    between atoms: C_5  and  C_17
REMARK    2  A    between atoms: C_7  and  S_11
REMARK    3  A    between atoms: S_11  and  N_14
REMARK    4  A    between atoms: C_17  and  C_18
REMARK    5  A    between atoms: C_21  and  C_25
REMARK                            x       y       z     vdW  Elec       q    Type
REMARK                         _______ _______ _______ _____ _____    ______ ____
ROOT
ATOM      1  S   UNL     1      33.568 -16.200 -23.612  0.00  0.00    -0.035 S 
ATOM      2  O   UNL     1      33.693 -18.199 -19.692  0.00  0.00    -0.274 OA
ATOM      3  N   UNL     1      34.389 -18.040 -21.935  0.00  0.00    -0.227 N 
ATOM      4  N   UNL     1      34.033 -15.809 -21.098  0.00  0.00    -0.386 NA
ATOM      5  C   UNL     1      34.177 -18.712 -20.706  0.00  0.00    +0.236 C 
ATOM      6  C   UNL     1      34.028 -16.664 -22.052  0.00  0.00    +0.217 C 
ATOM      7  C   UNL     1      33.323 -14.623 -22.986  0.00  0.00    +0.247 C 
ATOM      8  C   UNL     1      33.620 -14.608 -21.640  0.00  0.00    +0.123 C 
ATOM      9  C   UNL     1      34.974 -18.732 -23.096  0.00  0.00    +0.123 C 
ATOM     10  C   UNL     1      33.533 -13.433 -20.749  0.00  0.00    +0.064 C 
ENDROOT
BRANCH   7  11
ATOM     11  S   UNL     1      32.776 -13.428 -24.145  0.00  0.00    +0.052 S 
ATOM     12  O   UNL     1      33.114 -13.956 -25.464  0.00  0.00    -0.157 OA
ATOM     13  O   UNL     1      31.387 -13.157 -23.792  0.00  0.00    -0.157 OA
BRANCH  11  14
ATOM     14  N   UNL     1      33.679 -11.981 -23.919  0.00  0.00    -0.206 NA
ATOM     15  H   UNL     1      34.445 -12.157 -23.270  0.00  0.00    +0.144 HD
ATOM     16  H   UNL     1      33.070 -11.256 -23.539  0.00  0.00    +0.144 HD
ENDBRANCH  11  14
ENDBRANCH   7  11
BRANCH   5  17
ATOM     17  C   UNL     1      34.550 -20.199 -20.674  0.00  0.00    +0.112 C 
BRANCH  17  18
ATOM     18  C   UNL     1      34.188 -20.889 -19.403  0.00  0.00    -0.013 C 
ATOM     19  C   UNL     1      32.867 -21.271 -19.168  0.00  0.00    -0.004 C 
ATOM     20  C   UNL     1      35.171 -21.155 -18.449  0.00  0.00    -0.004 C 
ATOM     21  C   UNL     1      33.510 -22.181 -17.025  0.00  0.00    +0.018 C 
ATOM     22  C   UNL     1      32.528 -21.917 -17.980  0.00  0.00    +0.001 C 
ATOM     23  C   UNL     1      34.832 -21.800 -17.260  0.00  0.00    +0.001 C 
BRANCH  21  25
ATOM     24  N   UNL     1      34.191 -23.446 -15.156  0.00  0.00    -0.244 NA
ATOM     25  C   UNL     1      33.160 -22.851 -15.792  0.00  0.00    +0.081 C 
ATOM     26  C   UNL     1      31.854 -22.857 -15.334  0.00  0.00    +0.019 C 
ATOM     27  C   UNL     1      31.588 -23.520 -14.141  0.00  0.00    +0.003 C 
ATOM     28  C   UNL     1      33.895 -24.081 -13.999  0.00  0.00    +0.099 C 
ATOM     29  C   UNL     1      32.623 -24.146 -13.454  0.00  0.00    +0.021 C 
ENDBRANCH  21  25
ENDBRANCH  17  18
ENDBRANCH   5  17
TORSDOF 5
ENDMDL
MODEL 8
REMARK VINA RESULT:      -9.5      1.887      2.203
REMARK  Name = 491941
REMARK  5 active torsions:
REMARK  status: ('A' for Active; 'I' for Inactive)
REMARK    1  A    between atoms: C_5  and  C_17
REMARK    2  A    between atoms: C_7  and  S_11
REMARK    3  A    between atoms: S_11  and  N_14
REMARK    4  A    between atoms: C_17  and  C_18
REMARK    5  A    between atoms: C_21  and  C_25
REMARK                            x       y       z     vdW  Elec       q    Type
REMARK                         _______ _______ _______ _____ _____    ______ ____
ROOT
ATOM      1  S   UNL     1      35.755 -24.399 -13.931  0.00  0.00    -0.035 S 
ATOM      2  O   UNL     1      32.015 -22.103 -14.274  0.00  0.00    -0.274 OA
ATOM      3  N   UNL     1      33.418 -23.854 -14.986  0.00  0.00    -0.227 N 
ATOM      4  N   UNL     1      33.685 -23.597 -12.605  0.00  0.00    -0.386 NA
ATOM      5  C   UNL     1      32.369 -22.914 -15.135  0.00  0.00    +0.236 C 
ATOM      6  C   UNL     1      34.149 -23.898 -13.760  0.00  0.00    +0.217 C 
ATOM      7  C   UNL     1      35.913 -24.206 -12.235  0.00  0.00    +0.247 C 
ATOM      8  C   UNL     1      34.715 -23.776 -11.704  0.00  0.00    +0.123 C 
ATOM      9  C   UNL     1      33.772 -24.787 -16.069  0.00  0.00    +0.123 C 
ATOM     10  C   UNL     1      34.452 -23.498 -10.277  0.00  0.00    +0.064 C 
ENDROOT
BRANCH   7  11
ATOM     11  S   UNL     1      37.493 -24.584 -11.576  0.00  0.00    +0.052 S 
ATOM     12  O   UNL     1      37.935 -23.386 -10.869  0.00  0.00    -0.157 OA
ATOM     13  O   UNL     1      37.319 -25.842 -10.860  0.00  0.00    -0.157 OA
BRANCH  11  14
ATOM     14  N   UNL     1      38.587 -24.852 -12.876  0.00  0.00    -0.206 NA
ATOM     15  H   UNL     1      39.220 -25.614 -12.635  0.00  0.00    +0.144 HD
ATOM     16  H   UNL     1      39.125 -24.003 -13.048  0.00  0.00    +0.144 HD
ENDBRANCH  11  14
ENDBRANCH   7  11
BRANCH   5  17
ATOM     17  C   UNL     1      31.661 -22.900 -16.496  0.00  0.00    +0.112 C 
BRANCH  17  18
ATOM     18  C   UNL     1      32.317 -22.031 -17.514  0.00  0.00    -0.013 C 
ATOM     19  C   UNL     1      33.707 -22.030 -17.639  0.00  0.00    -0.004 C 
ATOM     20  C   UNL     1      31.542 -21.218 -18.341  0.00  0.00    -0.004 C 
ATOM     21  C   UNL     1      33.546 -20.403 -19.417  0.00  0.00    +0.018 C 
ATOM     22  C   UNL     1      34.321 -21.217 -18.591  0.00  0.00    +0.001 C 
ATOM     23  C   UNL     1      32.157 -20.404 -19.293  0.00  0.00    +0.001 C 
BRANCH  21  25
ATOM     24  N   UNL     1      35.425 -19.142 -20.081  0.00  0.00    -0.244 NA
ATOM     25  C   UNL     1      34.182 -19.559 -20.405  0.00  0.00    +0.081 C 
ATOM     26  C   UNL     1      33.532 -19.230 -21.582  0.00  0.00    +0.019 C 
ATOM     27  C   UNL     1      34.203 -18.415 -22.487  0.00  0.00    +0.003 C 
ATOM     28  C   UNL     1      36.046 -18.351 -20.985  0.00  0.00    +0.099 C 
ATOM     29  C   UNL     1      35.485 -17.963 -22.190  0.00  0.00    +0.021 C 
ENDBRANCH  21  25
ENDBRANCH  17  18
ENDBRANCH   5  17
TORSDOF 5
ENDMDL
MODEL 9
REMARK VINA RESULT:      -9.5      3.005      5.235
REMARK  Name = 491941
REMARK  5 active torsions:
REMARK  status: ('A' for Active; 'I' for Inactive)
REMARK    1  A    between atoms: C_5  and  C_17
REMARK    2  A    between atoms: C_7  and  S_11
REMARK    3  A    between atoms: S_11  and  N_14
REMARK    4  A    between atoms: C_17  and  C_18
REMARK    5  A    between atoms: C_21  and  C_25
REMARK                            x       y       z     vdW  Elec       q    Type
REMARK                         _______ _______ _______ _____ _____    ______ ____
ROOT
ATOM      1  S   UNL     1      35.236 -21.668 -16.970  0.00  0.00    -0.035 S 
ATOM      2  O   UNL     1      32.867 -19.539 -20.008  0.00  0.00    -0.274 OA
ATOM      3  N   UNL     1      34.841 -20.639 -19.349  0.00  0.00    -0.227 N 
ATOM      4  N   UNL     1      32.983 -21.698 -18.238  0.00  0.00    -0.386 NA
ATOM      5  C   UNL     1      34.072 -19.764 -20.155  0.00  0.00    +0.236 C 
ATOM      6  C   UNL     1      34.210 -21.334 -18.273  0.00  0.00    +0.217 C 
ATOM      7  C   UNL     1      33.895 -22.414 -16.206  0.00  0.00    +0.247 C 
ATOM      8  C   UNL     1      32.790 -22.334 -17.028  0.00  0.00    +0.123 C 
ATOM      9  C   UNL     1      36.277 -20.848 -19.596  0.00  0.00    +0.123 C 
ATOM     10  C   UNL     1      31.445 -22.863 -16.722  0.00  0.00    +0.064 C 
ENDROOT
BRANCH   7  11
ATOM     11  S   UNL     1      34.209 -23.089 -14.619  0.00  0.00    +0.052 S 
ATOM     12  O   UNL     1      34.308 -24.534 -14.805  0.00  0.00    -0.157 OA
ATOM     13  O   UNL     1      35.342 -22.332 -14.098  0.00  0.00    -0.157 OA
BRANCH  11  14
ATOM     14  N   UNL     1      32.850 -22.788 -13.609  0.00  0.00    -0.206 NA
ATOM     15  H   UNL     1      33.091 -22.078 -12.918  0.00  0.00    +0.144 HD
ATOM     16  H   UNL     1      32.583 -23.650 -13.133  0.00  0.00    +0.144 HD
ENDBRANCH  11  14
ENDBRANCH   7  11
BRANCH   5  17
ATOM     17  C   UNL     1      34.831 -19.022 -21.262  0.00  0.00    +0.112 C 
BRANCH  17  18
ATOM     18  C   UNL     1      34.376 -17.619 -21.476  0.00  0.00    -0.013 C 
ATOM     19  C   UNL     1      34.159 -17.145 -22.770  0.00  0.00    -0.004 C 
ATOM     20  C   UNL     1      34.166 -16.780 -20.381  0.00  0.00    -0.004 C 
ATOM     21  C   UNL     1      33.525 -14.992 -21.876  0.00  0.00    +0.018 C 
ATOM     22  C   UNL     1      33.734 -15.832 -22.970  0.00  0.00    +0.001 C 
ATOM     23  C   UNL     1      33.741 -15.466 -20.582  0.00  0.00    +0.001 C 
BRANCH  21  25
ATOM     24  N   UNL     1      32.190 -13.179 -21.176  0.00  0.00    -0.244 NA
ATOM     25  C   UNL     1      33.084 -13.630 -22.082  0.00  0.00    +0.081 C 
ATOM     26  C   UNL     1      33.567 -12.880 -23.140  0.00  0.00    +0.019 C 
ATOM     27  C   UNL     1      33.100 -11.578 -23.279  0.00  0.00    +0.003 C 
ATOM     28  C   UNL     1      31.758 -11.908 -21.343  0.00  0.00    +0.099 C 
ATOM     29  C   UNL     1      32.178 -11.075 -22.367  0.00  0.00    +0.021 C 
ENDBRANCH  21  25
ENDBRANCH  17  18
ENDBRANCH   5  17
TORSDOF 5
ENDMDL
