MODEL 1
REMARK VINA RESULT:     -12.2      0.000      0.000
REMARK  Name = 52920501
REMARK  9 active torsions:
REMARK  status: ('A' for Active; 'I' for Inactive)
REMARK    1  A    between atoms: N_1  and  C_12
REMARK    2  A    between atoms: C_5  and  O_27
REMARK    3  A    between atoms: C_9  and  C_15
REMARK    4  A    between atoms: C_15  and  S_16
REMARK    5  A    between atoms: S_16  and  N_19
REMARK    6  A    between atoms: N_19  and  C_21
REMARK    7  A    between atoms: C_21  and  C_22
REMARK    8  A    between atoms: C_22  and  N_23
REMARK    9  A    between atoms: O_27  and  C_35
REMARK                            x       y       z     vdW  Elec       q    Type
REMARK                         _______ _______ _______ _____ _____    ______ ____
ROOT
ATOM      1  N   UNL     1      31.744 -22.049 -17.835  0.00  0.00    -0.247 N 
ATOM      2  N   UNL     1      32.373 -22.421 -15.605  0.00  0.00    -0.300 NA
ATOM      3  N   UNL     1      30.162 -22.990 -16.379  0.00  0.00    -0.170 NA
ATOM      4  C   UNL     1      31.411 -22.510 -16.543  0.00  0.00    +0.152 C 
ATOM      5  C   UNL     1      32.019 -22.869 -14.383  0.00  0.00    +0.295 C 
ATOM      6  C   UNL     1      30.775 -23.384 -14.085  0.00  0.00    +0.094 C 
ATOM      7  C   UNL     1      29.877 -23.420 -15.133  0.00  0.00    +0.118 C 
ATOM      8  H   UNL     1      31.012 -22.133 -18.488  0.00  0.00    +0.165 HD
ENDROOT
BRANCH   1  12
ATOM      9  C   UNL     1      34.020 -20.120 -20.028  0.00  0.00    +0.004 C 
ATOM     10  C   UNL     1      32.854 -20.669 -19.495  0.00  0.00    +0.013 C 
ATOM     11  C   UNL     1      35.254 -20.398 -19.439  0.00  0.00    -0.002 C 
ATOM     12  C   UNL     1      32.921 -21.495 -18.373  0.00  0.00    +0.057 C 
ATOM     13  C   UNL     1      35.321 -21.224 -18.317  0.00  0.00    +0.001 C 
ATOM     14  C   UNL     1      34.154 -21.773 -17.785  0.00  0.00    +0.015 C 
BRANCH   9  15
ATOM     15  C   UNL     1      33.948 -19.236 -21.227  0.00  0.00    +0.195 C 
BRANCH  15  16
ATOM     16  S   UNL     1      35.070 -17.897 -20.981  0.00  0.00    +0.045 S 
ATOM     17  O   UNL     1      34.539 -17.036 -19.936  0.00  0.00    -0.157 OA
ATOM     18  O   UNL     1      36.409 -18.451 -20.862  0.00  0.00    -0.157 OA
BRANCH  16  19
ATOM     19  N   UNL     1      34.959 -17.096 -22.489  0.00  0.00    -0.185 NA
ATOM     20  H   UNL     1      34.664 -17.791 -23.175  0.00  0.00    +0.148 HD
BRANCH  19  21
ATOM     21  C   UNL     1      34.047 -15.945 -22.621  0.00  0.00    +0.068 C 
BRANCH  21  22
ATOM     22  C   UNL     1      33.528 -15.877 -24.050  0.00  0.00    -0.058 C 
BRANCH  22  23
ATOM     23  N   UNL     1      32.434 -14.918 -24.145  0.00  0.00    +0.385 N 
ATOM     24  C   UNL     1      32.562 -13.886 -23.114  0.00  0.00    -0.101 C 
ATOM     25  C   UNL     1      32.398 -14.306 -25.474  0.00  0.00    -0.101 C 
ATOM     26  H   UNL     1      31.558 -15.419 -23.995  0.00  0.00    -0.080 HD
ENDBRANCH  22  23
ENDBRANCH  21  22
ENDBRANCH  19  21
ENDBRANCH  16  19
ENDBRANCH  15  16
ENDBRANCH   9  15
ENDBRANCH   1  12
BRANCH   5  27
ATOM     27  O   UNL     1      32.976 -22.800 -13.385  0.00  0.00    -0.427 OA
BRANCH  27  35
ATOM     28  N   UNL     1      38.157 -24.099 -14.621  0.00  0.00    -0.316 N 
ATOM     29  C   UNL     1      36.226 -24.488 -13.574  0.00  0.00    +0.017 C 
ATOM     30  C   UNL     1      36.886 -23.608 -14.434  0.00  0.00    +0.048 C 
ATOM     31  C   UNL     1      38.325 -25.258 -13.912  0.00  0.00    +0.026 C 
ATOM     32  C   UNL     1      37.146 -25.524 -13.252  0.00  0.00    +0.012 C 
ATOM     33  C   UNL     1      34.892 -24.214 -13.214  0.00  0.00    +0.039 C 
ATOM     34  C   UNL     1      36.274 -22.462 -14.955  0.00  0.00    +0.018 C 
ATOM     35  C   UNL     1      34.267 -23.072 -13.728  0.00  0.00    +0.148 C 
ATOM     36  C   UNL     1      34.950 -22.210 -14.584  0.00  0.00    +0.039 C 
ATOM     37  C   UNL     1      39.602 -25.994 -13.936  0.00  0.00    +0.047 C 
ATOM     38  H   UNL     1      38.847 -23.679 -15.185  0.00  0.00    +0.152 HD
ENDBRANCH  27  35
ENDBRANCH   5  27
TORSDOF 9
ENDMDL
MODEL 2
REMARK VINA RESULT:     -11.4      1.463      4.986
REMARK  Name = 52920501
REMARK  9 active torsions:
REMARK  status: ('A' for Active; 'I' for Inactive)
REMARK    1  A    between atoms: N_1  and  C_12
REMARK    2  A    between atoms: C_5  and  O_27
REMARK    3  A    between atoms: C_9  and  C_15
REMARK    4  A    between atoms: C_15  and  S_16
REMARK    5  A    between atoms: S_16  and  N_19
REMARK    6  A    between atoms: N_19  and  C_21
REMARK    7  A    between atoms: C_21  and  C_22
REMARK    8  A    between atoms: C_22  and  N_23
REMARK    9  A    between atoms: O_27  and  C_35
REMARK                            x       y       z     vdW  Elec       q    Type
REMARK                         _______ _______ _______ _____ _____    ______ ____
ROOT
ATOM      1  N   UNL     1      35.652 -21.553 -17.584  0.00  0.00    -0.247 N 
ATOM      2  N   UNL     1      34.558 -22.151 -15.596  0.00  0.00    -0.300 NA
ATOM      3  N   UNL     1      36.944 -22.403 -15.819  0.00  0.00    -0.170 NA
ATOM      4  C   UNL     1      35.721 -22.061 -16.268  0.00  0.00    +0.152 C 
ATOM      5  C   UNL     1      34.661 -22.641 -14.343  0.00  0.00    +0.295 C 
ATOM      6  C   UNL     1      35.853 -23.027 -13.766  0.00  0.00    +0.094 C 
ATOM      7  C   UNL     1      36.974 -22.884 -14.559  0.00  0.00    +0.118 C 
ATOM      8  H   UNL     1      36.525 -21.505 -18.037  0.00  0.00    +0.165 HD
ENDROOT
BRANCH   1  12
ATOM      9  C   UNL     1      33.761 -19.930 -20.323  0.00  0.00    +0.004 C 
ATOM     10  C   UNL     1      34.825 -20.377 -19.539  0.00  0.00    +0.013 C 
ATOM     11  C   UNL     1      32.449 -20.209 -19.940  0.00  0.00    -0.002 C 
ATOM     12  C   UNL     1      34.578 -21.103 -18.375  0.00  0.00    +0.057 C 
ATOM     13  C   UNL     1      32.201 -20.935 -18.774  0.00  0.00    +0.001 C 
ATOM     14  C   UNL     1      33.266 -21.381 -17.992  0.00  0.00    +0.015 C 
BRANCH   9  15
ATOM     15  C   UNL     1      34.026 -19.155 -21.568  0.00  0.00    +0.195 C 
BRANCH  15  16
ATOM     16  S   UNL     1      35.106 -17.822 -21.158  0.00  0.00    +0.045 S 
ATOM     17  O   UNL     1      34.539 -17.100 -20.030  0.00  0.00    -0.157 OA
ATOM     18  O   UNL     1      36.459 -18.349 -21.083  0.00  0.00    -0.157 OA
BRANCH  16  19
ATOM     19  N   UNL     1      34.987 -16.859 -22.567  0.00  0.00    -0.185 NA
ATOM     20  H   UNL     1      34.856 -17.495 -23.354  0.00  0.00    +0.148 HD
BRANCH  19  21
ATOM     21  C   UNL     1      33.922 -15.844 -22.651  0.00  0.00    +0.068 C 
BRANCH  21  22
ATOM     22  C   UNL     1      33.580 -15.595 -24.113  0.00  0.00    -0.058 C 
BRANCH  22  23
ATOM     23  N   UNL     1      32.398 -14.748 -24.218  0.00  0.00    +0.385 N 
ATOM     24  C   UNL     1      32.404 -13.722 -23.173  0.00  0.00    -0.101 C 
ATOM     25  C   UNL     1      32.326 -14.124 -25.541  0.00  0.00    -0.101 C 
ATOM     26  H   UNL     1      31.573 -15.335 -24.091  0.00  0.00    -0.080 HD
ENDBRANCH  22  23
ENDBRANCH  21  22
ENDBRANCH  19  21
ENDBRANCH  16  19
ENDBRANCH  15  16
ENDBRANCH   9  15
ENDBRANCH   1  12
BRANCH   5  27
ATOM     27  O   UNL     1      33.491 -22.752 -13.611  0.00  0.00    -0.427 OA
BRANCH  27  35
ATOM     28  N   UNL     1      28.650 -22.836 -16.184  0.00  0.00    -0.316 N 
ATOM     29  C   UNL     1      29.926 -22.418 -14.402  0.00  0.00    +0.017 C 
ATOM     30  C   UNL     1      29.943 -22.891 -15.716  0.00  0.00    +0.048 C 
ATOM     31  C   UNL     1      27.818 -22.344 -15.215  0.00  0.00    +0.026 C 
ATOM     32  C   UNL     1      28.578 -22.077 -14.099  0.00  0.00    +0.012 C 
ATOM     33  C   UNL     1      31.136 -22.370 -13.682  0.00  0.00    +0.039 C 
ATOM     34  C   UNL     1      31.116 -23.321 -16.348  0.00  0.00    +0.018 C 
ATOM     35  C   UNL     1      32.316 -22.796 -14.301  0.00  0.00    +0.148 C 
ATOM     36  C   UNL     1      32.304 -23.264 -15.613  0.00  0.00    +0.039 C 
ATOM     37  C   UNL     1      26.372 -22.182 -15.457  0.00  0.00    +0.047 C 
ATOM     38  H   UNL     1      28.365 -23.109 -17.086  0.00  0.00    +0.152 HD
ENDBRANCH  27  35
ENDBRANCH   5  27
TORSDOF 9
ENDMDL
MODEL 3
REMARK VINA RESULT:     -11.2      2.038      5.465
REMARK  Name = 52920501
REMARK  9 active torsions:
REMARK  status: ('A' for Active; 'I' for Inactive)
REMARK    1  A    between atoms: N_1  and  C_12
REMARK    2  A    between atoms: C_5  and  O_27
REMARK    3  A    between atoms: C_9  and  C_15
REMARK    4  A    between atoms: C_15  and  S_16
REMARK    5  A    between atoms: S_16  and  N_19
REMARK    6  A    between atoms: N_19  and  C_21
REMARK    7  A    between atoms: C_21  and  C_22
REMARK    8  A    between atoms: C_22  and  N_23
REMARK    9  A    between atoms: O_27  and  C_35
REMARK                            x       y       z     vdW  Elec       q    Type
REMARK                         _______ _______ _______ _____ _____    ______ ____
ROOT
ATOM      1  N   UNL     1      35.046 -22.981 -15.501  0.00  0.00    -0.247 N 
ATOM      2  N   UNL     1      33.479 -23.125 -13.760  0.00  0.00    -0.300 NA
ATOM      3  N   UNL     1      35.759 -23.834 -13.434  0.00  0.00    -0.170 NA
ATOM      4  C   UNL     1      34.746 -23.330 -14.166  0.00  0.00    +0.152 C 
ATOM      5  C   UNL     1      33.228 -23.470 -12.481  0.00  0.00    +0.295 C 
ATOM      6  C   UNL     1      34.177 -23.995 -11.628  0.00  0.00    +0.094 C 
ATOM      7  C   UNL     1      35.438 -24.157 -12.164  0.00  0.00    +0.118 C 
ATOM      8  H   UNL     1      35.983 -23.148 -15.753  0.00  0.00    +0.165 HD
ENDROOT
BRANCH   1  12
ATOM      9  C   UNL     1      34.112 -21.253 -18.639  0.00  0.00    +0.004 C 
ATOM     10  C   UNL     1      34.884 -21.788 -17.608  0.00  0.00    +0.013 C 
ATOM     11  C   UNL     1      32.722 -21.368 -18.601  0.00  0.00    -0.002 C 
ATOM     12  C   UNL     1      34.268 -22.440 -16.541  0.00  0.00    +0.057 C 
ATOM     13  C   UNL     1      32.105 -22.020 -17.533  0.00  0.00    +0.001 C 
ATOM     14  C   UNL     1      32.878 -22.556 -16.503  0.00  0.00    +0.015 C 
BRANCH   9  15
ATOM     15  C   UNL     1      34.771 -20.556 -19.780  0.00  0.00    +0.195 C 
BRANCH  15  16
ATOM     16  S   UNL     1      33.647 -19.346 -20.400  0.00  0.00    +0.045 S 
ATOM     17  O   UNL     1      32.291 -19.825 -20.189  0.00  0.00    -0.157 OA
ATOM     18  O   UNL     1      34.054 -18.050 -19.880  0.00  0.00    -0.157 OA
BRANCH  16  19
ATOM     19  N   UNL     1      34.011 -19.385 -22.071  0.00  0.00    -0.185 NA
ATOM     20  H   UNL     1      33.124 -19.464 -22.568  0.00  0.00    +0.148 HD
BRANCH  19  21
ATOM     21  C   UNL     1      34.742 -18.254 -22.669  0.00  0.00    +0.068 C 
BRANCH  21  22
ATOM     22  C   UNL     1      33.804 -17.476 -23.581  0.00  0.00    -0.058 C 
BRANCH  22  23
ATOM     23  N   UNL     1      34.178 -16.067 -23.607  0.00  0.00    +0.385 N 
ATOM     24  C   UNL     1      33.258 -15.305 -24.454  0.00  0.00    -0.101 C 
ATOM     25  C   UNL     1      34.196 -15.512 -22.252  0.00  0.00    -0.101 C 
ATOM     26  H   UNL     1      35.117 -15.994 -24.000  0.00  0.00    -0.080 HD
ENDBRANCH  22  23
ENDBRANCH  21  22
ENDBRANCH  19  21
ENDBRANCH  16  19
ENDBRANCH  15  16
ENDBRANCH   9  15
ENDBRANCH   1  12
BRANCH   5  27
ATOM     27  O   UNL     1      31.938 -23.276 -12.017  0.00  0.00    -0.427 OA
BRANCH  27  35
ATOM     28  N   UNL     1      27.794 -24.170 -15.494  0.00  0.00    -0.316 N 
ATOM     29  C   UNL     1      29.235 -22.822 -14.453  0.00  0.00    +0.017 C 
ATOM     30  C   UNL     1      28.832 -24.152 -14.590  0.00  0.00    +0.048 C 
ATOM     31  C   UNL     1      27.528 -22.902 -15.933  0.00  0.00    +0.026 C 
ATOM     32  C   UNL     1      28.403 -22.044 -15.306  0.00  0.00    +0.012 C 
ATOM     33  C   UNL     1      30.295 -22.521 -13.575  0.00  0.00    +0.039 C 
ATOM     34  C   UNL     1      29.439 -25.200 -13.890  0.00  0.00    +0.018 C 
ATOM     35  C   UNL     1      30.912 -23.559 -12.868  0.00  0.00    +0.148 C 
ATOM     36  C   UNL     1      30.488 -24.878 -13.024  0.00  0.00    +0.039 C 
ATOM     37  C   UNL     1      26.457 -22.638 -16.911  0.00  0.00    +0.047 C 
ATOM     38  H   UNL     1      27.313 -24.979 -15.784  0.00  0.00    +0.152 HD
ENDBRANCH  27  35
ENDBRANCH   5  27
TORSDOF 9
ENDMDL
MODEL 4
REMARK VINA RESULT:     -11.0      3.369     11.778
REMARK  Name = 52920501
REMARK  9 active torsions:
REMARK  status: ('A' for Active; 'I' for Inactive)
REMARK    1  A    between atoms: N_1  and  C_12
REMARK    2  A    between atoms: C_5  and  O_27
REMARK    3  A    between atoms: C_9  and  C_15
REMARK    4  A    between atoms: C_15  and  S_16
REMARK    5  A    between atoms: S_16  and  N_19
REMARK    6  A    between atoms: N_19  and  C_21
REMARK    7  A    between atoms: C_21  and  C_22
REMARK    8  A    between atoms: C_22  and  N_23
REMARK    9  A    between atoms: O_27  and  C_35
REMARK                            x       y       z     vdW  Elec       q    Type
REMARK                         _______ _______ _______ _____ _____    ______ ____
ROOT
ATOM      1  N   UNL     1      33.478 -18.612 -22.756  0.00  0.00    -0.247 N 
ATOM      2  N   UNL     1      33.752 -16.332 -22.271  0.00  0.00    -0.300 NA
ATOM      3  N   UNL     1      32.951 -17.051 -24.427  0.00  0.00    -0.170 NA
ATOM      4  C   UNL     1      33.389 -17.265 -23.171  0.00  0.00    +0.152 C 
ATOM      5  C   UNL     1      33.655 -15.057 -22.701  0.00  0.00    +0.295 C 
ATOM      6  C   UNL     1      33.220 -14.704 -23.962  0.00  0.00    +0.094 C 
ATOM      7  C   UNL     1      32.878 -15.754 -24.791  0.00  0.00    +0.118 C 
ATOM      8  H   UNL     1      33.203 -19.258 -23.446  0.00  0.00    +0.165 HD
ENDROOT
BRANCH   1  12
ATOM      9  C   UNL     1      33.336 -20.377 -19.505  0.00  0.00    +0.004 C 
ATOM     10  C   UNL     1      32.935 -19.784 -20.702  0.00  0.00    +0.013 C 
ATOM     11  C   UNL     1      34.686 -20.395 -19.154  0.00  0.00    -0.002 C 
ATOM     12  C   UNL     1      33.883 -19.210 -21.548  0.00  0.00    +0.057 C 
ATOM     13  C   UNL     1      35.635 -19.821 -20.001  0.00  0.00    +0.001 C 
ATOM     14  C   UNL     1      35.233 -19.228 -21.198  0.00  0.00    +0.015 C 
BRANCH   9  15
ATOM     15  C   UNL     1      32.322 -20.992 -18.601  0.00  0.00    +0.195 C 
BRANCH  15  16
ATOM     16  S   UNL     1      33.033 -22.446 -17.898  0.00  0.00    +0.045 S 
ATOM     17  O   UNL     1      32.977 -23.510 -18.887  0.00  0.00    -0.157 OA
ATOM     18  O   UNL     1      34.303 -22.076 -17.293  0.00  0.00    -0.157 OA
BRANCH  16  19
ATOM     19  N   UNL     1      31.922 -22.778 -16.641  0.00  0.00    -0.185 NA
ATOM     20  H   UNL     1      31.399 -23.610 -16.916  0.00  0.00    +0.148 HD
BRANCH  19  21
ATOM     21  C   UNL     1      32.435 -23.022 -15.281  0.00  0.00    +0.068 C 
BRANCH  21  22
ATOM     22  C   UNL     1      31.334 -22.735 -14.270  0.00  0.00    -0.058 C 
BRANCH  22  23
ATOM     23  N   UNL     1      30.155 -23.541 -14.564  0.00  0.00    +0.385 N 
ATOM     24  C   UNL     1      30.025 -24.635 -13.600  0.00  0.00    -0.101 C 
ATOM     25  C   UNL     1      28.949 -22.712 -14.556  0.00  0.00    -0.101 C 
ATOM     26  H   UNL     1      30.268 -23.941 -15.495  0.00  0.00    -0.080 HD
ENDBRANCH  22  23
ENDBRANCH  21  22
ENDBRANCH  19  21
ENDBRANCH  16  19
ENDBRANCH  15  16
ENDBRANCH   9  15
ENDBRANCH   1  12
BRANCH   5  27
ATOM     27  O   UNL     1      34.016 -14.061 -21.810  0.00  0.00    -0.427 OA
BRANCH  27  35
ATOM     28  N   UNL     1      30.431 -10.015 -20.895  0.00  0.00    -0.316 N 
ATOM     29  C   UNL     1      32.204 -10.876 -21.941  0.00  0.00    +0.017 C 
ATOM     30  C   UNL     1      31.224 -11.137 -20.980  0.00  0.00    +0.048 C 
ATOM     31  C   UNL     1      30.873  -9.057 -21.766  0.00  0.00    +0.026 C 
ATOM     32  C   UNL     1      31.970  -9.560 -22.428  0.00  0.00    +0.012 C 
ATOM     33  C   UNL     1      33.158 -11.873 -22.225  0.00  0.00    +0.039 C 
ATOM     34  C   UNL     1      31.151 -12.350 -20.287  0.00  0.00    +0.018 C 
ATOM     35  C   UNL     1      33.097 -13.092 -21.540  0.00  0.00    +0.148 C 
ATOM     36  C   UNL     1      32.108 -13.324 -20.586  0.00  0.00    +0.039 C 
ATOM     37  C   UNL     1      30.198  -7.751 -21.876  0.00  0.00    +0.047 C 
ATOM     38  H   UNL     1      29.656  -9.917 -20.294  0.00  0.00    +0.152 HD
ENDBRANCH  27  35
ENDBRANCH   5  27
TORSDOF 9
ENDMDL
MODEL 5
REMARK VINA RESULT:     -10.8      4.628      9.270
REMARK  Name = 52920501
REMARK  9 active torsions:
REMARK  status: ('A' for Active; 'I' for Inactive)
REMARK    1  A    between atoms: N_1  and  C_12
REMARK    2  A    between atoms: C_5  and  O_27
REMARK    3  A    between atoms: C_9  and  C_15
REMARK    4  A    between atoms: C_15  and  S_16
REMARK    5  A    between atoms: S_16  and  N_19
REMARK    6  A    between atoms: N_19  and  C_21
REMARK    7  A    between atoms: C_21  and  C_22
REMARK    8  A    between atoms: C_22  and  N_23
REMARK    9  A    between atoms: O_27  and  C_35
REMARK                            x       y       z     vdW  Elec       q    Type
REMARK                         _______ _______ _______ _____ _____    ______ ____
ROOT
ATOM      1  N   UNL     1      32.206 -14.554 -24.164  0.00  0.00    -0.247 N 
ATOM      2  N   UNL     1      33.650 -15.891 -22.887  0.00  0.00    -0.300 NA
ATOM      3  N   UNL     1      32.320 -16.845 -24.655  0.00  0.00    -0.170 NA
ATOM      4  C   UNL     1      32.753 -15.826 -23.888  0.00  0.00    +0.152 C 
ATOM      5  C   UNL     1      34.151 -17.121 -22.650  0.00  0.00    +0.295 C 
ATOM      6  C   UNL     1      33.791 -18.246 -23.364  0.00  0.00    +0.094 C 
ATOM      7  C   UNL     1      32.862 -18.046 -24.364  0.00  0.00    +0.118 C 
ATOM      8  H   UNL     1      31.555 -14.553 -24.903  0.00  0.00    +0.165 HD
ENDROOT
BRANCH   1  12
ATOM      9  C   UNL     1      33.355 -11.065 -23.701  0.00  0.00    +0.004 C 
ATOM     10  C   UNL     1      33.153 -12.321 -24.271  0.00  0.00    +0.013 C 
ATOM     11  C   UNL     1      32.815 -10.772 -22.448  0.00  0.00    -0.002 C 
ATOM     12  C   UNL     1      32.410 -13.285 -23.589  0.00  0.00    +0.057 C 
ATOM     13  C   UNL     1      32.072 -11.736 -21.766  0.00  0.00    +0.001 C 
ATOM     14  C   UNL     1      31.870 -12.993 -22.337  0.00  0.00    +0.015 C 
BRANCH   9  15
ATOM     15  C   UNL     1      34.148 -10.034 -24.430  0.00  0.00    +0.195 C 
BRANCH  15  16
ATOM     16  S   UNL     1      33.291  -8.497 -24.299  0.00  0.00    +0.045 S 
ATOM     17  O   UNL     1      33.847  -7.575 -25.276  0.00  0.00    -0.157 OA
ATOM     18  O   UNL     1      31.865  -8.780 -24.289  0.00  0.00    -0.157 OA
BRANCH  16  19
ATOM     19  N   UNL     1      33.746  -8.002 -22.726  0.00  0.00    -0.185 NA
ATOM     20  H   UNL     1      34.763  -8.052 -22.679  0.00  0.00    +0.148 HD
BRANCH  19  21
ATOM     21  C   UNL     1      33.358  -6.658 -22.261  0.00  0.00    +0.068 C 
BRANCH  21  22
ATOM     22  C   UNL     1      32.419  -6.790 -21.071  0.00  0.00    -0.058 C 
BRANCH  22  23
ATOM     23  N   UNL     1      31.282  -7.635 -21.416  0.00  0.00    +0.385 N 
ATOM     24  C   UNL     1      30.875  -8.447 -20.267  0.00  0.00    -0.101 C 
ATOM     25  C   UNL     1      30.158  -6.822 -21.884  0.00  0.00    -0.101 C 
ATOM     26  H   UNL     1      31.567  -8.259 -22.170  0.00  0.00    -0.080 HD
ENDBRANCH  22  23
ENDBRANCH  21  22
ENDBRANCH  19  21
ENDBRANCH  16  19
ENDBRANCH  15  16
ENDBRANCH   9  15
ENDBRANCH   1  12
BRANCH   5  27
ATOM     27  O   UNL     1      35.079 -17.239 -21.630  0.00  0.00    -0.427 OA
BRANCH  27  35
ATOM     28  N   UNL     1      34.467 -21.615 -18.384  0.00  0.00    -0.316 N 
ATOM     29  C   UNL     1      33.645 -19.983 -19.665  0.00  0.00    +0.017 C 
ATOM     30  C   UNL     1      34.825 -20.542 -19.167  0.00  0.00    +0.048 C 
ATOM     31  C   UNL     1      33.106 -21.756 -18.369  0.00  0.00    +0.026 C 
ATOM     32  C   UNL     1      32.569 -20.760 -19.153  0.00  0.00    +0.012 C 
ATOM     33  C   UNL     1      33.730 -18.856 -20.505  0.00  0.00    +0.039 C 
ATOM     34  C   UNL     1      36.090 -20.026 -19.470  0.00  0.00    +0.018 C 
ATOM     35  C   UNL     1      34.989 -18.330 -20.817  0.00  0.00    +0.148 C 
ATOM     36  C   UNL     1      36.149 -18.907 -20.306  0.00  0.00    +0.039 C 
ATOM     37  C   UNL     1      32.455 -22.834 -17.602  0.00  0.00    +0.047 C 
ATOM     38  H   UNL     1      35.099 -22.199 -17.904  0.00  0.00    +0.152 HD
ENDBRANCH  27  35
ENDBRANCH   5  27
TORSDOF 9
ENDMDL
MODEL 6
REMARK VINA RESULT:     -10.7      2.887     11.299
REMARK  Name = 52920501
REMARK  9 active torsions:
REMARK  status: ('A' for Active; 'I' for Inactive)
REMARK    1  A    between atoms: N_1  and  C_12
REMARK    2  A    between atoms: C_5  and  O_27
REMARK    3  A    between atoms: C_9  and  C_15
REMARK    4  A    between atoms: C_15  and  S_16
REMARK    5  A    between atoms: S_16  and  N_19
REMARK    6  A    between atoms: N_19  and  C_21
REMARK    7  A    between atoms: C_21  and  C_22
REMARK    8  A    between atoms: C_22  and  N_23
REMARK    9  A    between atoms: O_27  and  C_35
REMARK                            x       y       z     vdW  Elec       q    Type
REMARK                         _______ _______ _______ _____ _____    ______ ____
ROOT
ATOM      1  N   UNL     1      33.622 -19.247 -22.046  0.00  0.00    -0.247 N 
ATOM      2  N   UNL     1      34.009 -16.967 -22.448  0.00  0.00    -0.300 NA
ATOM      3  N   UNL     1      32.495 -18.230 -23.835  0.00  0.00    -0.170 NA
ATOM      4  C   UNL     1      33.363 -18.091 -22.814  0.00  0.00    +0.152 C 
ATOM      5  C   UNL     1      33.738 -15.883 -23.204  0.00  0.00    +0.295 C 
ATOM      6  C   UNL     1      32.870 -15.893 -24.276  0.00  0.00    +0.094 C 
ATOM      7  C   UNL     1      32.271 -17.107 -24.549  0.00  0.00    +0.118 C 
ATOM      8  H   UNL     1      33.129 -20.043 -22.348  0.00  0.00    +0.165 HD
ENDROOT
BRANCH   1  12
ATOM      9  C   UNL     1      34.903 -20.671 -18.877  0.00  0.00    +0.004 C 
ATOM     10  C   UNL     1      34.085 -20.438 -19.982  0.00  0.00    +0.013 C 
ATOM     11  C   UNL     1      36.086 -19.947 -18.720  0.00  0.00    -0.002 C 
ATOM     12  C   UNL     1      34.448 -19.482 -20.930  0.00  0.00    +0.057 C 
ATOM     13  C   UNL     1      36.449 -18.991 -19.669  0.00  0.00    +0.001 C 
ATOM     14  C   UNL     1      35.630 -18.758 -20.774  0.00  0.00    +0.015 C 
BRANCH   9  15
ATOM     15  C   UNL     1      34.515 -21.694 -17.864  0.00  0.00    +0.195 C 
BRANCH  15  16
ATOM     16  S   UNL     1      32.836 -22.144 -18.164  0.00  0.00    +0.045 S 
ATOM     17  O   UNL     1      32.092 -20.944 -18.509  0.00  0.00    -0.157 OA
ATOM     18  O   UNL     1      32.833 -23.289 -19.061  0.00  0.00    -0.157 OA
BRANCH  16  19
ATOM     19  N   UNL     1      32.360 -22.684 -16.612  0.00  0.00    -0.185 NA
ATOM     20  H   UNL     1      31.858 -23.563 -16.742  0.00  0.00    +0.148 HD
BRANCH  19  21
ATOM     21  C   UNL     1      33.395 -22.925 -15.591  0.00  0.00    +0.068 C 
BRANCH  21  22
ATOM     22  C   UNL     1      32.726 -23.164 -14.245  0.00  0.00    -0.058 C 
BRANCH  22  23
ATOM     23  N   UNL     1      33.322 -24.319 -13.583  0.00  0.00    +0.385 N 
ATOM     24  C   UNL     1      34.532 -24.748 -14.286  0.00  0.00    -0.101 C 
ATOM     25  C   UNL     1      33.628 -24.011 -12.185  0.00  0.00    -0.101 C 
ATOM     26  H   UNL     1      32.645 -25.082 -13.606  0.00  0.00    -0.080 HD
ENDBRANCH  22  23
ENDBRANCH  21  22
ENDBRANCH  19  21
ENDBRANCH  16  19
ENDBRANCH  15  16
ENDBRANCH   9  15
ENDBRANCH   1  12
BRANCH   5  27
ATOM     27  O   UNL     1      34.378 -14.703 -22.867  0.00  0.00    -0.427 OA
BRANCH  27  35
ATOM     28  N   UNL     1      31.188 -10.573 -21.185  0.00  0.00    -0.316 N 
ATOM     29  C   UNL     1      32.089 -12.597 -20.924  0.00  0.00    +0.017 C 
ATOM     30  C   UNL     1      32.028 -11.491 -21.774  0.00  0.00    +0.048 C 
ATOM     31  C   UNL     1      30.717 -11.059 -19.996  0.00  0.00    +0.026 C 
ATOM     32  C   UNL     1      31.257 -12.311 -19.806  0.00  0.00    +0.012 C 
ATOM     33  C   UNL     1      32.890 -13.695 -21.295  0.00  0.00    +0.039 C 
ATOM     34  C   UNL     1      32.732 -11.427 -22.982  0.00  0.00    +0.018 C 
ATOM     35  C   UNL     1      33.600 -13.645 -22.500  0.00  0.00    +0.148 C 
ATOM     36  C   UNL     1      33.521 -12.528 -23.329  0.00  0.00    +0.039 C 
ATOM     37  C   UNL     1      29.793 -10.272 -19.159  0.00  0.00    +0.047 C 
ATOM     38  H   UNL     1      30.960  -9.693 -21.565  0.00  0.00    +0.152 HD
ENDBRANCH  27  35
ENDBRANCH   5  27
TORSDOF 9
ENDMDL
MODEL 7
REMARK VINA RESULT:     -10.6      3.288     10.759
REMARK  Name = 52920501
REMARK  9 active torsions:
REMARK  status: ('A' for Active; 'I' for Inactive)
REMARK    1  A    between atoms: N_1  and  C_12
REMARK    2  A    between atoms: C_5  and  O_27
REMARK    3  A    between atoms: C_9  and  C_15
REMARK    4  A    between atoms: C_15  and  S_16
REMARK    5  A    between atoms: S_16  and  N_19
REMARK    6  A    between atoms: N_19  and  C_21
REMARK    7  A    between atoms: C_21  and  C_22
REMARK    8  A    between atoms: C_22  and  N_23
REMARK    9  A    between atoms: O_27  and  C_35
REMARK                            x       y       z     vdW  Elec       q    Type
REMARK                         _______ _______ _______ _____ _____    ______ ____
ROOT
ATOM      1  N   UNL     1      34.169 -20.777 -20.469  0.00  0.00    -0.247 N 
ATOM      2  N   UNL     1      34.288 -18.435 -20.385  0.00  0.00    -0.300 NA
ATOM      3  N   UNL     1      33.785 -19.576 -22.448  0.00  0.00    -0.170 NA
ATOM      4  C   UNL     1      34.076 -19.535 -21.133  0.00  0.00    +0.152 C 
ATOM      5  C   UNL     1      34.193 -17.266 -21.052  0.00  0.00    +0.295 C 
ATOM      6  C   UNL     1      33.901 -17.172 -22.397  0.00  0.00    +0.094 C 
ATOM      7  C   UNL     1      33.706 -18.371 -23.051  0.00  0.00    +0.118 C 
ATOM      8  H   UNL     1      34.006 -21.553 -21.053  0.00  0.00    +0.165 HD
ENDROOT
BRANCH   1  12
ATOM      9  C   UNL     1      33.757 -22.115 -17.041  0.00  0.00    +0.004 C 
ATOM     10  C   UNL     1      33.480 -21.772 -18.364  0.00  0.00    +0.013 C 
ATOM     11  C   UNL     1      35.000 -21.810 -16.487  0.00  0.00    -0.002 C 
ATOM     12  C   UNL     1      34.447 -21.124 -19.133  0.00  0.00    +0.057 C 
ATOM     13  C   UNL     1      35.967 -21.162 -17.255  0.00  0.00    +0.001 C 
ATOM     14  C   UNL     1      35.690 -20.819 -18.579  0.00  0.00    +0.015 C 
BRANCH   9  15
ATOM     15  C   UNL     1      32.723 -22.809 -16.219  0.00  0.00    +0.195 C 
BRANCH  15  16
ATOM     16  S   UNL     1      33.506 -23.406 -14.756  0.00  0.00    +0.045 S 
ATOM     17  O   UNL     1      34.213 -24.635 -15.080  0.00  0.00    -0.157 OA
ATOM     18  O   UNL     1      34.215 -22.295 -14.142  0.00  0.00    -0.157 OA
BRANCH  16  19
ATOM     19  N   UNL     1      32.147 -23.771 -13.783  0.00  0.00    -0.185 NA
ATOM     20  H   UNL     1      32.500 -24.165 -12.911  0.00  0.00    +0.148 HD
BRANCH  19  21
ATOM     21  C   UNL     1      31.216 -22.687 -13.422  0.00  0.00    +0.068 C 
BRANCH  21  22
ATOM     22  C   UNL     1      29.812 -23.258 -13.277  0.00  0.00    -0.058 C 
BRANCH  22  23
ATOM     23  N   UNL     1      29.347 -23.784 -14.554  0.00  0.00    +0.385 N 
ATOM     24  C   UNL     1      28.252 -24.735 -14.352  0.00  0.00    -0.101 C 
ATOM     25  C   UNL     1      28.918 -22.696 -15.435  0.00  0.00    -0.101 C 
ATOM     26  H   UNL     1      30.123 -24.274 -14.998  0.00  0.00    -0.080 HD
ENDBRANCH  22  23
ENDBRANCH  21  22
ENDBRANCH  19  21
ENDBRANCH  16  19
ENDBRANCH  15  16
ENDBRANCH   9  15
ENDBRANCH   1  12
BRANCH   5  27
ATOM     27  O   UNL     1      34.403 -16.107 -20.325  0.00  0.00    -0.427 OA
BRANCH  27  35
ATOM     28  N   UNL     1      31.488 -11.641 -21.600  0.00  0.00    -0.316 N 
ATOM     29  C   UNL     1      32.040 -13.304 -20.219  0.00  0.00    +0.017 C 
ATOM     30  C   UNL     1      32.310 -12.737 -21.467  0.00  0.00    +0.048 C 
ATOM     31  C   UNL     1      30.711 -11.494 -20.483  0.00  0.00    +0.026 C 
ATOM     32  C   UNL     1      31.029 -12.509 -19.610  0.00  0.00    +0.012 C 
ATOM     33  C   UNL     1      32.753 -14.454 -19.827  0.00  0.00    +0.039 C 
ATOM     34  C   UNL     1      33.261 -13.267 -22.346  0.00  0.00    +0.018 C 
ATOM     35  C   UNL     1      33.708 -14.994 -20.696  0.00  0.00    +0.148 C 
ATOM     36  C   UNL     1      33.956 -14.408 -21.936  0.00  0.00    +0.039 C 
ATOM     37  C   UNL     1      29.737 -10.393 -20.366  0.00  0.00    +0.047 C 
ATOM     38  H   UNL     1      31.464 -11.047 -22.385  0.00  0.00    +0.152 HD
ENDBRANCH  27  35
ENDBRANCH   5  27
TORSDOF 9
ENDMDL
MODEL 8
REMARK VINA RESULT:     -10.6      4.635      9.208
REMARK  Name = 52920501
REMARK  9 active torsions:
REMARK  status: ('A' for Active; 'I' for Inactive)
REMARK    1  A    between atoms: N_1  and  C_12
REMARK    2  A    between atoms: C_5  and  O_27
REMARK    3  A    between atoms: C_9  and  C_15
REMARK    4  A    between atoms: C_15  and  S_16
REMARK    5  A    between atoms: S_16  and  N_19
REMARK    6  A    between atoms: N_19  and  C_21
REMARK    7  A    between atoms: C_21  and  C_22
REMARK    8  A    between atoms: C_22  and  N_23
REMARK    9  A    between atoms: O_27  and  C_35
REMARK                            x       y       z     vdW  Elec       q    Type
REMARK                         _______ _______ _______ _____ _____    ______ ____
ROOT
ATOM      1  N   UNL     1      32.089 -14.880 -24.313  0.00  0.00    -0.247 N 
ATOM      2  N   UNL     1      33.552 -16.178 -23.016  0.00  0.00    -0.300 NA
ATOM      3  N   UNL     1      32.125 -17.199 -24.668  0.00  0.00    -0.170 NA
ATOM      4  C   UNL     1      32.615 -16.148 -23.982  0.00  0.00    +0.152 C 
ATOM      5  C   UNL     1      34.031 -17.405 -22.726  0.00  0.00    +0.295 C 
ATOM      6  C   UNL     1      33.614 -18.560 -23.354  0.00  0.00    +0.094 C 
ATOM      7  C   UNL     1      32.649 -18.395 -24.327  0.00  0.00    +0.118 C 
ATOM      8  H   UNL     1      31.408 -14.906 -25.024  0.00  0.00    +0.165 HD
ENDROOT
BRANCH   1  12
ATOM      9  C   UNL     1      32.301 -11.980 -22.020  0.00  0.00    +0.004 C 
ATOM     10  C   UNL     1      32.044 -13.263 -22.503  0.00  0.00    +0.013 C 
ATOM     11  C   UNL     1      32.864 -11.019 -22.860  0.00  0.00    -0.002 C 
ATOM     12  C   UNL     1      32.349 -13.586 -23.825  0.00  0.00    +0.057 C 
ATOM     13  C   UNL     1      33.169 -11.341 -24.183  0.00  0.00    +0.001 C 
ATOM     14  C   UNL     1      32.911 -12.624 -24.665  0.00  0.00    +0.015 C 
BRANCH   9  15
ATOM     15  C   UNL     1      31.976 -11.636 -20.606  0.00  0.00    +0.195 C 
BRANCH  15  16
ATOM     16  S   UNL     1      30.788 -10.332 -20.625  0.00  0.00    +0.045 S 
ATOM     17  O   UNL     1      31.108  -9.433 -21.721  0.00  0.00    -0.157 OA
ATOM     18  O   UNL     1      29.465 -10.930 -20.533  0.00  0.00    -0.157 OA
BRANCH  16  19
ATOM     19  N   UNL     1      31.126  -9.560 -19.137  0.00  0.00    -0.185 NA
ATOM     20  H   UNL     1      32.117  -9.708 -18.942  0.00  0.00    +0.148 HD
BRANCH  19  21
ATOM     21  C   UNL     1      30.873  -8.113 -19.010  0.00  0.00    +0.068 C 
BRANCH  21  22
ATOM     22  C   UNL     1      32.069  -7.344 -19.553  0.00  0.00    -0.058 C 
BRANCH  22  23
ATOM     23  N   UNL     1      31.711  -5.951 -19.785  0.00  0.00    +0.385 N 
ATOM     24  C   UNL     1      30.521  -5.858 -20.634  0.00  0.00    -0.101 C 
ATOM     25  C   UNL     1      31.483  -5.257 -18.516  0.00  0.00    -0.101 C 
ATOM     26  H   UNL     1      32.488  -5.499 -20.267  0.00  0.00    -0.080 HD
ENDBRANCH  22  23
ENDBRANCH  21  22
ENDBRANCH  19  21
ENDBRANCH  16  19
ENDBRANCH  15  16
ENDBRANCH   9  15
ENDBRANCH   1  12
BRANCH   5  27
ATOM     27  O   UNL     1      34.998 -17.487 -21.738  0.00  0.00    -0.427 OA
BRANCH  27  35
ATOM     28  N   UNL     1      34.402 -21.642 -18.211  0.00  0.00    -0.316 N 
ATOM     29  C   UNL     1      33.576 -20.113 -19.609  0.00  0.00    +0.017 C 
ATOM     30  C   UNL     1      34.756 -20.619 -19.060  0.00  0.00    +0.048 C 
ATOM     31  C   UNL     1      33.043 -21.802 -18.203  0.00  0.00    +0.026 C 
ATOM     32  C   UNL     1      32.503 -20.868 -19.060  0.00  0.00    +0.012 C 
ATOM     33  C   UNL     1      33.656 -19.044 -20.523  0.00  0.00    +0.039 C 
ATOM     34  C   UNL     1      36.018 -20.106 -19.381  0.00  0.00    +0.018 C 
ATOM     35  C   UNL     1      34.912 -18.521 -20.854  0.00  0.00    +0.148 C 
ATOM     36  C   UNL     1      36.073 -19.046 -20.290  0.00  0.00    +0.039 C 
ATOM     37  C   UNL     1      32.397 -22.834 -17.373  0.00  0.00    +0.047 C 
ATOM     38  H   UNL     1      35.036 -22.183 -17.685  0.00  0.00    +0.152 HD
ENDBRANCH  27  35
ENDBRANCH   5  27
TORSDOF 9
ENDMDL
MODEL 9
REMARK VINA RESULT:     -10.6      2.927     11.201
REMARK  Name = 52920501
REMARK  9 active torsions:
REMARK  status: ('A' for Active; 'I' for Inactive)
REMARK    1  A    between atoms: N_1  and  C_12
REMARK    2  A    between atoms: C_5  and  O_27
REMARK    3  A    between atoms: C_9  and  C_15
REMARK    4  A    between atoms: C_15  and  S_16
REMARK    5  A    between atoms: S_16  and  N_19
REMARK    6  A    between atoms: N_19  and  C_21
REMARK    7  A    between atoms: C_21  and  C_22
REMARK    8  A    between atoms: C_22  and  N_23
REMARK    9  A    between atoms: O_27  and  C_35
REMARK                            x       y       z     vdW  Elec       q    Type
REMARK                         _______ _______ _______ _____ _____    ______ ____
ROOT
ATOM      1  N   UNL     1      34.207 -20.815 -20.434  0.00  0.00    -0.247 N 
ATOM      2  N   UNL     1      34.189 -18.484 -20.166  0.00  0.00    -0.300 NA
ATOM      3  N   UNL     1      34.343 -19.476 -22.357  0.00  0.00    -0.170 NA
ATOM      4  C   UNL     1      34.248 -19.528 -21.014  0.00  0.00    +0.152 C 
ATOM      5  C   UNL     1      34.231 -17.270 -20.754  0.00  0.00    +0.295 C 
ATOM      6  C   UNL     1      34.327 -17.081 -22.117  0.00  0.00    +0.094 C 
ATOM      7  C   UNL     1      34.380 -18.232 -22.877  0.00  0.00    +0.118 C 
ATOM      8  H   UNL     1      34.253 -21.547 -21.091  0.00  0.00    +0.165 HD
ENDROOT
BRANCH   1  12
ATOM      9  C   UNL     1      35.148 -21.693 -16.962  0.00  0.00    +0.004 C 
ATOM     10  C   UNL     1      35.243 -21.256 -18.284  0.00  0.00    +0.013 C 
ATOM     11  C   UNL     1      33.923 -22.129 -16.459  0.00  0.00    -0.002 C 
ATOM     12  C   UNL     1      34.113 -21.255 -19.101  0.00  0.00    +0.057 C 
ATOM     13  C   UNL     1      32.792 -22.128 -17.276  0.00  0.00    +0.001 C 
ATOM     14  C   UNL     1      32.887 -21.692 -18.597  0.00  0.00    +0.015 C 
BRANCH   9  15
ATOM     15  C   UNL     1      36.357 -21.693 -16.089  0.00  0.00    +0.195 C 
BRANCH  15  16
ATOM     16  S   UNL     1      36.064 -22.815 -14.759  0.00  0.00    +0.045 S 
ATOM     17  O   UNL     1      35.683 -22.048 -13.584  0.00  0.00    -0.157 OA
ATOM     18  O   UNL     1      35.200 -23.876 -15.251  0.00  0.00    -0.157 OA
BRANCH  16  19
ATOM     19  N   UNL     1      37.629 -23.467 -14.531  0.00  0.00    -0.185 NA
ATOM     20  H   UNL     1      38.090 -22.897 -13.822  0.00  0.00    +0.148 HD
BRANCH  19  21
ATOM     21  C   UNL     1      37.762 -24.872 -14.107  0.00  0.00    +0.068 C 
BRANCH  21  22
ATOM     22  C   UNL     1      37.908 -24.929 -12.593  0.00  0.00    -0.058 C 
BRANCH  22  23
ATOM     23  N   UNL     1      36.842 -25.737 -12.013  0.00  0.00    +0.385 N 
ATOM     24  C   UNL     1      35.858 -24.887 -11.341  0.00  0.00    -0.101 C 
ATOM     25  C   UNL     1      36.192 -26.550 -13.042  0.00  0.00    -0.101 C 
ATOM     26  H   UNL     1      37.258 -26.361 -11.321  0.00  0.00    -0.080 HD
ENDBRANCH  22  23
ENDBRANCH  21  22
ENDBRANCH  19  21
ENDBRANCH  16  19
ENDBRANCH  15  16
ENDBRANCH   9  15
ENDBRANCH   1  12
BRANCH   5  27
ATOM     27  O   UNL     1      34.172 -16.164 -19.923  0.00  0.00    -0.427 OA
BRANCH  27  35
ATOM     28  N   UNL     1      31.561 -11.657 -21.634  0.00  0.00    -0.316 N 
ATOM     29  C   UNL     1      31.962 -13.244 -20.119  0.00  0.00    +0.017 C 
ATOM     30  C   UNL     1      32.316 -12.781 -21.388  0.00  0.00    +0.048 C 
ATOM     31  C   UNL     1      30.745 -11.392 -20.568  0.00  0.00    +0.026 C 
ATOM     32  C   UNL     1      30.970 -12.358 -19.613  0.00  0.00    +0.012 C 
ATOM     33  C   UNL     1      32.594 -14.399 -19.617  0.00  0.00    +0.039 C 
ATOM     34  C   UNL     1      33.274 -13.419 -22.184  0.00  0.00    +0.018 C 
ATOM     35  C   UNL     1      33.555 -15.047 -20.401  0.00  0.00    +0.148 C 
ATOM     36  C   UNL     1      33.888 -14.563 -21.665  0.00  0.00    +0.039 C 
ATOM     37  C   UNL     1      29.828 -10.238 -20.572  0.00  0.00    +0.047 C 
ATOM     38  H   UNL     1      31.603 -11.119 -22.458  0.00  0.00    +0.152 HD
ENDBRANCH  27  35
ENDBRANCH   5  27
TORSDOF 9
ENDMDL
