MODEL 1
REMARK VINA RESULT:     -12.3      0.000      0.000
REMARK  Name = 446560
REMARK  8 active torsions:
REMARK  status: ('A' for Active; 'I' for Inactive)
REMARK    1  A    between atoms: C_1  and  C_19
REMARK    2  A    between atoms: C_2  and  C_9
REMARK    3  A    between atoms: N_8  and  CA_11
REMARK    4  A    between atoms: CA_11  and  CB_12
REMARK    5  A    between atoms: CA_11  and  C_16
REMARK    6  A    between atoms: C_16  and  O_17
REMARK    7  A    between atoms: C_19  and  C_20
REMARK    8  A    between atoms: C_20  and  C_26
REMARK                            x       y       z     vdW  Elec       q    Type
REMARK                         _______ _______ _______ _____ _____    ______ ____
ROOT
ATOM      1  C   UNL     1      34.113 -19.966 -19.947  0.00  0.00    -0.022 C 
ATOM      2  C   UNL     1      32.885 -21.743 -18.230  0.00  0.00    +0.053 C 
ATOM      3  C   UNL     1      32.720 -20.021 -19.878  0.00  0.00    -0.004 C 
ATOM      4  C   UNL     1      34.884 -20.811 -19.148  0.00  0.00    -0.004 C 
ATOM      5  C   UNL     1      32.100 -20.918 -19.010  0.00  0.00    +0.004 C 
ATOM      6  C   UNL     1      34.263 -21.710 -18.281  0.00  0.00    +0.004 C 
ENDROOT
BRANCH   2   9
ATOM      7  O   UNL     1      32.621 -23.860 -17.258  0.00  0.00    -0.270 OA
ATOM      8  N   UNL     1      31.200 -22.180 -16.529  0.00  0.00    -0.293 N 
ATOM      9  C   ACE A   0      32.224 -22.699 -17.304  0.00  0.00    +0.246 C 
ATOM     10  H   UNL     1      30.955 -21.233 -16.641  0.00  0.00    +0.150 HD
BRANCH   8  11
ATOM     11  CA  UNL     1      30.478 -22.978 -15.565  0.00  0.00    +0.171 C 
BRANCH  11  12
ATOM     12  CB  UNL     1      30.961 -22.650 -14.135  0.00  0.00    +0.029 C 
ATOM     13  CG1 UNL     1      32.349 -23.231 -13.846  0.00  0.00    +0.002 C 
ATOM     14  CG2 UNL     1      29.970 -23.081 -13.050  0.00  0.00    +0.002 C 
ENDBRANCH  11  12
BRANCH  11  16
ATOM     15  OXT UNL     1      28.417 -21.790 -16.057  0.00  0.00    -0.248 OA
ATOM     16  C   UNL     1      28.972 -22.844 -15.767  0.00  0.00    +0.332 C 
BRANCH  16  17
ATOM     17  O   UNL     1      28.269 -23.983 -15.549  0.00  0.00    -0.479 OA
ATOM     18  H   UNL     1      27.629 -24.014 -14.865  0.00  0.00    +0.295 HD
ENDBRANCH  16  17
ENDBRANCH  11  16
ENDBRANCH   8  11
ENDBRANCH   2   9
BRANCH   1  19
ATOM     19  C   UNL     1      34.775 -19.006 -20.876  0.00  0.00    +0.031 C 
BRANCH  19  20
ATOM     20  C   UNL     1      34.369 -17.534 -20.658  0.00  0.00    +0.033 C 
BRANCH  20  26
ATOM     21  O   UNL     1      33.561 -14.556 -19.893  0.00  0.00    -0.209 OA
ATOM     22  N   UNL     1      34.162 -16.269 -24.096  0.00  0.00    -0.300 N 
ATOM     23  N   UNL     1      33.550 -13.946 -23.899  0.00  0.00    -0.264 N 
ATOM     24  N   UNL     1      33.252 -13.114 -21.672  0.00  0.00    -0.302 NA
ATOM     25  N   UNL     1      32.962 -11.738 -23.563  0.00  0.00    -0.320 N 
ATOM     26  C   UNL     1      34.214 -16.762 -21.937  0.00  0.00    +0.007 C 
ATOM     27  C   UNL     1      33.865 -15.412 -22.051  0.00  0.00    +0.120 C 
ATOM     28  C   UNL     1      33.846 -15.151 -23.395  0.00  0.00    +0.115 C 
ATOM     29  C   UNL     1      34.395 -17.282 -23.191  0.00  0.00    +0.059 C 
ATOM     30  C   UNL     1      33.554 -14.354 -21.102  0.00  0.00    +0.209 C 
ATOM     31  C   UNL     1      33.255 -12.945 -22.979  0.00  0.00    +0.248 C 
ATOM     32  H   UNL     1      34.217 -16.344 -25.076  0.00  0.00    +0.153 HD
ATOM     33  H   UNL     1      33.540 -13.777 -24.869  0.00  0.00    +0.157 HD
ATOM     34  H   UNL     1      32.975 -11.649 -24.543  0.00  0.00    +0.146 HD
ATOM     35  H   UNL     1      32.740 -10.961 -23.001  0.00  0.00    +0.146 HD
ENDBRANCH  20  26
ENDBRANCH  19  20
ENDBRANCH   1  19
TORSDOF 8
ENDMDL
MODEL 2
REMARK VINA RESULT:     -12.1      1.362      2.005
REMARK  Name = 446560
REMARK  8 active torsions:
REMARK  status: ('A' for Active; 'I' for Inactive)
REMARK    1  A    between atoms: C_1  and  C_19
REMARK    2  A    between atoms: C_2  and  C_9
REMARK    3  A    between atoms: N_8  and  CA_11
REMARK    4  A    between atoms: CA_11  and  CB_12
REMARK    5  A    between atoms: CA_11  and  C_16
REMARK    6  A    between atoms: C_16  and  O_17
REMARK    7  A    between atoms: C_19  and  C_20
REMARK    8  A    between atoms: C_20  and  C_26
REMARK                            x       y       z     vdW  Elec       q    Type
REMARK                         _______ _______ _______ _____ _____    ______ ____
ROOT
ATOM      1  C   UNL     1      34.537 -19.935 -19.783  0.00  0.00    -0.022 C 
ATOM      2  C   UNL     1      33.194 -21.765 -18.214  0.00  0.00    +0.053 C 
ATOM      3  C   UNL     1      35.249 -20.773 -18.924  0.00  0.00    -0.004 C 
ATOM      4  C   UNL     1      33.146 -20.022 -19.848  0.00  0.00    -0.004 C 
ATOM      5  C   UNL     1      34.570 -21.698 -18.132  0.00  0.00    +0.004 C 
ATOM      6  C   UNL     1      32.468 -20.947 -19.054  0.00  0.00    +0.004 C 
ENDROOT
BRANCH   2   9
ATOM      7  O   UNL     1      32.669 -23.950 -17.547  0.00  0.00    -0.270 OA
ATOM      8  N   UNL     1      31.623 -22.219 -16.412  0.00  0.00    -0.293 N 
ATOM      9  C   ACE A   0      32.471 -22.750 -17.371  0.00  0.00    +0.246 C 
ATOM     10  H   UNL     1      31.532 -21.241 -16.351  0.00  0.00    +0.150 HD
BRANCH   8  11
ATOM     11  CA  UNL     1      30.869 -23.048 -15.500  0.00  0.00    +0.171 C 
BRANCH  11  12
ATOM     12  CB  UNL     1      31.305 -22.772 -14.045  0.00  0.00    +0.029 C 
ATOM     13  CG1 UNL     1      32.634 -23.452 -13.699  0.00  0.00    +0.002 C 
ATOM     14  CG2 UNL     1      30.236 -23.144 -13.013  0.00  0.00    +0.002 C 
ENDBRANCH  11  12
BRANCH  11  16
ATOM     15  OXT UNL     1      28.848 -21.877 -16.163  0.00  0.00    -0.248 OA
ATOM     16  C   UNL     1      29.371 -22.904 -15.747  0.00  0.00    +0.332 C 
BRANCH  16  17
ATOM     17  O   UNL     1      28.636 -23.995 -15.418  0.00  0.00    -0.479 OA
ATOM     18  H   UNL     1      27.808 -24.143 -15.830  0.00  0.00    +0.295 HD
ENDBRANCH  16  17
ENDBRANCH  11  16
ENDBRANCH   8  11
ENDBRANCH   2   9
BRANCH   1  19
ATOM     19  C   UNL     1      35.264 -18.946 -20.630  0.00  0.00    +0.031 C 
BRANCH  19  20
ATOM     20  C   UNL     1      34.438 -18.400 -21.813  0.00  0.00    +0.033 C 
BRANCH  20  26
ATOM     21  O   UNL     1      33.687 -17.348 -24.717  0.00  0.00    -0.209 OA
ATOM     22  N   UNL     1      33.838 -14.913 -20.845  0.00  0.00    -0.300 N 
ATOM     23  N   UNL     1      33.220 -13.770 -22.875  0.00  0.00    -0.264 N 
ATOM     24  N   UNL     1      33.160 -15.103 -24.864  0.00  0.00    -0.302 NA
ATOM     25  N   UNL     1      32.643 -12.804 -24.891  0.00  0.00    -0.320 N 
ATOM     26  C   UNL     1      34.133 -16.934 -21.701  0.00  0.00    +0.007 C 
ATOM     27  C   UNL     1      33.757 -16.085 -22.747  0.00  0.00    +0.120 C 
ATOM     28  C   UNL     1      33.586 -14.853 -22.176  0.00  0.00    +0.115 C 
ATOM     29  C   UNL     1      34.181 -16.211 -20.538  0.00  0.00    +0.059 C 
ATOM     30  C   UNL     1      33.540 -16.259 -24.175  0.00  0.00    +0.209 C 
ATOM     31  C   UNL     1      33.016 -13.952 -24.238  0.00  0.00    +0.248 C 
ATOM     32  H   UNL     1      33.786 -14.162 -20.209  0.00  0.00    +0.153 HD
ATOM     33  H   UNL     1      33.102 -12.891 -22.446  0.00  0.00    +0.157 HD
ATOM     34  H   UNL     1      32.545 -11.963 -24.391  0.00  0.00    +0.146 HD
ATOM     35  H   UNL     1      32.472 -12.823 -25.861  0.00  0.00    +0.146 HD
ENDBRANCH  20  26
ENDBRANCH  19  20
ENDBRANCH   1  19
TORSDOF 8
ENDMDL
MODEL 3
REMARK VINA RESULT:     -11.8      2.167      3.050
REMARK  Name = 446560
REMARK  8 active torsions:
REMARK  status: ('A' for Active; 'I' for Inactive)
REMARK    1  A    between atoms: C_1  and  C_19
REMARK    2  A    between atoms: C_2  and  C_9
REMARK    3  A    between atoms: N_8  and  CA_11
REMARK    4  A    between atoms: CA_11  and  CB_12
REMARK    5  A    between atoms: CA_11  and  C_16
REMARK    6  A    between atoms: C_16  and  O_17
REMARK    7  A    between atoms: C_19  and  C_20
REMARK    8  A    between atoms: C_20  and  C_26
REMARK                            x       y       z     vdW  Elec       q    Type
REMARK                         _______ _______ _______ _____ _____    ______ ____
ROOT
ATOM      1  C   UNL     1      33.518 -19.605 -20.424  0.00  0.00    -0.022 C 
ATOM      2  C   UNL     1      33.391 -21.528 -18.449  0.00  0.00    +0.053 C 
ATOM      3  C   UNL     1      32.279 -20.039 -19.951  0.00  0.00    -0.004 C 
ATOM      4  C   UNL     1      34.693 -20.144 -19.898  0.00  0.00    -0.004 C 
ATOM      5  C   UNL     1      32.215 -21.010 -18.953  0.00  0.00    +0.004 C 
ATOM      6  C   UNL     1      34.628 -21.117 -18.900  0.00  0.00    +0.004 C 
ENDROOT
BRANCH   2   9
ATOM      7  O   UNL     1      32.708 -23.603 -17.599  0.00  0.00    -0.270 OA
ATOM      8  N   UNL     1      33.999 -22.266 -16.211  0.00  0.00    -0.293 N 
ATOM      9  C   ACE A   0      33.323 -22.561 -17.385  0.00  0.00    +0.246 C 
ATOM     10  H   UNL     1      34.463 -21.401 -16.137  0.00  0.00    +0.150 HD
BRANCH   8  11
ATOM     11  CA  UNL     1      34.046 -23.181 -15.094  0.00  0.00    +0.171 C 
BRANCH  11  12
ATOM     12  CB  UNL     1      35.436 -23.131 -14.423  0.00  0.00    +0.029 C 
ATOM     13  CG1 UNL     1      36.414 -22.228 -15.183  0.00  0.00    +0.002 C 
ATOM     14  CG2 UNL     1      36.053 -24.516 -14.207  0.00  0.00    +0.002 C 
ENDBRANCH  11  12
BRANCH  11  16
ATOM     15  OXT UNL     1      31.753 -22.628 -14.516  0.00  0.00    -0.248 OA
ATOM     16  C   UNL     1      32.879 -22.938 -14.143  0.00  0.00    +0.332 C 
BRANCH  16  17
ATOM     17  O   UNL     1      33.191 -23.041 -12.827  0.00  0.00    -0.479 OA
ATOM     18  H   UNL     1      33.304 -23.887 -12.438  0.00  0.00    +0.295 HD
ENDBRANCH  16  17
ENDBRANCH  11  16
ENDBRANCH   8  11
ENDBRANCH   2   9
BRANCH   1  19
ATOM     19  C   UNL     1      33.586 -18.567 -21.492  0.00  0.00    +0.031 C 
BRANCH  19  20
ATOM     20  C   UNL     1      34.582 -17.425 -21.201  0.00  0.00    +0.033 C 
BRANCH  20  26
ATOM     21  O   UNL     1      34.049 -17.212 -24.328  0.00  0.00    -0.209 OA
ATOM     22  N   UNL     1      33.279 -13.996 -21.163  0.00  0.00    -0.300 N 
ATOM     23  N   UNL     1      32.747 -13.476 -23.456  0.00  0.00    -0.264 N 
ATOM     24  N   UNL     1      33.174 -15.203 -25.060  0.00  0.00    -0.302 NA
ATOM     25  N   UNL     1      32.284 -13.114 -25.688  0.00  0.00    -0.320 N 
ATOM     26  C   UNL     1      34.021 -16.059 -21.475  0.00  0.00    +0.007 C 
ATOM     27  C   UNL     1      33.647 -15.554 -22.725  0.00  0.00    +0.120 C 
ATOM     28  C   UNL     1      33.196 -14.283 -22.486  0.00  0.00    +0.115 C 
ATOM     29  C   UNL     1      33.793 -15.102 -20.523  0.00  0.00    +0.059 C 
ATOM     30  C   UNL     1      33.651 -16.080 -24.081  0.00  0.00    +0.209 C 
ATOM     31  C   UNL     1      32.756 -13.992 -24.747  0.00  0.00    +0.248 C 
ATOM     32  H   UNL     1      33.018 -13.148 -20.736  0.00  0.00    +0.153 HD
ATOM     33  H   UNL     1      32.427 -12.564 -23.265  0.00  0.00    +0.157 HD
ATOM     34  H   UNL     1      31.980 -12.217 -25.418  0.00  0.00    +0.146 HD
ATOM     35  H   UNL     1      32.247 -13.380 -26.636  0.00  0.00    +0.146 HD
ENDBRANCH  20  26
ENDBRANCH  19  20
ENDBRANCH   1  19
TORSDOF 8
ENDMDL
MODEL 4
REMARK VINA RESULT:     -11.7      1.840      2.509
REMARK  Name = 446560
REMARK  8 active torsions:
REMARK  status: ('A' for Active; 'I' for Inactive)
REMARK    1  A    between atoms: C_1  and  C_19
REMARK    2  A    between atoms: C_2  and  C_9
REMARK    3  A    between atoms: N_8  and  CA_11
REMARK    4  A    between atoms: CA_11  and  CB_12
REMARK    5  A    between atoms: CA_11  and  C_16
REMARK    6  A    between atoms: C_16  and  O_17
REMARK    7  A    between atoms: C_19  and  C_20
REMARK    8  A    between atoms: C_20  and  C_26
REMARK                            x       y       z     vdW  Elec       q    Type
REMARK                         _______ _______ _______ _____ _____    ______ ____
ROOT
ATOM      1  C   UNL     1      34.747 -19.406 -20.283  0.00  0.00    -0.022 C 
ATOM      2  C   UNL     1      33.765 -21.402 -18.650  0.00  0.00    +0.053 C 
ATOM      3  C   UNL     1      33.374 -19.648 -20.224  0.00  0.00    -0.004 C 
ATOM      4  C   UNL     1      35.624 -20.175 -19.516  0.00  0.00    -0.004 C 
ATOM      5  C   UNL     1      32.878 -20.656 -19.398  0.00  0.00    +0.004 C 
ATOM      6  C   UNL     1      35.127 -21.184 -18.691  0.00  0.00    +0.004 C 
ENDROOT
BRANCH   2   9
ATOM      7  O   UNL     1      32.676 -23.444 -18.276  0.00  0.00    -0.270 OA
ATOM      8  N   UNL     1      33.449 -22.303 -16.411  0.00  0.00    -0.293 N 
ATOM      9  C   ACE A   0      33.238 -22.476 -17.770  0.00  0.00    +0.246 C 
ATOM     10  H   UNL     1      33.911 -21.489 -16.104  0.00  0.00    +0.150 HD
BRANCH   8  11
ATOM     11  CA  UNL     1      33.017 -23.271 -15.430  0.00  0.00    +0.171 C 
BRANCH  11  12
ATOM     12  CB  UNL     1      34.105 -23.458 -14.350  0.00  0.00    +0.029 C 
ATOM     13  CG1 UNL     1      35.311 -22.541 -14.579  0.00  0.00    +0.002 C 
ATOM     14  CG2 UNL     1      34.565 -24.911 -14.201  0.00  0.00    +0.002 C 
ENDBRANCH  11  12
BRANCH  11  16
ATOM     15  OXT UNL     1      30.600 -23.045 -15.517  0.00  0.00    -0.248 OA
ATOM     16  C   UNL     1      31.640 -22.912 -14.882  0.00  0.00    +0.332 C 
BRANCH  16  17
ATOM     17  O   UNL     1      31.651 -22.375 -13.636  0.00  0.00    -0.479 OA
ATOM     18  H   UNL     1      31.893 -21.478 -13.516  0.00  0.00    +0.295 HD
ENDBRANCH  16  17
ENDBRANCH  11  16
ENDBRANCH   8  11
ENDBRANCH   2   9
BRANCH   1  19
ATOM     19  C   UNL     1      35.276 -18.328 -21.166  0.00  0.00    +0.031 C 
BRANCH  19  20
ATOM     20  C   UNL     1      34.216 -17.687 -22.085  0.00  0.00    +0.033 C 
BRANCH  20  26
ATOM     21  O   UNL     1      33.631 -16.207 -24.837  0.00  0.00    -0.209 OA
ATOM     22  N   UNL     1      33.690 -14.350 -20.654  0.00  0.00    -0.300 N 
ATOM     23  N   UNL     1      33.202 -12.909 -22.523  0.00  0.00    -0.264 N 
ATOM     24  N   UNL     1      33.187 -13.945 -24.683  0.00  0.00    -0.302 NA
ATOM     25  N   UNL     1      32.749 -11.647 -24.402  0.00  0.00    -0.320 N 
ATOM     26  C   UNL     1      33.955 -16.241 -21.777  0.00  0.00    +0.007 C 
ATOM     27  C   UNL     1      33.655 -15.238 -22.706  0.00  0.00    +0.120 C 
ATOM     28  C   UNL     1      33.499 -14.093 -21.972  0.00  0.00    +0.115 C 
ATOM     29  C   UNL     1      33.974 -15.692 -20.523  0.00  0.00    +0.059 C 
ATOM     30  C   UNL     1      33.497 -15.200 -24.152  0.00  0.00    +0.209 C 
ATOM     31  C   UNL     1      33.053 -12.889 -23.905  0.00  0.00    +0.248 C 
ATOM     32  H   UNL     1      33.634 -13.695 -19.920  0.00  0.00    +0.153 HD
ATOM     33  H   UNL     1      33.094 -12.096 -21.978  0.00  0.00    +0.157 HD
ATOM     34  H   UNL     1      32.657 -10.881 -23.791  0.00  0.00    +0.146 HD
ATOM     35  H   UNL     1      32.621 -11.522 -25.371  0.00  0.00    +0.146 HD
ENDBRANCH  20  26
ENDBRANCH  19  20
ENDBRANCH   1  19
TORSDOF 8
ENDMDL
MODEL 5
REMARK VINA RESULT:     -11.7      1.516      1.975
REMARK  Name = 446560
REMARK  8 active torsions:
REMARK  status: ('A' for Active; 'I' for Inactive)
REMARK    1  A    between atoms: C_1  and  C_19
REMARK    2  A    between atoms: C_2  and  C_9
REMARK    3  A    between atoms: N_8  and  CA_11
REMARK    4  A    between atoms: CA_11  and  CB_12
REMARK    5  A    between atoms: CA_11  and  C_16
REMARK    6  A    between atoms: C_16  and  O_17
REMARK    7  A    between atoms: C_19  and  C_20
REMARK    8  A    between atoms: C_20  and  C_26
REMARK                            x       y       z     vdW  Elec       q    Type
REMARK                         _______ _______ _______ _____ _____    ______ ____
ROOT
ATOM      1  C   UNL     1      34.300 -19.847 -20.087  0.00  0.00    -0.022 C 
ATOM      2  C   UNL     1      33.496 -21.738 -18.245  0.00  0.00    +0.053 C 
ATOM      3  C   UNL     1      32.941 -20.086 -19.879  0.00  0.00    -0.004 C 
ATOM      4  C   UNL     1      35.253 -20.565 -19.363  0.00  0.00    -0.004 C 
ATOM      5  C   UNL     1      32.535 -21.041 -18.948  0.00  0.00    +0.004 C 
ATOM      6  C   UNL     1      34.846 -21.521 -18.432  0.00  0.00    +0.004 C 
ENDROOT
BRANCH   2   9
ATOM      7  O   UNL     1      32.438 -23.739 -17.635  0.00  0.00    -0.270 OA
ATOM      8  N   UNL     1      33.436 -22.512 -15.938  0.00  0.00    -0.293 N 
ATOM      9  C   ACE A   0      33.065 -22.754 -17.252  0.00  0.00    +0.246 C 
ATOM     10  H   UNL     1      33.938 -21.691 -15.732  0.00  0.00    +0.150 HD
BRANCH   8  11
ATOM     11  CA  UNL     1      33.111 -23.420 -14.862  0.00  0.00    +0.171 C 
BRANCH  11  12
ATOM     12  CB  UNL     1      34.363 -23.691 -13.999  0.00  0.00    +0.029 C 
ATOM     13  CG1 UNL     1      35.488 -22.690 -14.280  0.00  0.00    +0.002 C 
ATOM     14  CG2 UNL     1      34.885 -25.125 -14.127  0.00  0.00    +0.002 C 
ENDBRANCH  11  12
BRANCH  11  16
ATOM     15  OXT UNL     1      30.890 -22.472 -14.604  0.00  0.00    -0.248 OA
ATOM     16  C   UNL     1      31.901 -22.923 -14.078  0.00  0.00    +0.332 C 
BRANCH  16  17
ATOM     17  O   UNL     1      32.044 -22.968 -12.730  0.00  0.00    -0.479 OA
ATOM     18  H   UNL     1      31.398 -22.573 -12.178  0.00  0.00    +0.295 HD
ENDBRANCH  16  17
ENDBRANCH  11  16
ENDBRANCH   8  11
ENDBRANCH   2   9
BRANCH   1  19
ATOM     19  C   UNL     1      34.733 -18.826 -21.084  0.00  0.00    +0.031 C 
BRANCH  19  20
ATOM     20  C   UNL     1      34.299 -17.386 -20.741  0.00  0.00    +0.033 C 
BRANCH  20  26
ATOM     21  O   UNL     1      33.355 -14.522 -19.733  0.00  0.00    -0.209 OA
ATOM     22  N   UNL     1      34.175 -15.805 -24.050  0.00  0.00    -0.300 N 
ATOM     23  N   UNL     1      33.471 -13.533 -23.660  0.00  0.00    -0.264 N 
ATOM     24  N   UNL     1      33.060 -12.928 -21.379  0.00  0.00    -0.302 NA
ATOM     25  N   UNL     1      32.791 -11.388 -23.142  0.00  0.00    -0.320 N 
ATOM     26  C   UNL     1      34.164 -16.501 -21.947  0.00  0.00    +0.007 C 
ATOM     27  C   UNL     1      33.770 -15.158 -21.948  0.00  0.00    +0.120 C 
ATOM     28  C   UNL     1      33.792 -14.770 -23.260  0.00  0.00    +0.115 C 
ATOM     29  C   UNL     1      34.410 -16.891 -23.236  0.00  0.00    +0.059 C 
ATOM     30  C   UNL     1      33.386 -14.206 -20.917  0.00  0.00    +0.209 C 
ATOM     31  C   UNL     1      33.106 -12.635 -22.663  0.00  0.00    +0.248 C 
ATOM     32  H   UNL     1      34.269 -15.784 -25.030  0.00  0.00    +0.153 HD
ATOM     33  H   UNL     1      33.492 -13.273 -24.610  0.00  0.00    +0.157 HD
ATOM     34  H   UNL     1      32.837 -11.205 -24.108  0.00  0.00    +0.146 HD
ATOM     35  H   UNL     1      32.520 -10.676 -22.519  0.00  0.00    +0.146 HD
ENDBRANCH  20  26
ENDBRANCH  19  20
ENDBRANCH   1  19
TORSDOF 8
ENDMDL
MODEL 6
REMARK VINA RESULT:     -11.5      2.782     10.278
REMARK  Name = 446560
REMARK  8 active torsions:
REMARK  status: ('A' for Active; 'I' for Inactive)
REMARK    1  A    between atoms: C_1  and  C_19
REMARK    2  A    between atoms: C_2  and  C_9
REMARK    3  A    between atoms: N_8  and  CA_11
REMARK    4  A    between atoms: CA_11  and  CB_12
REMARK    5  A    between atoms: CA_11  and  C_16
REMARK    6  A    between atoms: C_16  and  O_17
REMARK    7  A    between atoms: C_19  and  C_20
REMARK    8  A    between atoms: C_20  and  C_26
REMARK                            x       y       z     vdW  Elec       q    Type
REMARK                         _______ _______ _______ _____ _____    ______ ____
ROOT
ATOM      1  C   UNL     1      33.186 -21.678 -18.462  0.00  0.00    -0.022 C 
ATOM      2  C   UNL     1      34.272 -19.736 -20.094  0.00  0.00    +0.053 C 
ATOM      3  C   UNL     1      32.350 -20.825 -19.184  0.00  0.00    -0.004 C 
ATOM      4  C   UNL     1      34.571 -21.547 -18.564  0.00  0.00    -0.004 C 
ATOM      5  C   UNL     1      32.899 -19.845 -20.010  0.00  0.00    +0.004 C 
ATOM      6  C   UNL     1      35.120 -20.565 -19.389  0.00  0.00    +0.004 C 
ENDROOT
BRANCH   2   9
ATOM      7  O   UNL     1      36.079 -18.629 -21.097  0.00  0.00    -0.270 OA
ATOM      8  N   UNL     1      33.951 -17.866 -21.617  0.00  0.00    -0.293 N 
ATOM      9  C   ACE A   0      34.858 -18.692 -20.973  0.00  0.00    +0.246 C 
ATOM     10  H   UNL     1      32.990 -17.997 -21.451  0.00  0.00    +0.150 HD
BRANCH   8  11
ATOM     11  CA  UNL     1      34.366 -16.820 -22.524  0.00  0.00    +0.171 C 
BRANCH  11  12
ATOM     12  CB  UNL     1      33.710 -17.023 -23.907  0.00  0.00    +0.029 C 
ATOM     13  CG1 UNL     1      32.803 -15.850 -24.296  0.00  0.00    +0.002 C 
ATOM     14  CG2 UNL     1      32.945 -18.344 -24.025  0.00  0.00    +0.002 C 
ENDBRANCH  11  12
BRANCH  11  16
ATOM     15  OXT UNL     1      34.258 -14.393 -22.528  0.00  0.00    -0.248 OA
ATOM     16  C   UNL     1      34.128 -15.443 -21.910  0.00  0.00    +0.332 C 
BRANCH  16  17
ATOM     17  O   UNL     1      33.807 -15.461 -20.592  0.00  0.00    -0.479 OA
ATOM     18  H   UNL     1      34.362 -15.034 -19.970  0.00  0.00    +0.295 HD
ENDBRANCH  16  17
ENDBRANCH  11  16
ENDBRANCH   8  11
ENDBRANCH   2   9
BRANCH   1  19
ATOM     19  C   UNL     1      32.597 -22.726 -17.580  0.00  0.00    +0.031 C 
BRANCH  19  20
ATOM     20  C   UNL     1      31.563 -22.192 -16.568  0.00  0.00    +0.033 C 
BRANCH  20  26
ATOM     21  O   UNL     1      34.394 -22.129 -15.121  0.00  0.00    -0.209 OA
ATOM     22  N   UNL     1      30.629 -24.337 -13.742  0.00  0.00    -0.300 N 
ATOM     23  N   UNL     1      32.608 -24.518 -12.378  0.00  0.00    -0.264 N 
ATOM     24  N   UNL     1      34.541 -23.337 -13.157  0.00  0.00    -0.302 NA
ATOM     25  N   UNL     1      34.573 -24.603 -11.169  0.00  0.00    -0.320 N 
ATOM     26  C   UNL     1      31.458 -23.028 -15.325  0.00  0.00    +0.007 C 
ATOM     27  C   UNL     1      32.479 -23.265 -14.398  0.00  0.00    +0.120 C 
ATOM     28  C   UNL     1      31.925 -24.074 -13.442  0.00  0.00    +0.115 C 
ATOM     29  C   UNL     1      30.328 -23.686 -14.918  0.00  0.00    +0.059 C 
ATOM     30  C   UNL     1      33.869 -22.852 -14.282  0.00  0.00    +0.209 C 
ATOM     31  C   UNL     1      33.934 -24.113 -12.281  0.00  0.00    +0.248 C 
ATOM     32  H   UNL     1      30.011 -24.895 -13.214  0.00  0.00    +0.153 HD
ATOM     33  H   UNL     1      32.192 -25.100 -11.701  0.00  0.00    +0.157 HD
ATOM     34  H   UNL     1      34.088 -25.180 -10.537  0.00  0.00    +0.146 HD
ATOM     35  H   UNL     1      35.517 -24.376 -11.004  0.00  0.00    +0.146 HD
ENDBRANCH  20  26
ENDBRANCH  19  20
ENDBRANCH   1  19
TORSDOF 8
ENDMDL
MODEL 7
REMARK VINA RESULT:     -11.4      2.327     10.290
REMARK  Name = 446560
REMARK  8 active torsions:
REMARK  status: ('A' for Active; 'I' for Inactive)
REMARK    1  A    between atoms: C_1  and  C_19
REMARK    2  A    between atoms: C_2  and  C_9
REMARK    3  A    between atoms: N_8  and  CA_11
REMARK    4  A    between atoms: CA_11  and  CB_12
REMARK    5  A    between atoms: CA_11  and  C_16
REMARK    6  A    between atoms: C_16  and  O_17
REMARK    7  A    between atoms: C_19  and  C_20
REMARK    8  A    between atoms: C_20  and  C_26
REMARK                            x       y       z     vdW  Elec       q    Type
REMARK                         _______ _______ _______ _____ _____    ______ ____
ROOT
ATOM      1  C   UNL     1      33.652 -21.589 -18.257  0.00  0.00    -0.022 C 
ATOM      2  C   UNL     1      34.540 -19.700 -20.062  0.00  0.00    +0.053 C 
ATOM      3  C   UNL     1      32.734 -20.872 -19.024  0.00  0.00    -0.004 C 
ATOM      4  C   UNL     1      35.019 -21.351 -18.402  0.00  0.00    -0.004 C 
ATOM      5  C   UNL     1      33.182 -19.917 -19.937  0.00  0.00    +0.004 C 
ATOM      6  C   UNL     1      35.467 -20.395 -19.314  0.00  0.00    +0.004 C 
ENDROOT
BRANCH   2   9
ATOM      7  O   UNL     1      36.226 -18.553 -21.218  0.00  0.00    -0.270 OA
ATOM      8  N   UNL     1      34.033 -17.964 -21.690  0.00  0.00    -0.293 N 
ATOM      9  C   ACE A   0      35.018 -18.685 -21.034  0.00  0.00    +0.246 C 
ATOM     10  H   UNL     1      33.090 -18.144 -21.471  0.00  0.00    +0.150 HD
BRANCH   8  11
ATOM     11  CA  UNL     1      34.340 -16.959 -22.682  0.00  0.00    +0.171 C 
BRANCH  11  12
ATOM     12  CB  UNL     1      33.536 -17.223 -23.974  0.00  0.00    +0.029 C 
ATOM     13  CG1 UNL     1      32.557 -16.087 -24.289  0.00  0.00    +0.002 C 
ATOM     14  CG2 UNL     1      32.802 -18.567 -23.965  0.00  0.00    +0.002 C 
ENDBRANCH  11  12
BRANCH  11  16
ATOM     15  OXT UNL     1      34.396 -14.531 -22.736  0.00  0.00    -0.248 OA
ATOM     16  C   UNL     1      34.164 -15.556 -22.106  0.00  0.00    +0.332 C 
BRANCH  16  17
ATOM     17  O   UNL     1      33.776 -15.524 -20.807  0.00  0.00    -0.479 OA
ATOM     18  H   UNL     1      34.144 -16.129 -20.194  0.00  0.00    +0.295 HD
ENDBRANCH  16  17
ENDBRANCH  11  16
ENDBRANCH   8  11
ENDBRANCH   2   9
BRANCH   1  19
ATOM     19  C   UNL     1      33.171 -22.609 -17.281  0.00  0.00    +0.031 C 
BRANCH  19  20
ATOM     20  C   UNL     1      33.396 -22.225 -15.804  0.00  0.00    +0.033 C 
BRANCH  20  26
ATOM     21  O   UNL     1      30.247 -22.244 -16.240  0.00  0.00    -0.209 OA
ATOM     22  N   UNL     1      32.640 -24.729 -13.232  0.00  0.00    -0.300 N 
ATOM     23  N   UNL     1      30.247 -25.012 -13.281  0.00  0.00    -0.264 N 
ATOM     24  N   UNL     1      29.056 -23.682 -14.879  0.00  0.00    -0.302 NA
ATOM     25  N   UNL     1      27.950 -25.182 -13.437  0.00  0.00    -0.320 N 
ATOM     26  C   UNL     1      32.809 -23.210 -14.835  0.00  0.00    +0.007 C 
ATOM     27  C   UNL     1      31.452 -23.526 -14.696  0.00  0.00    +0.120 C 
ATOM     28  C   UNL     1      31.395 -24.464 -13.700  0.00  0.00    +0.115 C 
ATOM     29  C   UNL     1      33.531 -23.950 -13.937  0.00  0.00    +0.059 C 
ATOM     30  C   UNL     1      30.229 -23.083 -15.347  0.00  0.00    +0.209 C 
ATOM     31  C   UNL     1      29.087 -24.580 -13.914  0.00  0.00    +0.248 C 
ATOM     32  H   UNL     1      32.868 -25.366 -12.516  0.00  0.00    +0.153 HD
ATOM     33  H   UNL     1      30.226 -25.685 -12.563  0.00  0.00    +0.157 HD
ATOM     34  H   UNL     1      28.011 -25.848 -12.715  0.00  0.00    +0.146 HD
ATOM     35  H   UNL     1      27.072 -24.948 -13.818  0.00  0.00    +0.146 HD
ENDBRANCH  20  26
ENDBRANCH  19  20
ENDBRANCH   1  19
TORSDOF 8
ENDMDL
MODEL 8
REMARK VINA RESULT:     -11.1      3.040     10.786
REMARK  Name = 446560
REMARK  8 active torsions:
REMARK  status: ('A' for Active; 'I' for Inactive)
REMARK    1  A    between atoms: C_1  and  C_19
REMARK    2  A    between atoms: C_2  and  C_9
REMARK    3  A    between atoms: N_8  and  CA_11
REMARK    4  A    between atoms: CA_11  and  CB_12
REMARK    5  A    between atoms: CA_11  and  C_16
REMARK    6  A    between atoms: C_16  and  O_17
REMARK    7  A    between atoms: C_19  and  C_20
REMARK    8  A    between atoms: C_20  and  C_26
REMARK                            x       y       z     vdW  Elec       q    Type
REMARK                         _______ _______ _______ _____ _____    ______ ____
ROOT
ATOM      1  C   UNL     1      34.241 -16.784 -22.673  0.00  0.00    -0.022 C 
ATOM      2  C   UNL     1      33.446 -14.287 -23.537  0.00  0.00    +0.053 C 
ATOM      3  C   UNL     1      33.878 -16.590 -24.006  0.00  0.00    -0.004 C 
ATOM      4  C   UNL     1      34.201 -15.715 -21.777  0.00  0.00    -0.004 C 
ATOM      5  C   UNL     1      33.476 -15.328 -24.443  0.00  0.00    +0.004 C 
ATOM      6  C   UNL     1      33.799 -14.453 -22.214  0.00  0.00    +0.004 C 
ENDROOT
BRANCH   2   9
ATOM      7  O   UNL     1      32.325 -12.849 -25.011  0.00  0.00    -0.270 OA
ATOM      8  N   UNL     1      33.434 -11.874 -23.222  0.00  0.00    -0.293 N 
ATOM      9  C   ACE A   0      33.020 -12.942 -24.001  0.00  0.00    +0.246 C 
ATOM     10  H   UNL     1      33.990 -12.054 -22.430  0.00  0.00    +0.150 HD
BRANCH   8  11
ATOM     11  CA  UNL     1      33.079 -10.508 -23.530  0.00  0.00    +0.171 C 
BRANCH  11  12
ATOM     12  CB  UNL     1      32.406  -9.844 -22.309  0.00  0.00    +0.029 C 
ATOM     13  CG1 UNL     1      31.545 -10.832 -21.514  0.00  0.00    +0.002 C 
ATOM     14  CG2 UNL     1      31.587  -8.602 -22.671  0.00  0.00    +0.002 C 
ENDBRANCH  11  12
BRANCH  11  16
ATOM     15  OXT UNL     1      34.734  -9.911 -25.205  0.00  0.00    -0.248 OA
ATOM     16  C   UNL     1      34.281  -9.745 -24.078  0.00  0.00    +0.332 C 
BRANCH  16  17
ATOM     17  O   UNL     1      34.857  -8.890 -23.197  0.00  0.00    -0.479 OA
ATOM     18  H   UNL     1      35.579  -8.357 -23.466  0.00  0.00    +0.295 HD
ENDBRANCH  16  17
ENDBRANCH  11  16
ENDBRANCH   8  11
ENDBRANCH   2   9
BRANCH   1  19
ATOM     19  C   UNL     1      34.670 -18.134 -22.207  0.00  0.00    +0.031 C 
BRANCH  19  20
ATOM     20  C   UNL     1      33.630 -18.857 -21.326  0.00  0.00    +0.033 C 
BRANCH  20  26
ATOM     21  O   UNL     1      31.286 -20.451 -19.885  0.00  0.00    -0.209 OA
ATOM     22  N   UNL     1      35.749 -20.579 -18.875  0.00  0.00    -0.300 N 
ATOM     23  N   UNL     1      34.253 -21.934 -17.558  0.00  0.00    -0.264 N 
ATOM     24  N   UNL     1      31.932 -21.821 -18.140  0.00  0.00    -0.302 NA
ATOM     25  N   UNL     1      32.708 -23.181 -16.380  0.00  0.00    -0.320 N 
ATOM     26  C   UNL     1      34.246 -19.680 -20.231  0.00  0.00    +0.007 C 
ATOM     27  C   UNL     1      33.565 -20.531 -19.353  0.00  0.00    +0.120 C 
ATOM     28  C   UNL     1      34.528 -21.063 -18.538  0.00  0.00    +0.115 C 
ATOM     29  C   UNL     1      35.582 -19.713 -19.934  0.00  0.00    +0.059 C 
ATOM     30  C   UNL     1      32.172 -20.910 -19.173  0.00  0.00    +0.209 C 
ATOM     31  C   UNL     1      32.917 -22.286 -17.399  0.00  0.00    +0.248 C 
ATOM     32  H   UNL     1      36.604 -20.805 -18.440  0.00  0.00    +0.153 HD
ATOM     33  H   UNL     1      34.959 -22.305 -16.981  0.00  0.00    +0.157 HD
ATOM     34  H   UNL     1      33.468 -23.508 -15.847  0.00  0.00    +0.146 HD
ATOM     35  H   UNL     1      31.797 -23.498 -16.182  0.00  0.00    +0.146 HD
ENDBRANCH  20  26
ENDBRANCH  19  20
ENDBRANCH   1  19
TORSDOF 8
ENDMDL
MODEL 9
REMARK VINA RESULT:     -11.1      2.505      3.795
REMARK  Name = 446560
REMARK  8 active torsions:
REMARK  status: ('A' for Active; 'I' for Inactive)
REMARK    1  A    between atoms: C_1  and  C_19
REMARK    2  A    between atoms: C_2  and  C_9
REMARK    3  A    between atoms: N_8  and  CA_11
REMARK    4  A    between atoms: CA_11  and  CB_12
REMARK    5  A    between atoms: CA_11  and  C_16
REMARK    6  A    between atoms: C_16  and  O_17
REMARK    7  A    between atoms: C_19  and  C_20
REMARK    8  A    between atoms: C_20  and  C_26
REMARK                            x       y       z     vdW  Elec       q    Type
REMARK                         _______ _______ _______ _____ _____    ______ ____
ROOT
ATOM      1  C   UNL     1      33.708 -20.094 -20.127  0.00  0.00    -0.022 C 
ATOM      2  C   UNL     1      33.789 -21.630 -17.836  0.00  0.00    +0.053 C 
ATOM      3  C   UNL     1      32.521 -20.523 -19.532  0.00  0.00    -0.004 C 
ATOM      4  C   UNL     1      34.936 -20.442 -19.564  0.00  0.00    -0.004 C 
ATOM      5  C   UNL     1      32.562 -21.299 -18.374  0.00  0.00    +0.004 C 
ATOM      6  C   UNL     1      34.976 -21.219 -18.406  0.00  0.00    +0.004 C 
ENDROOT
BRANCH   2   9
ATOM      7  O   UNL     1      33.051 -23.393 -16.480  0.00  0.00    -0.270 OA
ATOM      8  N   UNL     1      34.800 -22.102 -15.674  0.00  0.00    -0.293 N 
ATOM      9  C   ACE A   0      33.834 -22.455 -16.602  0.00  0.00    +0.246 C 
ATOM     10  H   UNL     1      35.381 -21.331 -15.865  0.00  0.00    +0.150 HD
BRANCH   8  11
ATOM     11  CA  UNL     1      34.984 -22.824 -14.435  0.00  0.00    +0.171 C 
BRANCH  11  12
ATOM     12  CB  UNL     1      34.187 -24.146 -14.466  0.00  0.00    +0.029 C 
ATOM     13  CG1 UNL     1      33.121 -24.204 -13.367  0.00  0.00    +0.002 C 
ATOM     14  CG2 UNL     1      35.078 -25.390 -14.406  0.00  0.00    +0.002 C 
ENDBRANCH  11  12
BRANCH  11  16
ATOM     15  OXT UNL     1      36.907 -23.130 -12.984  0.00  0.00    -0.248 OA
ATOM     16  C   UNL     1      36.467 -22.990 -14.119  0.00  0.00    +0.332 C 
BRANCH  16  17
ATOM     17  O   UNL     1      37.286 -22.918 -15.197  0.00  0.00    -0.479 OA
ATOM     18  H   UNL     1      37.736 -22.119 -15.390  0.00  0.00    +0.295 HD
ENDBRANCH  16  17
ENDBRANCH  11  16
ENDBRANCH   8  11
ENDBRANCH   2   9
BRANCH   1  19
ATOM     19  C   UNL     1      33.662 -19.265 -21.366  0.00  0.00    +0.031 C 
BRANCH  19  20
ATOM     20  C   UNL     1      34.766 -18.190 -21.447  0.00  0.00    +0.033 C 
BRANCH  20  26
ATOM     21  O   UNL     1      33.843 -17.750 -24.457  0.00  0.00    -0.209 OA
ATOM     22  N   UNL     1      33.619 -14.731 -21.024  0.00  0.00    -0.300 N 
ATOM     23  N   UNL     1      32.817 -14.041 -23.189  0.00  0.00    -0.264 N 
ATOM     24  N   UNL     1      32.962 -15.669 -24.940  0.00  0.00    -0.302 NA
ATOM     25  N   UNL     1      32.084 -13.514 -25.314  0.00  0.00    -0.320 N 
ATOM     26  C   UNL     1      34.230 -16.792 -21.558  0.00  0.00    +0.007 C 
ATOM     27  C   UNL     1      33.718 -16.192 -22.714  0.00  0.00    +0.120 C 
ATOM     28  C   UNL     1      33.355 -14.926 -22.340  0.00  0.00    +0.115 C 
ATOM     29  C   UNL     1      34.167 -15.893 -20.527  0.00  0.00    +0.059 C 
ATOM     30  C   UNL     1      33.526 -16.624 -24.090  0.00  0.00    +0.209 C 
ATOM     31  C   UNL     1      32.639 -14.469 -24.500  0.00  0.00    +0.248 C 
ATOM     32  H   UNL     1      33.451 -13.905 -20.513  0.00  0.00    +0.153 HD
ATOM     33  H   UNL     1      32.562 -13.134 -22.901  0.00  0.00    +0.157 HD
ATOM     34  H   UNL     1      31.855 -12.629 -24.950  0.00  0.00    +0.146 HD
ATOM     35  H   UNL     1      31.914 -13.715 -26.263  0.00  0.00    +0.146 HD
ENDBRANCH  20  26
ENDBRANCH  19  20
ENDBRANCH   1  19
TORSDOF 8
ENDMDL
