MODEL 1
REMARK VINA RESULT:     -11.4      0.000      0.000
REMARK  Name = 17754438
REMARK  6 active torsions:
REMARK  status: ('A' for Active; 'I' for Inactive)
REMARK    1  A    between atoms: N_1  and  C_19
REMARK    2  A    between atoms: C_7  and  C_12
REMARK    3  A    between atoms: N_10  and  C_15
REMARK    4  A    between atoms: C_15  and  C_16
REMARK    5  A    between atoms: C_16  and  O_17
REMARK    6  A    between atoms: C_19  and  C_21
REMARK                            x       y       z     vdW  Elec       q    Type
REMARK                         _______ _______ _______ _____ _____    ______ ____
ROOT
ATOM      1  N   UNL     1      32.092 -22.845 -16.835  0.00  0.00    -0.163 N 
ATOM      2  N   UNL     1      33.868 -23.964 -15.584  0.00  0.00    -0.378 NA
ATOM      3  N   UNL     1      30.940 -22.213 -16.532  0.00  0.00    -0.033 NA
ATOM      4  N   UNL     1      32.150 -23.170 -13.390  0.00  0.00    -0.208 NA
ATOM      5  N   UNL     1      30.796 -22.243 -15.207  0.00  0.00    -0.086 NA
ATOM      6  C   UNL     1      32.712 -23.295 -15.713  0.00  0.00    +0.267 C 
ATOM      7  C   UNL     1      34.134 -24.226 -14.283  0.00  0.00    +0.140 C 
ATOM      8  C   UNL     1      31.872 -22.901 -14.689  0.00  0.00    +0.098 C 
ATOM      9  C   UNL     1      33.311 -23.845 -13.232  0.00  0.00    +0.195 C 
ENDROOT
BRANCH   7  12
ATOM     10  N   UNL     1      37.402 -25.378 -13.417  0.00  0.00    -0.208 N 
ATOM     11  N   UNL     1      36.948 -26.566 -13.855  0.00  0.00    -0.176 NA
ATOM     12  C   UNL     1      35.351 -24.941 -14.028  0.00  0.00    +0.064 C 
ATOM     13  C   UNL     1      36.484 -24.373 -13.500  0.00  0.00    +0.088 C 
ATOM     14  C   UNL     1      35.694 -26.292 -14.227  0.00  0.00    +0.121 C 
BRANCH  10  15
ATOM     15  C   UNL     1      38.752 -25.268 -12.918  0.00  0.00    +0.148 C 
BRANCH  15  16
ATOM     16  C   UNL     1      39.774 -25.898 -13.854  0.00  0.00    +0.161 C 
BRANCH  16  17
ATOM     17  O   UNL     1      39.411 -25.639 -15.204  0.00  0.00    -0.380 OA
ATOM     18  H   UNL     1      38.763 -24.919 -15.233  0.00  0.00    +0.211 HD
ENDBRANCH  16  17
ENDBRANCH  15  16
ENDBRANCH  10  15
ENDBRANCH   7  12
BRANCH   1  19
ATOM     19  C   UNL     1      32.528 -22.976 -18.230  0.00  0.00    +0.145 C 
BRANCH  19  21
ATOM     20  N   UNL     1      36.225 -18.936 -19.656  0.00  0.00    -0.244 NA
ATOM     21  C   UNL     1      33.495 -21.907 -18.611  0.00  0.00    -0.000 C 
ATOM     22  C   UNL     1      33.158 -20.974 -19.588  0.00  0.00    -0.001 C 
ATOM     23  C   UNL     1      34.068 -19.966 -19.951  0.00  0.00    +0.017 C 
ATOM     24  C   UNL     1      34.739 -21.837 -17.995  0.00  0.00    -0.001 C 
ATOM     25  C   UNL     1      35.331 -19.889 -19.330  0.00  0.00    +0.081 C 
ATOM     26  C   UNL     1      35.642 -20.834 -18.357  0.00  0.00    +0.019 C 
ATOM     27  C   UNL     1      33.753 -19.014 -20.931  0.00  0.00    +0.003 C 
ATOM     28  C   UNL     1      34.673 -18.031 -21.268  0.00  0.00    +0.021 C 
ATOM     29  C   UNL     1      35.883 -18.036 -20.606  0.00  0.00    +0.099 C 
ENDBRANCH  19  21
ENDBRANCH   1  19
TORSDOF 6
ENDMDL
MODEL 2
REMARK VINA RESULT:     -11.3      2.467      3.855
REMARK  Name = 17754438
REMARK  6 active torsions:
REMARK  status: ('A' for Active; 'I' for Inactive)
REMARK    1  A    between atoms: N_1  and  C_19
REMARK    2  A    between atoms: C_7  and  C_12
REMARK    3  A    between atoms: N_10  and  C_15
REMARK    4  A    between atoms: C_15  and  C_16
REMARK    5  A    between atoms: C_16  and  O_17
REMARK    6  A    between atoms: C_19  and  C_21
REMARK                            x       y       z     vdW  Elec       q    Type
REMARK                         _______ _______ _______ _____ _____    ______ ____
ROOT
ATOM      1  N   UNL     1      33.729 -20.482 -19.365  0.00  0.00    -0.163 N 
ATOM      2  N   UNL     1      34.650 -21.629 -17.413  0.00  0.00    -0.378 NA
ATOM      3  N   UNL     1      32.513 -20.358 -19.933  0.00  0.00    -0.033 NA
ATOM      4  N   UNL     1      31.872 -22.414 -17.175  0.00  0.00    -0.208 NA
ATOM      5  N   UNL     1      31.647 -21.059 -19.201  0.00  0.00    -0.086 NA
ATOM      6  C   UNL     1      33.671 -21.265 -18.255  0.00  0.00    +0.267 C 
ATOM      7  C   UNL     1      34.171 -22.420 -16.426  0.00  0.00    +0.140 C 
ATOM      8  C   UNL     1      32.339 -21.621 -18.169  0.00  0.00    +0.098 C 
ATOM      9  C   UNL     1      32.840 -22.796 -16.311  0.00  0.00    +0.195 C 
ENDROOT
BRANCH   7  12
ATOM     10  N   UNL     1      36.058 -23.987 -13.830  0.00  0.00    -0.208 N 
ATOM     11  N   UNL     1      37.031 -23.144 -14.218  0.00  0.00    -0.176 NA
ATOM     12  C   UNL     1      35.136 -22.871 -15.465  0.00  0.00    +0.064 C 
ATOM     13  C   UNL     1      34.903 -23.864 -14.545  0.00  0.00    +0.088 C 
ATOM     14  C   UNL     1      36.461 -22.465 -15.217  0.00  0.00    +0.121 C 
BRANCH  10  15
ATOM     15  C   UNL     1      36.301 -24.910 -12.747  0.00  0.00    +0.148 C 
BRANCH  15  16
ATOM     16  C   UNL     1      37.733 -25.428 -12.730  0.00  0.00    +0.161 C 
BRANCH  16  17
ATOM     17  O   UNL     1      37.964 -26.235 -13.878  0.00  0.00    -0.380 OA
ATOM     18  H   UNL     1      38.870 -26.096 -14.193  0.00  0.00    +0.211 HD
ENDBRANCH  16  17
ENDBRANCH  15  16
ENDBRANCH  10  15
ENDBRANCH   7  12
BRANCH   1  19
ATOM     19  C   UNL     1      34.899 -19.816 -19.948  0.00  0.00    +0.145 C 
BRANCH  19  21
ATOM     20  N   UNL     1      33.470 -16.517 -24.317  0.00  0.00    -0.244 NA
ATOM     21  C   UNL     1      34.525 -18.938 -21.093  0.00  0.00    -0.000 C 
ATOM     22  C   UNL     1      34.444 -17.560 -20.922  0.00  0.00    -0.001 C 
ATOM     23  C   UNL     1      34.090 -16.729 -21.999  0.00  0.00    +0.017 C 
ATOM     24  C   UNL     1      34.251 -19.493 -22.338  0.00  0.00    -0.001 C 
ATOM     25  C   UNL     1      33.812 -17.284 -23.265  0.00  0.00    +0.081 C 
ATOM     26  C   UNL     1      33.900 -18.666 -23.408  0.00  0.00    +0.019 C 
ATOM     27  C   UNL     1      34.002 -15.338 -21.854  0.00  0.00    +0.003 C 
ATOM     28  C   UNL     1      33.650 -14.544 -22.937  0.00  0.00    +0.021 C 
ATOM     29  C   UNL     1      33.396 -15.178 -24.136  0.00  0.00    +0.099 C 
ENDBRANCH  19  21
ENDBRANCH   1  19
TORSDOF 6
ENDMDL
MODEL 3
REMARK VINA RESULT:     -10.7      5.857     11.619
REMARK  Name = 17754438
REMARK  6 active torsions:
REMARK  status: ('A' for Active; 'I' for Inactive)
REMARK    1  A    between atoms: N_1  and  C_19
REMARK    2  A    between atoms: C_7  and  C_12
REMARK    3  A    between atoms: N_10  and  C_15
REMARK    4  A    between atoms: C_15  and  C_16
REMARK    5  A    between atoms: C_16  and  O_17
REMARK    6  A    between atoms: C_19  and  C_21
REMARK                            x       y       z     vdW  Elec       q    Type
REMARK                         _______ _______ _______ _____ _____    ______ ____
ROOT
ATOM      1  N   UNL     1      34.460 -18.132 -22.480  0.00  0.00    -0.163 N 
ATOM      2  N   UNL     1      33.917 -15.764 -22.736  0.00  0.00    -0.378 NA
ATOM      3  N   UNL     1      34.108 -19.281 -23.092  0.00  0.00    -0.033 NA
ATOM      4  N   UNL     1      32.289 -16.871 -24.862  0.00  0.00    -0.208 NA
ATOM      5  N   UNL     1      33.249 -18.977 -24.065  0.00  0.00    -0.086 NA
ATOM      6  C   UNL     1      33.837 -17.066 -23.047  0.00  0.00    +0.267 C 
ATOM      7  C   UNL     1      33.131 -15.022 -23.551  0.00  0.00    +0.140 C 
ATOM      8  C   UNL     1      33.072 -17.625 -24.053  0.00  0.00    +0.098 C 
ATOM      9  C   UNL     1      32.352 -15.552 -24.569  0.00  0.00    +0.195 C 
ENDROOT
BRANCH   7  12
ATOM     10  N   UNL     1      33.089 -11.452 -23.648  0.00  0.00    -0.208 N 
ATOM     11  N   UNL     1      33.211 -11.552 -22.314  0.00  0.00    -0.176 NA
ATOM     12  C   UNL     1      33.140 -13.608 -23.306  0.00  0.00    +0.064 C 
ATOM     13  C   UNL     1      33.042 -12.654 -24.290  0.00  0.00    +0.088 C 
ATOM     14  C   UNL     1      33.243 -12.872 -22.111  0.00  0.00    +0.121 C 
BRANCH  10  15
ATOM     15  C   UNL     1      33.017 -10.148 -24.265  0.00  0.00    +0.148 C 
BRANCH  15  16
ATOM     16  C   UNL     1      34.393  -9.551 -24.530  0.00  0.00    +0.161 C 
BRANCH  16  17
ATOM     17  O   UNL     1      34.969  -9.114 -23.306  0.00  0.00    -0.380 OA
ATOM     18  H   UNL     1      35.513  -9.825 -22.933  0.00  0.00    +0.211 HD
ENDBRANCH  16  17
ENDBRANCH  15  16
ENDBRANCH  10  15
ENDBRANCH   7  12
BRANCH   1  19
ATOM     19  C   UNL     1      35.403 -18.142 -21.356  0.00  0.00    +0.145 C 
BRANCH  19  21
ATOM     20  N   UNL     1      34.193 -22.181 -17.581  0.00  0.00    -0.244 NA
ATOM     21  C   UNL     1      35.074 -19.206 -20.364  0.00  0.00    -0.000 C 
ATOM     22  C   UNL     1      33.747 -19.529 -20.099  0.00  0.00    -0.001 C 
ATOM     23  C   UNL     1      33.433 -20.531 -19.164  0.00  0.00    +0.017 C 
ATOM     24  C   UNL     1      36.091 -19.878 -19.697  0.00  0.00    -0.001 C 
ATOM     25  C   UNL     1      34.459 -21.217 -18.484  0.00  0.00    +0.081 C 
ATOM     26  C   UNL     1      35.778 -20.873 -18.768  0.00  0.00    +0.019 C 
ATOM     27  C   UNL     1      32.105 -20.876 -18.878  0.00  0.00    +0.003 C 
ATOM     28  C   UNL     1      31.827 -21.869 -17.949  0.00  0.00    +0.021 C 
ATOM     29  C   UNL     1      32.898 -22.485 -17.335  0.00  0.00    +0.099 C 
ENDBRANCH  19  21
ENDBRANCH   1  19
TORSDOF 6
ENDMDL
MODEL 4
REMARK VINA RESULT:     -10.3      2.510      3.482
REMARK  Name = 17754438
REMARK  6 active torsions:
REMARK  status: ('A' for Active; 'I' for Inactive)
REMARK    1  A    between atoms: N_1  and  C_19
REMARK    2  A    between atoms: C_7  and  C_12
REMARK    3  A    between atoms: N_10  and  C_15
REMARK    4  A    between atoms: C_15  and  C_16
REMARK    5  A    between atoms: C_16  and  O_17
REMARK    6  A    between atoms: C_19  and  C_21
REMARK                            x       y       z     vdW  Elec       q    Type
REMARK                         _______ _______ _______ _____ _____    ______ ____
ROOT
ATOM      1  N   UNL     1      33.926 -21.354 -18.596  0.00  0.00    -0.163 N 
ATOM      2  N   UNL     1      34.624 -22.358 -16.481  0.00  0.00    -0.378 NA
ATOM      3  N   UNL     1      32.754 -21.134 -19.226  0.00  0.00    -0.033 NA
ATOM      4  N   UNL     1      31.757 -22.710 -16.264  0.00  0.00    -0.208 NA
ATOM      5  N   UNL     1      31.779 -21.607 -18.450  0.00  0.00    -0.086 NA
ATOM      6  C   UNL     1      33.729 -21.971 -17.401  0.00  0.00    +0.267 C 
ATOM      7  C   UNL     1      34.013 -22.942 -15.424  0.00  0.00    +0.140 C 
ATOM      8  C   UNL     1      32.358 -22.124 -17.328  0.00  0.00    +0.098 C 
ATOM      9  C   UNL     1      32.639 -23.110 -15.320  0.00  0.00    +0.195 C 
ENDROOT
BRANCH   7  12
ATOM     10  N   UNL     1      35.564 -24.240 -12.481  0.00  0.00    -0.208 N 
ATOM     11  N   UNL     1      36.708 -23.923 -13.112  0.00  0.00    -0.176 NA
ATOM     12  C   UNL     1      34.879 -23.396 -14.375  0.00  0.00    +0.064 C 
ATOM     13  C   UNL     1      34.440 -23.945 -13.195  0.00  0.00    +0.088 C 
ATOM     14  C   UNL     1      36.283 -23.408 -14.268  0.00  0.00    +0.121 C 
BRANCH  10  15
ATOM     15  C   UNL     1      35.613 -24.839 -11.168  0.00  0.00    +0.148 C 
BRANCH  15  16
ATOM     16  C   UNL     1      35.128 -23.895 -10.077  0.00  0.00    +0.161 C 
BRANCH  16  17
ATOM     17  O   UNL     1      34.411 -24.628  -9.092  0.00  0.00    -0.380 OA
ATOM     18  H   UNL     1      34.547 -25.577  -9.233  0.00  0.00    +0.211 HD
ENDBRANCH  16  17
ENDBRANCH  15  16
ENDBRANCH  10  15
ENDBRANCH   7  12
BRANCH   1  19
ATOM     19  C   UNL     1      35.193 -20.938 -19.206  0.00  0.00    +0.145 C 
BRANCH  19  21
ATOM     20  N   UNL     1      34.527 -16.558 -22.727  0.00  0.00    -0.244 NA
ATOM     21  C   UNL     1      35.010 -19.789 -20.139  0.00  0.00    -0.000 C 
ATOM     22  C   UNL     1      34.147 -19.900 -21.225  0.00  0.00    -0.001 C 
ATOM     23  C   UNL     1      33.972 -18.819 -22.107  0.00  0.00    +0.017 C 
ATOM     24  C   UNL     1      35.702 -18.602 -19.930  0.00  0.00    -0.001 C 
ATOM     25  C   UNL     1      34.671 -17.612 -21.901  0.00  0.00    +0.081 C 
ATOM     26  C   UNL     1      35.528 -17.529 -20.807  0.00  0.00    +0.019 C 
ATOM     27  C   UNL     1      33.109 -18.904 -23.208  0.00  0.00    +0.003 C 
ATOM     28  C   UNL     1      32.959 -17.819 -24.061  0.00  0.00    +0.021 C 
ATOM     29  C   UNL     1      33.684 -16.680 -23.778  0.00  0.00    +0.099 C 
ENDBRANCH  19  21
ENDBRANCH   1  19
TORSDOF 6
ENDMDL
MODEL 5
REMARK VINA RESULT:     -10.2      4.378      9.614
REMARK  Name = 17754438
REMARK  6 active torsions:
REMARK  status: ('A' for Active; 'I' for Inactive)
REMARK    1  A    between atoms: N_1  and  C_19
REMARK    2  A    between atoms: C_7  and  C_12
REMARK    3  A    between atoms: N_10  and  C_15
REMARK    4  A    between atoms: C_15  and  C_16
REMARK    5  A    between atoms: C_16  and  O_17
REMARK    6  A    between atoms: C_19  and  C_21
REMARK                            x       y       z     vdW  Elec       q    Type
REMARK                         _______ _______ _______ _____ _____    ______ ____
ROOT
ATOM      1  N   UNL     1      34.080 -21.121 -18.756  0.00  0.00    -0.163 N 
ATOM      2  N   UNL     1      33.799 -19.637 -20.677  0.00  0.00    -0.378 NA
ATOM      3  N   UNL     1      35.050 -21.367 -17.854  0.00  0.00    -0.033 NA
ATOM      4  N   UNL     1      36.478 -18.888 -19.870  0.00  0.00    -0.208 NA
ATOM      5  N   UNL     1      36.082 -20.572 -18.138  0.00  0.00    -0.086 NA
ATOM      6  C   UNL     1      34.466 -20.163 -19.640  0.00  0.00    +0.267 C 
ATOM      7  C   UNL     1      34.544 -18.701 -21.309  0.00  0.00    +0.140 C 
ATOM      8  C   UNL     1      35.742 -19.828 -19.228  0.00  0.00    +0.098 C 
ATOM      9  C   UNL     1      35.828 -18.341 -20.922  0.00  0.00    +0.195 C 
ENDROOT
BRANCH   7  12
ATOM     10  N   UNL     1      33.241 -16.530 -23.828  0.00  0.00    -0.208 N 
ATOM     11  N   UNL     1      32.795 -17.670 -24.384  0.00  0.00    -0.176 NA
ATOM     12  C   UNL     1      33.926 -18.070 -22.439  0.00  0.00    +0.064 C 
ATOM     13  C   UNL     1      33.924 -16.715 -22.662  0.00  0.00    +0.088 C 
ATOM     14  C   UNL     1      33.216 -18.607 -23.531  0.00  0.00    +0.121 C 
BRANCH  10  15
ATOM     15  C   UNL     1      32.979 -15.267 -24.476  0.00  0.00    +0.148 C 
BRANCH  15  16
ATOM     16  C   UNL     1      33.115 -14.084 -23.526  0.00  0.00    +0.161 C 
BRANCH  16  17
ATOM     17  O   UNL     1      31.832 -13.527 -23.268  0.00  0.00    -0.380 OA
ATOM     18  H   UNL     1      31.561 -13.746 -22.363  0.00  0.00    +0.211 HD
ENDBRANCH  16  17
ENDBRANCH  15  16
ENDBRANCH  10  15
ENDBRANCH   7  12
BRANCH   1  19
ATOM     19  C   UNL     1      32.807 -21.847 -18.703  0.00  0.00    +0.145 C 
BRANCH  19  21
ATOM     20  N   UNL     1      31.599 -23.534 -13.438  0.00  0.00    -0.244 NA
ATOM     21  C   UNL     1      32.478 -22.291 -17.318  0.00  0.00    -0.000 C 
ATOM     22  C   UNL     1      31.163 -22.251 -16.863  0.00  0.00    -0.001 C 
ATOM     23  C   UNL     1      30.850 -22.667 -15.557  0.00  0.00    +0.017 C 
ATOM     24  C   UNL     1      33.484 -22.744 -16.472  0.00  0.00    -0.001 C 
ATOM     25  C   UNL     1      31.865 -23.129 -14.694  0.00  0.00    +0.081 C 
ATOM     26  C   UNL     1      33.171 -23.158 -15.175  0.00  0.00    +0.019 C 
ATOM     27  C   UNL     1      29.535 -22.638 -15.075  0.00  0.00    +0.003 C 
ATOM     28  C   UNL     1      29.258 -23.055 -13.780  0.00  0.00    +0.021 C 
ATOM     29  C   UNL     1      30.316 -23.490 -13.010  0.00  0.00    +0.099 C 
ENDBRANCH  19  21
ENDBRANCH   1  19
TORSDOF 6
ENDMDL
MODEL 6
REMARK VINA RESULT:     -10.1      5.647      9.750
REMARK  Name = 17754438
REMARK  6 active torsions:
REMARK  status: ('A' for Active; 'I' for Inactive)
REMARK    1  A    between atoms: N_1  and  C_19
REMARK    2  A    between atoms: C_7  and  C_12
REMARK    3  A    between atoms: N_10  and  C_15
REMARK    4  A    between atoms: C_15  and  C_16
REMARK    5  A    between atoms: C_16  and  O_17
REMARK    6  A    between atoms: C_19  and  C_21
REMARK                            x       y       z     vdW  Elec       q    Type
REMARK                         _______ _______ _______ _____ _____    ______ ____
ROOT
ATOM      1  N   UNL     1      33.292 -14.949 -23.719  0.00  0.00    -0.163 N 
ATOM      2  N   UNL     1      34.169 -16.711 -22.271  0.00  0.00    -0.378 NA
ATOM      3  N   UNL     1      32.476 -14.889 -24.789  0.00  0.00    -0.033 NA
ATOM      4  N   UNL     1      32.567 -18.314 -24.076  0.00  0.00    -0.208 NA
ATOM      5  N   UNL     1      32.088 -16.131 -25.077  0.00  0.00    -0.086 NA
ATOM      6  C   UNL     1      33.447 -16.231 -23.294  0.00  0.00    +0.267 C 
ATOM      7  C   UNL     1      34.054 -18.057 -22.186  0.00  0.00    +0.140 C 
ATOM      8  C   UNL     1      32.674 -16.967 -24.171  0.00  0.00    +0.098 C 
ATOM      9  C   UNL     1      33.286 -18.825 -23.051  0.00  0.00    +0.195 C 
ENDROOT
BRANCH   7  12
ATOM     10  N   UNL     1      35.318 -20.038 -19.497  0.00  0.00    -0.208 N 
ATOM     11  N   UNL     1      36.382 -19.221 -19.578  0.00  0.00    -0.176 NA
ATOM     12  C   UNL     1      34.788 -18.679 -21.123  0.00  0.00    +0.064 C 
ATOM     13  C   UNL     1      34.336 -19.756 -20.400  0.00  0.00    +0.088 C 
ATOM     14  C   UNL     1      36.052 -18.392 -20.573  0.00  0.00    +0.121 C 
BRANCH  10  15
ATOM     15  C   UNL     1      35.302 -21.096 -18.515  0.00  0.00    +0.148 C 
BRANCH  15  16
ATOM     16  C   UNL     1      33.915 -21.697 -18.328  0.00  0.00    +0.161 C 
BRANCH  16  17
ATOM     17  O   UNL     1      33.872 -22.434 -17.113  0.00  0.00    -0.380 OA
ATOM     18  H   UNL     1      34.760 -22.472 -16.726  0.00  0.00    +0.211 HD
ENDBRANCH  16  17
ENDBRANCH  15  16
ENDBRANCH  10  15
ENDBRANCH   7  12
BRANCH   1  19
ATOM     19  C   UNL     1      33.885 -13.728 -23.160  0.00  0.00    +0.145 C 
BRANCH  19  21
ATOM     20  N   UNL     1      30.456 -11.279 -19.383  0.00  0.00    -0.244 NA
ATOM     21  C   UNL     1      32.980 -13.075 -22.171  0.00  0.00    -0.000 C 
ATOM     22  C   UNL     1      32.578 -11.755 -22.355  0.00  0.00    -0.001 C 
ATOM     23  C   UNL     1      31.727 -11.135 -21.424  0.00  0.00    +0.017 C 
ATOM     24  C   UNL     1      32.536 -13.779 -21.059  0.00  0.00    -0.001 C 
ATOM     25  C   UNL     1      31.272 -11.844 -20.293  0.00  0.00    +0.081 C 
ATOM     26  C   UNL     1      31.689 -13.162 -20.134  0.00  0.00    +0.019 C 
ATOM     27  C   UNL     1      31.307  -9.808 -21.586  0.00  0.00    +0.003 C 
ATOM     28  C   UNL     1      30.466  -9.224 -20.649  0.00  0.00    +0.021 C 
ATOM     29  C   UNL     1      30.073  -9.996 -19.575  0.00  0.00    +0.099 C 
ENDBRANCH  19  21
ENDBRANCH   1  19
TORSDOF 6
ENDMDL
MODEL 7
REMARK VINA RESULT:     -10.0      3.269      8.791
REMARK  Name = 17754438
REMARK  6 active torsions:
REMARK  status: ('A' for Active; 'I' for Inactive)
REMARK    1  A    between atoms: N_1  and  C_19
REMARK    2  A    between atoms: C_7  and  C_12
REMARK    3  A    between atoms: N_10  and  C_15
REMARK    4  A    between atoms: C_15  and  C_16
REMARK    5  A    between atoms: C_16  and  O_17
REMARK    6  A    between atoms: C_19  and  C_21
REMARK                            x       y       z     vdW  Elec       q    Type
REMARK                         _______ _______ _______ _____ _____    ______ ____
ROOT
ATOM      1  N   UNL     1      34.761 -22.097 -16.757  0.00  0.00    -0.163 N 
ATOM      2  N   UNL     1      34.676 -20.598 -18.685  0.00  0.00    -0.378 NA
ATOM      3  N   UNL     1      33.914 -22.959 -16.159  0.00  0.00    -0.033 NA
ATOM      4  N   UNL     1      32.004 -21.709 -18.812  0.00  0.00    -0.208 NA
ATOM      5  N   UNL     1      32.767 -22.939 -16.837  0.00  0.00    -0.086 NA
ATOM      6  C   UNL     1      34.177 -21.505 -17.831  0.00  0.00    +0.267 C 
ATOM      7  C   UNL     1      33.763 -20.263 -19.625  0.00  0.00    +0.140 C 
ATOM      8  C   UNL     1      32.909 -22.054 -17.865  0.00  0.00    +0.098 C 
ATOM      9  C   UNL     1      32.482 -20.795 -19.686  0.00  0.00    +0.195 C 
ENDROOT
BRANCH   7  12
ATOM     10  N   UNL     1      34.234 -18.036 -22.377  0.00  0.00    -0.208 N 
ATOM     11  N   UNL     1      35.362 -17.697 -21.731  0.00  0.00    -0.176 NA
ATOM     12  C   UNL     1      34.192 -19.296 -20.594  0.00  0.00    +0.064 C 
ATOM     13  C   UNL     1      33.497 -18.990 -21.738  0.00  0.00    +0.088 C 
ATOM     14  C   UNL     1      35.331 -18.470 -20.642  0.00  0.00    +0.121 C 
BRANCH  10  15
ATOM     15  C   UNL     1      33.906 -17.396 -23.629  0.00  0.00    +0.148 C 
BRANCH  15  16
ATOM     16  C   UNL     1      33.644 -15.904 -23.471  0.00  0.00    +0.161 C 
BRANCH  16  17
ATOM     17  O   UNL     1      34.823 -15.257 -23.011  0.00  0.00    -0.380 OA
ATOM     18  H   UNL     1      35.600 -15.680 -23.407  0.00  0.00    +0.211 HD
ENDBRANCH  16  17
ENDBRANCH  15  16
ENDBRANCH  10  15
ENDBRANCH   7  12
BRANCH   1  19
ATOM     19  C   UNL     1      36.118 -21.898 -16.235  0.00  0.00    +0.145 C 
BRANCH  19  21
ATOM     20  N   UNL     1      37.089 -24.981 -11.589  0.00  0.00    -0.244 NA
ATOM     21  C   UNL     1      36.364 -22.708 -15.007  0.00  0.00    -0.000 C 
ATOM     22  C   UNL     1      35.505 -22.605 -13.917  0.00  0.00    -0.001 C 
ATOM     23  C   UNL     1      35.735 -23.366 -12.757  0.00  0.00    +0.017 C 
ATOM     24  C   UNL     1      37.455 -23.566 -14.943  0.00  0.00    -0.001 C 
ATOM     25  C   UNL     1      36.840 -24.239 -12.686  0.00  0.00    +0.081 C 
ATOM     26  C   UNL     1      37.683 -24.322 -13.790  0.00  0.00    +0.019 C 
ATOM     27  C   UNL     1      34.885 -23.282 -11.646  0.00  0.00    +0.003 C 
ATOM     28  C   UNL     1      35.139 -24.046 -10.515  0.00  0.00    +0.021 C 
ATOM     29  C   UNL     1      36.244 -24.872 -10.538  0.00  0.00    +0.099 C 
ENDBRANCH  19  21
ENDBRANCH   1  19
TORSDOF 6
ENDMDL
MODEL 8
REMARK VINA RESULT:     -10.0      5.760     11.417
REMARK  Name = 17754438
REMARK  6 active torsions:
REMARK  status: ('A' for Active; 'I' for Inactive)
REMARK    1  A    between atoms: N_1  and  C_19
REMARK    2  A    between atoms: C_7  and  C_12
REMARK    3  A    between atoms: N_10  and  C_15
REMARK    4  A    between atoms: C_15  and  C_16
REMARK    5  A    between atoms: C_16  and  O_17
REMARK    6  A    between atoms: C_19  and  C_21
REMARK                            x       y       z     vdW  Elec       q    Type
REMARK                         _______ _______ _______ _____ _____    ______ ____
ROOT
ATOM      1  N   UNL     1      34.467 -17.897 -22.553  0.00  0.00    -0.163 N 
ATOM      2  N   UNL     1      33.714 -15.574 -22.657  0.00  0.00    -0.378 NA
ATOM      3  N   UNL     1      34.237 -19.024 -23.256  0.00  0.00    -0.033 NA
ATOM      4  N   UNL     1      32.248 -16.664 -24.905  0.00  0.00    -0.208 NA
ATOM      5  N   UNL     1      33.379 -18.728 -24.231  0.00  0.00    -0.086 NA
ATOM      6  C   UNL     1      33.762 -16.852 -23.061  0.00  0.00    +0.267 C 
ATOM      7  C   UNL     1      32.884 -14.848 -23.440  0.00  0.00    +0.140 C 
ATOM      8  C   UNL     1      33.077 -17.402 -24.128  0.00  0.00    +0.098 C 
ATOM      9  C   UNL     1      32.181 -15.370 -24.517  0.00  0.00    +0.195 C 
ENDROOT
BRANCH   7  12
ATOM     10  N   UNL     1      32.126 -11.635 -22.077  0.00  0.00    -0.208 N 
ATOM     11  N   UNL     1      32.959 -11.187 -23.032  0.00  0.00    -0.176 NA
ATOM     12  C   UNL     1      32.756 -13.462 -23.095  0.00  0.00    +0.064 C 
ATOM     13  C   UNL     1      31.970 -12.990 -22.072  0.00  0.00    +0.088 C 
ATOM     14  C   UNL     1      33.341 -12.308 -23.651  0.00  0.00    +0.121 C 
BRANCH  10  15
ATOM     15  C   UNL     1      31.497 -10.697 -21.178  0.00  0.00    +0.148 C 
BRANCH  15  16
ATOM     16  C   UNL     1      30.764 -11.386 -20.035  0.00  0.00    +0.161 C 
BRANCH  16  17
ATOM     17  O   UNL     1      30.004 -10.430 -19.308  0.00  0.00    -0.380 OA
ATOM     18  H   UNL     1      29.153 -10.288 -19.751  0.00  0.00    +0.211 HD
ENDBRANCH  16  17
ENDBRANCH  15  16
ENDBRANCH  10  15
ENDBRANCH   7  12
BRANCH   1  19
ATOM     19  C   UNL     1      35.379 -17.904 -21.404  0.00  0.00    +0.145 C 
BRANCH  19  21
ATOM     20  N   UNL     1      34.234 -22.106 -17.791  0.00  0.00    -0.244 NA
ATOM     21  C   UNL     1      35.068 -19.011 -20.455  0.00  0.00    -0.000 C 
ATOM     22  C   UNL     1      33.745 -19.353 -20.187  0.00  0.00    -0.001 C 
ATOM     23  C   UNL     1      33.447 -20.395 -19.292  0.00  0.00    +0.017 C 
ATOM     24  C   UNL     1      36.096 -19.706 -19.829  0.00  0.00    -0.001 C 
ATOM     25  C   UNL     1      34.486 -21.104 -18.654  0.00  0.00    +0.081 C 
ATOM     26  C   UNL     1      35.799 -20.741 -18.940  0.00  0.00    +0.019 C 
ATOM     27  C   UNL     1      32.125 -20.759 -19.006  0.00  0.00    +0.003 C 
ATOM     28  C   UNL     1      31.863 -21.792 -18.116  0.00  0.00    +0.021 C 
ATOM     29  C   UNL     1      32.944 -22.428 -17.542  0.00  0.00    +0.099 C 
ENDBRANCH  19  21
ENDBRANCH   1  19
TORSDOF 6
ENDMDL
MODEL 9
REMARK VINA RESULT:      -9.9      1.863      2.405
REMARK  Name = 17754438
REMARK  6 active torsions:
REMARK  status: ('A' for Active; 'I' for Inactive)
REMARK    1  A    between atoms: N_1  and  C_19
REMARK    2  A    between atoms: C_7  and  C_12
REMARK    3  A    between atoms: N_10  and  C_15
REMARK    4  A    between atoms: C_15  and  C_16
REMARK    5  A    between atoms: C_16  and  O_17
REMARK    6  A    between atoms: C_19  and  C_21
REMARK                            x       y       z     vdW  Elec       q    Type
REMARK                         _______ _______ _______ _____ _____    ______ ____
ROOT
ATOM      1  N   UNL     1      31.878 -22.788 -16.719  0.00  0.00    -0.163 N 
ATOM      2  N   UNL     1      33.050 -23.433 -14.674  0.00  0.00    -0.378 NA
ATOM      3  N   UNL     1      30.657 -22.307 -17.027  0.00  0.00    -0.033 NA
ATOM      4  N   UNL     1      30.508 -22.622 -13.545  0.00  0.00    -0.208 NA
ATOM      5  N   UNL     1      29.971 -22.177 -15.892  0.00  0.00    -0.086 NA
ATOM      6  C   UNL     1      32.004 -22.976 -15.379  0.00  0.00    +0.267 C 
ATOM      7  C   UNL     1      32.765 -23.468 -13.352  0.00  0.00    +0.140 C 
ATOM      8  C   UNL     1      30.781 -22.581 -14.871  0.00  0.00    +0.098 C 
ATOM      9  C   UNL     1      31.548 -23.080 -12.811  0.00  0.00    +0.195 C 
ENDROOT
BRANCH   7  12
ATOM     10  N   UNL     1      35.784 -24.609 -11.820  0.00  0.00    -0.208 N 
ATOM     11  N   UNL     1      35.028 -24.687 -10.711  0.00  0.00    -0.176 NA
ATOM     12  C   UNL     1      33.817 -23.944 -12.501  0.00  0.00    +0.064 C 
ATOM     13  C   UNL     1      35.106 -24.170 -12.919  0.00  0.00    +0.088 C 
ATOM     14  C   UNL     1      33.828 -24.279 -11.134  0.00  0.00    +0.121 C 
BRANCH  10  15
ATOM     15  C   UNL     1      37.179 -24.975 -11.763  0.00  0.00    +0.148 C 
BRANCH  15  16
ATOM     16  C   UNL     1      38.019 -23.954 -11.008  0.00  0.00    +0.161 C 
BRANCH  16  17
ATOM     17  O   UNL     1      37.352 -22.699 -10.996  0.00  0.00    -0.380 OA
ATOM     18  H   UNL     1      37.950 -22.018 -10.649  0.00  0.00    +0.211 HD
ENDBRANCH  16  17
ENDBRANCH  15  16
ENDBRANCH  10  15
ENDBRANCH   7  12
BRANCH   1  19
ATOM     19  C   UNL     1      32.870 -23.039 -17.770  0.00  0.00    +0.145 C 
BRANCH  19  21
ATOM     20  N   UNL     1      33.836 -18.405 -20.871  0.00  0.00    -0.244 NA
ATOM     21  C   UNL     1      33.135 -21.820 -18.586  0.00  0.00    -0.000 C 
ATOM     22  C   UNL     1      34.436 -21.353 -18.745  0.00  0.00    -0.001 C 
ATOM     23  C   UNL     1      34.690 -20.203 -19.514  0.00  0.00    +0.017 C 
ATOM     24  C   UNL     1      32.083 -21.141 -19.190  0.00  0.00    -0.001 C 
ATOM     25  C   UNL     1      33.627 -19.510 -20.130  0.00  0.00    +0.081 C 
ATOM     26  C   UNL     1      32.336 -19.999 -19.954  0.00  0.00    +0.019 C 
ATOM     27  C   UNL     1      35.990 -19.712 -19.691  0.00  0.00    +0.003 C 
ATOM     28  C   UNL     1      36.208 -18.574 -20.454  0.00  0.00    +0.021 C 
ATOM     29  C   UNL     1      35.106 -17.964 -21.018  0.00  0.00    +0.099 C 
ENDBRANCH  19  21
ENDBRANCH   1  19
TORSDOF 6
ENDMDL
