MODEL 1
REMARK VINA RESULT:     -12.3      0.000      0.000
REMARK  Name = 46926973
REMARK  4 active torsions:
REMARK  status: ('A' for Active; 'I' for Inactive)
REMARK    1  A    between atoms: C_4  and  C_17
REMARK    2  A    between atoms: C_6  and  C_13
REMARK    3  A    between atoms: C_17  and  C_19
REMARK    4  A    between atoms: C_21  and  C_26
REMARK                            x       y       z     vdW  Elec       q    Type
REMARK                         _______ _______ _______ _____ _____    ______ ____
ROOT
ATOM      1  O   UNL     1      35.711 -18.624 -22.128  0.00  0.00    -0.274 OA
ATOM      2  N   UNL     1      33.444 -19.015 -21.642  0.00  0.00    -0.269 N 
ATOM      3  N   UNL     1      32.326 -20.212 -19.935  0.00  0.00    -0.229 NA
ATOM      4  C   UNL     1      34.517 -18.487 -22.373  0.00  0.00    +0.232 C 
ATOM      5  C   UNL     1      33.492 -19.805 -20.487  0.00  0.00    +0.134 C 
ATOM      6  C   UNL     1      33.624 -21.341 -18.235  0.00  0.00    +0.038 C 
ATOM      7  C   UNL     1      34.742 -20.120 -19.979  0.00  0.00    +0.035 C 
ATOM      8  C   UNL     1      34.801 -20.903 -18.833  0.00  0.00    +0.006 C 
ATOM      9  C   UNL     1      32.423 -20.972 -18.821  0.00  0.00    +0.102 C 
ATOM     10  H   UNL     1      32.544 -18.803 -21.982  0.00  0.00    +0.156 HD
ENDROOT
BRANCH   6  13
ATOM     11  N   UNL     1      34.830 -22.207 -16.391  0.00  0.00    -0.241 NA
ATOM     12  N   UNL     1      32.572 -23.601 -15.487  0.00  0.00    -0.239 NA
ATOM     13  C   UNL     1      33.651 -22.156 -17.044  0.00  0.00    +0.102 C 
ATOM     14  C   UNL     1      32.542 -22.840 -16.599  0.00  0.00    +0.118 C 
ATOM     15  C   UNL     1      34.859 -22.967 -15.279  0.00  0.00    +0.119 C 
ATOM     16  C   UNL     1      33.750 -23.652 -14.834  0.00  0.00    +0.120 C 
ENDBRANCH   6  13
BRANCH   4  17
ATOM     17  C   UNL     1      34.019 -17.681 -23.562  0.00  0.00    +0.113 C 
BRANCH  17  19
ATOM     18  N   UNL     1      32.700 -14.148 -23.901  0.00  0.00    -0.244 NA
ATOM     19  C   UNL     1      33.638 -16.266 -23.210  0.00  0.00    +0.006 C 
ATOM     20  C   UNL     1      33.491 -14.454 -21.636  0.00  0.00    -0.004 C 
ATOM     21  C   UNL     1      32.924 -13.694 -22.647  0.00  0.00    +0.077 C 
ATOM     22  C   UNL     1      33.852 -15.764 -21.932  0.00  0.00    -0.005 C 
ATOM     23  C   UNL     1      33.064 -15.425 -24.150  0.00  0.00    +0.095 C 
ATOM     24  C   UNL     1      33.722 -13.917 -20.265  0.00  0.00    +0.033 C 
BRANCH  21  26
ATOM     25  N   UNL     1      31.731  -9.671 -22.025  0.00  0.00    -0.248 NA
ATOM     26  C   UNL     1      32.517 -12.323 -22.435  0.00  0.00    +0.020 C 
ATOM     27  C   UNL     1      31.571 -12.017 -21.462  0.00  0.00    +0.016 C 
ATOM     28  C   UNL     1      33.071 -11.304 -23.203  0.00  0.00    +0.022 C 
ATOM     29  C   UNL     1      31.216 -10.687 -21.298  0.00  0.00    +0.059 C 
ATOM     30  C   UNL     1      32.648 -10.007 -22.961  0.00  0.00    +0.098 C 
ATOM     31  C   UNL     1      30.203 -10.323 -20.264  0.00  0.00    +0.052 C 
ENDBRANCH  21  26
ENDBRANCH  17  19
ENDBRANCH   4  17
TORSDOF 4
ENDMDL
MODEL 2
REMARK VINA RESULT:     -12.2      1.331      1.980
REMARK  Name = 46926973
REMARK  4 active torsions:
REMARK  status: ('A' for Active; 'I' for Inactive)
REMARK    1  A    between atoms: C_4  and  C_17
REMARK    2  A    between atoms: C_6  and  C_13
REMARK    3  A    between atoms: C_17  and  C_19
REMARK    4  A    between atoms: C_21  and  C_26
REMARK                            x       y       z     vdW  Elec       q    Type
REMARK                         _______ _______ _______ _____ _____    ______ ____
ROOT
ATOM      1  O   UNL     1      32.632 -19.428 -21.470  0.00  0.00    -0.274 OA
ATOM      2  N   UNL     1      34.752 -19.638 -20.473  0.00  0.00    -0.269 N 
ATOM      3  N   UNL     1      35.536 -20.735 -18.529  0.00  0.00    -0.229 NA
ATOM      4  C   UNL     1      33.838 -19.199 -21.440  0.00  0.00    +0.232 C 
ATOM      5  C   UNL     1      34.500 -20.423 -19.340  0.00  0.00    +0.134 C 
ATOM      6  C   UNL     1      33.973 -21.955 -17.145  0.00  0.00    +0.038 C 
ATOM      7  C   UNL     1      33.194 -20.832 -19.124  0.00  0.00    +0.035 C 
ATOM      8  C   UNL     1      32.933 -21.612 -18.003  0.00  0.00    +0.006 C 
ATOM      9  C   UNL     1      35.244 -21.495 -17.449  0.00  0.00    +0.102 C 
ATOM     10  H   UNL     1      35.687 -19.361 -20.606  0.00  0.00    +0.156 HD
ENDROOT
BRANCH   6  13
ATOM     11  N   UNL     1      34.825 -23.320 -15.408  0.00  0.00    -0.241 NA
ATOM     12  N   UNL     1      32.251 -23.711 -14.366  0.00  0.00    -0.239 NA
ATOM     13  C   UNL     1      33.734 -22.763 -15.973  0.00  0.00    +0.102 C 
ATOM     14  C   UNL     1      32.470 -22.955 -15.460  0.00  0.00    +0.118 C 
ATOM     15  C   UNL     1      34.605 -24.074 -14.314  0.00  0.00    +0.119 C 
ATOM     16  C   UNL     1      33.341 -24.267 -13.802  0.00  0.00    +0.120 C 
ENDBRANCH   6  13
BRANCH   4  17
ATOM     17  C   UNL     1      34.534 -18.370 -22.508  0.00  0.00    +0.113 C 
BRANCH  17  19
ATOM     18  N   UNL     1      33.743 -14.836 -21.401  0.00  0.00    -0.244 NA
ATOM     19  C   UNL     1      34.068 -16.937 -22.551  0.00  0.00    +0.006 C 
ATOM     20  C   UNL     1      33.125 -15.063 -23.728  0.00  0.00    -0.004 C 
ATOM     21  C   UNL     1      33.243 -14.337 -22.554  0.00  0.00    +0.077 C 
ATOM     22  C   UNL     1      33.548 -16.388 -23.717  0.00  0.00    -0.005 C 
ATOM     23  C   UNL     1      34.144 -16.126 -21.430  0.00  0.00    +0.095 C 
ATOM     24  C   UNL     1      32.566 -14.477 -24.979  0.00  0.00    +0.033 C 
BRANCH  21  26
ATOM     25  N   UNL     1      32.031 -10.280 -22.299  0.00  0.00    -0.248 NA
ATOM     26  C   UNL     1      32.830 -12.954 -22.467  0.00  0.00    +0.020 C 
ATOM     27  C   UNL     1      31.870 -12.569 -21.537  0.00  0.00    +0.016 C 
ATOM     28  C   UNL     1      33.390 -12.003 -23.313  0.00  0.00    +0.022 C 
ATOM     29  C   UNL     1      31.509 -11.232 -21.494  0.00  0.00    +0.059 C 
ATOM     30  C   UNL     1      32.960 -10.692 -23.191  0.00  0.00    +0.098 C 
ATOM     31  C   UNL     1      30.481 -10.783 -20.509  0.00  0.00    +0.052 C 
ENDBRANCH  21  26
ENDBRANCH  17  19
ENDBRANCH   4  17
TORSDOF 4
ENDMDL
MODEL 3
REMARK VINA RESULT:     -12.2      1.389      2.368
REMARK  Name = 46926973
REMARK  4 active torsions:
REMARK  status: ('A' for Active; 'I' for Inactive)
REMARK    1  A    between atoms: C_4  and  C_17
REMARK    2  A    between atoms: C_6  and  C_13
REMARK    3  A    between atoms: C_17  and  C_19
REMARK    4  A    between atoms: C_21  and  C_26
REMARK                            x       y       z     vdW  Elec       q    Type
REMARK                         _______ _______ _______ _____ _____    ______ ____
ROOT
ATOM      1  O   UNL     1      32.627 -19.441 -21.480  0.00  0.00    -0.274 OA
ATOM      2  N   UNL     1      34.740 -19.670 -20.474  0.00  0.00    -0.269 N 
ATOM      3  N   UNL     1      35.504 -20.767 -18.522  0.00  0.00    -0.229 NA
ATOM      4  C   UNL     1      33.834 -19.226 -21.447  0.00  0.00    +0.232 C 
ATOM      5  C   UNL     1      34.475 -20.446 -19.338  0.00  0.00    +0.134 C 
ATOM      6  C   UNL     1      33.923 -21.963 -17.138  0.00  0.00    +0.038 C 
ATOM      7  C   UNL     1      33.164 -20.841 -19.125  0.00  0.00    +0.035 C 
ATOM      8  C   UNL     1      32.891 -21.612 -18.002  0.00  0.00    +0.006 C 
ATOM      9  C   UNL     1      35.200 -21.518 -17.440  0.00  0.00    +0.102 C 
ATOM     10  H   UNL     1      35.679 -19.404 -20.604  0.00  0.00    +0.156 HD
ENDROOT
BRANCH   6  13
ATOM     11  N   UNL     1      34.754 -23.324 -15.388  0.00  0.00    -0.241 NA
ATOM     12  N   UNL     1      32.171 -23.691 -14.361  0.00  0.00    -0.239 NA
ATOM     13  C   UNL     1      33.671 -22.763 -15.963  0.00  0.00    +0.102 C 
ATOM     14  C   UNL     1      32.402 -22.943 -15.458  0.00  0.00    +0.118 C 
ATOM     15  C   UNL     1      34.522 -24.070 -14.291  0.00  0.00    +0.119 C 
ATOM     16  C   UNL     1      33.254 -24.252 -13.786  0.00  0.00    +0.120 C 
ENDBRANCH   6  13
BRANCH   4  17
ATOM     17  C   UNL     1      34.544 -18.409 -22.515  0.00  0.00    +0.113 C 
BRANCH  17  19
ATOM     18  N   UNL     1      33.793 -14.856 -21.443  0.00  0.00    -0.244 NA
ATOM     19  C   UNL     1      34.090 -16.973 -22.572  0.00  0.00    +0.006 C 
ATOM     20  C   UNL     1      33.152 -15.105 -23.761  0.00  0.00    -0.004 C 
ATOM     21  C   UNL     1      33.287 -14.366 -22.597  0.00  0.00    +0.077 C 
ATOM     22  C   UNL     1      33.564 -16.433 -23.739  0.00  0.00    -0.005 C 
ATOM     23  C   UNL     1      34.182 -16.150 -21.460  0.00  0.00    +0.095 C 
ATOM     24  C   UNL     1      32.587 -14.529 -25.014  0.00  0.00    +0.033 C 
BRANCH  21  26
ATOM     25  N   UNL     1      32.110 -10.297 -22.378  0.00  0.00    -0.248 NA
ATOM     26  C   UNL     1      32.886 -12.979 -22.522  0.00  0.00    +0.020 C 
ATOM     27  C   UNL     1      33.487 -12.033 -23.346  0.00  0.00    +0.016 C 
ATOM     28  C   UNL     1      31.898 -12.585 -21.627  0.00  0.00    +0.022 C 
ATOM     29  C   UNL     1      33.066 -10.717 -23.236  0.00  0.00    +0.059 C 
ATOM     30  C   UNL     1      31.549 -11.245 -21.593  0.00  0.00    +0.098 C 
ATOM     31  C   UNL     1      33.689  -9.675 -24.104  0.00  0.00    +0.052 C 
ENDBRANCH  21  26
ENDBRANCH  17  19
ENDBRANCH   4  17
TORSDOF 4
ENDMDL
MODEL 4
REMARK VINA RESULT:     -12.1      1.951      3.618
REMARK  Name = 46926973
REMARK  4 active torsions:
REMARK  status: ('A' for Active; 'I' for Inactive)
REMARK    1  A    between atoms: C_4  and  C_17
REMARK    2  A    between atoms: C_6  and  C_13
REMARK    3  A    between atoms: C_17  and  C_19
REMARK    4  A    between atoms: C_21  and  C_26
REMARK                            x       y       z     vdW  Elec       q    Type
REMARK                         _______ _______ _______ _____ _____    ______ ____
ROOT
ATOM      1  O   UNL     1      32.618 -20.120 -20.158  0.00  0.00    -0.274 OA
ATOM      2  N   UNL     1      34.340 -20.873 -18.744  0.00  0.00    -0.269 N 
ATOM      3  N   UNL     1      34.369 -22.121 -16.735  0.00  0.00    -0.229 NA
ATOM      4  C   UNL     1      33.805 -20.217 -19.861  0.00  0.00    +0.232 C 
ATOM      5  C   UNL     1      33.652 -21.554 -17.731  0.00  0.00    +0.134 C 
ATOM      6  C   UNL     1      32.280 -22.874 -15.777  0.00  0.00    +0.038 C 
ATOM      7  C   UNL     1      32.270 -21.602 -17.819  0.00  0.00    +0.035 C 
ATOM      8  C   UNL     1      31.579 -22.276 -16.818  0.00  0.00    +0.006 C 
ATOM      9  C   UNL     1      33.662 -22.768 -15.781  0.00  0.00    +0.102 C 
ATOM     10  H   UNL     1      35.321 -20.853 -18.661  0.00  0.00    +0.156 HD
ENDROOT
BRANCH   6  13
ATOM     11  N   UNL     1      30.285 -23.837 -14.942  0.00  0.00    -0.241 NA
ATOM     12  N   UNL     1      31.579 -24.630 -12.584  0.00  0.00    -0.239 NA
ATOM     13  C   UNL     1      31.591 -23.581 -14.724  0.00  0.00    +0.102 C 
ATOM     14  C   UNL     1      32.226 -23.971 -13.566  0.00  0.00    +0.118 C 
ATOM     15  C   UNL     1      29.639 -24.497 -13.961  0.00  0.00    +0.119 C 
ATOM     16  C   UNL     1      30.274 -24.886 -12.802  0.00  0.00    +0.120 C 
ENDBRANCH   6  13
BRANCH   4  17
ATOM     17  C   UNL     1      34.908 -19.609 -20.713  0.00  0.00    +0.113 C 
BRANCH  17  19
ATOM     18  N   UNL     1      33.921 -17.203 -23.465  0.00  0.00    -0.244 NA
ATOM     19  C   UNL     1      34.495 -18.338 -21.409  0.00  0.00    +0.006 C 
ATOM     20  C   UNL     1      33.929 -16.001 -21.367  0.00  0.00    -0.004 C 
ATOM     21  C   UNL     1      33.750 -16.076 -22.739  0.00  0.00    +0.077 C 
ATOM     22  C   UNL     1      34.309 -17.159 -20.697  0.00  0.00    -0.005 C 
ATOM     23  C   UNL     1      34.290 -18.308 -22.780  0.00  0.00    +0.095 C 
ATOM     24  C   UNL     1      33.732 -14.738 -20.602  0.00  0.00    +0.033 C 
BRANCH  21  26
ATOM     25  N   UNL     1      32.596 -12.700 -25.033  0.00  0.00    -0.248 NA
ATOM     26  C   UNL     1      33.356 -14.925 -23.521  0.00  0.00    +0.020 C 
ATOM     27  C   UNL     1      33.511 -13.643 -23.004  0.00  0.00    +0.016 C 
ATOM     28  C   UNL     1      32.822 -15.095 -24.793  0.00  0.00    +0.022 C 
ATOM     29  C   UNL     1      33.119 -12.574 -23.794  0.00  0.00    +0.059 C 
ATOM     30  C   UNL     1      32.460 -13.961 -25.502  0.00  0.00    +0.098 C 
ATOM     31  C   UNL     1      33.270 -11.184 -23.271  0.00  0.00    +0.052 C 
ENDBRANCH  21  26
ENDBRANCH  17  19
ENDBRANCH   4  17
TORSDOF 4
ENDMDL
MODEL 5
REMARK VINA RESULT:     -12.0      0.591      1.529
REMARK  Name = 46926973
REMARK  4 active torsions:
REMARK  status: ('A' for Active; 'I' for Inactive)
REMARK    1  A    between atoms: C_4  and  C_17
REMARK    2  A    between atoms: C_6  and  C_13
REMARK    3  A    between atoms: C_17  and  C_19
REMARK    4  A    between atoms: C_21  and  C_26
REMARK                            x       y       z     vdW  Elec       q    Type
REMARK                         _______ _______ _______ _____ _____    ______ ____
ROOT
ATOM      1  O   UNL     1      35.714 -18.583 -22.248  0.00  0.00    -0.274 OA
ATOM      2  N   UNL     1      33.468 -18.997 -21.685  0.00  0.00    -0.269 N 
ATOM      3  N   UNL     1      32.421 -20.198 -19.937  0.00  0.00    -0.229 NA
ATOM      4  C   UNL     1      34.510 -18.461 -22.454  0.00  0.00    +0.232 C 
ATOM      5  C   UNL     1      33.563 -19.781 -20.529  0.00  0.00    +0.134 C 
ATOM      6  C   UNL     1      33.787 -21.303 -18.275  0.00  0.00    +0.038 C 
ATOM      7  C   UNL     1      34.833 -20.078 -20.061  0.00  0.00    +0.035 C 
ATOM      8  C   UNL     1      34.938 -20.855 -18.913  0.00  0.00    +0.006 C 
ATOM      9  C   UNL     1      32.563 -20.951 -18.823  0.00  0.00    +0.102 C 
ATOM     10  H   UNL     1      32.556 -18.798 -21.997  0.00  0.00    +0.156 HD
ENDROOT
BRANCH   6  13
ATOM     11  N   UNL     1      32.755 -22.815 -16.773  0.00  0.00    -0.241 NA
ATOM     12  N   UNL     1      35.066 -22.917 -15.189  0.00  0.00    -0.239 NA
ATOM     13  C   UNL     1      33.863 -22.111 -17.081  0.00  0.00    +0.102 C 
ATOM     14  C   UNL     1      34.998 -22.162 -16.303  0.00  0.00    +0.118 C 
ATOM     15  C   UNL     1      32.823 -23.570 -15.660  0.00  0.00    +0.119 C 
ATOM     16  C   UNL     1      33.958 -23.621 -14.881  0.00  0.00    +0.120 C 
ENDBRANCH   6  13
BRANCH   4  17
ATOM     17  C   UNL     1      33.964 -17.667 -23.630  0.00  0.00    +0.113 C 
BRANCH  17  19
ATOM     18  N   UNL     1      32.711 -14.111 -23.974  0.00  0.00    -0.244 NA
ATOM     19  C   UNL     1      33.612 -16.244 -23.280  0.00  0.00    +0.006 C 
ATOM     20  C   UNL     1      33.506 -14.424 -21.711  0.00  0.00    -0.004 C 
ATOM     21  C   UNL     1      32.948 -13.658 -22.722  0.00  0.00    +0.077 C 
ATOM     22  C   UNL     1      33.840 -15.742 -22.005  0.00  0.00    -0.005 C 
ATOM     23  C   UNL     1      33.049 -15.395 -24.221  0.00  0.00    +0.095 C 
ATOM     24  C   UNL     1      33.753 -13.888 -20.343  0.00  0.00    +0.033 C 
BRANCH  21  26
ATOM     25  N   UNL     1      31.834  -9.611 -22.107  0.00  0.00    -0.248 NA
ATOM     26  C   UNL     1      32.569 -12.278 -22.512  0.00  0.00    +0.020 C 
ATOM     27  C   UNL     1      33.141 -11.272 -23.283  0.00  0.00    +0.016 C 
ATOM     28  C   UNL     1      31.630 -11.953 -21.540  0.00  0.00    +0.022 C 
ATOM     29  C   UNL     1      32.742  -9.966 -23.043  0.00  0.00    +0.059 C 
ATOM     30  C   UNL     1      31.300 -10.617 -21.378  0.00  0.00    +0.098 C 
ATOM     31  C   UNL     1      33.336  -8.860 -23.851  0.00  0.00    +0.052 C 
ENDBRANCH  21  26
ENDBRANCH  17  19
ENDBRANCH   4  17
TORSDOF 4
ENDMDL
MODEL 6
REMARK VINA RESULT:     -11.9      2.206     10.384
REMARK  Name = 46926973
REMARK  4 active torsions:
REMARK  status: ('A' for Active; 'I' for Inactive)
REMARK    1  A    between atoms: C_4  and  C_17
REMARK    2  A    between atoms: C_6  and  C_13
REMARK    3  A    between atoms: C_17  and  C_19
REMARK    4  A    between atoms: C_21  and  C_26
REMARK                            x       y       z     vdW  Elec       q    Type
REMARK                         _______ _______ _______ _____ _____    ______ ____
ROOT
ATOM      1  O   UNL     1      35.524 -18.937 -19.290  0.00  0.00    -0.274 OA
ATOM      2  N   UNL     1      34.369 -19.653 -21.210  0.00  0.00    -0.269 N 
ATOM      3  N   UNL     1      33.400 -18.518 -23.045  0.00  0.00    -0.229 NA
ATOM      4  C   UNL     1      35.051 -19.822 -19.997  0.00  0.00    +0.232 C 
ATOM      5  C   UNL     1      34.076 -18.456 -21.876  0.00  0.00    +0.134 C 
ATOM      6  C   UNL     1      33.527 -16.105 -23.148  0.00  0.00    +0.038 C 
ATOM      7  C   UNL     1      34.504 -17.277 -21.288  0.00  0.00    +0.035 C 
ATOM      8  C   UNL     1      34.219 -16.083 -21.942  0.00  0.00    +0.006 C 
ATOM      9  C   UNL     1      33.142 -17.337 -23.652  0.00  0.00    +0.102 C 
ATOM     10  H   UNL     1      34.056 -20.477 -21.647  0.00  0.00    +0.156 HD
ENDROOT
BRANCH   6  13
ATOM     11  N   UNL     1      32.864 -15.020 -25.145  0.00  0.00    -0.241 NA
ATOM     12  N   UNL     1      32.984 -12.512 -23.897  0.00  0.00    -0.239 NA
ATOM     13  C   UNL     1      33.216 -14.883 -23.851  0.00  0.00    +0.102 C 
ATOM     14  C   UNL     1      33.275 -13.651 -23.238  0.00  0.00    +0.118 C 
ATOM     15  C   UNL     1      32.573 -13.881 -25.803  0.00  0.00    +0.119 C 
ATOM     16  C   UNL     1      32.632 -12.649 -25.191  0.00  0.00    +0.120 C 
ENDBRANCH   6  13
BRANCH   4  17
ATOM     17  C   UNL     1      35.153 -21.295 -19.633  0.00  0.00    +0.113 C 
BRANCH  17  19
ATOM     18  N   UNL     1      31.983 -22.205 -17.773  0.00  0.00    -0.244 NA
ATOM     19  C   UNL     1      34.228 -21.700 -18.515  0.00  0.00    +0.006 C 
ATOM     20  C   UNL     1      33.836 -22.312 -16.222  0.00  0.00    -0.004 C 
ATOM     21  C   UNL     1      32.493 -22.430 -16.540  0.00  0.00    +0.077 C 
ATOM     22  C   UNL     1      34.714 -21.940 -17.235  0.00  0.00    -0.005 C 
ATOM     23  C   UNL     1      32.867 -21.846 -18.730  0.00  0.00    +0.095 C 
ATOM     24  C   UNL     1      34.358 -22.567 -14.850  0.00  0.00    +0.033 C 
BRANCH  21  26
ATOM     25  N   UNL     1      29.596 -23.547 -13.650  0.00  0.00    -0.248 NA
ATOM     26  C   UNL     1      31.505 -22.811 -15.555  0.00  0.00    +0.020 C 
ATOM     27  C   UNL     1      30.166 -22.488 -15.748  0.00  0.00    +0.016 C 
ATOM     28  C   UNL     1      31.890 -23.501 -14.411  0.00  0.00    +0.022 C 
ATOM     29  C   UNL     1      29.259 -22.876 -14.774  0.00  0.00    +0.059 C 
ATOM     30  C   UNL     1      30.906 -23.842 -13.497  0.00  0.00    +0.098 C 
ATOM     31  C   UNL     1      27.814 -22.546 -14.947  0.00  0.00    +0.052 C 
ENDBRANCH  21  26
ENDBRANCH  17  19
ENDBRANCH   4  17
TORSDOF 4
ENDMDL
MODEL 7
REMARK VINA RESULT:     -11.7      1.553     10.617
REMARK  Name = 46926973
REMARK  4 active torsions:
REMARK  status: ('A' for Active; 'I' for Inactive)
REMARK    1  A    between atoms: C_4  and  C_17
REMARK    2  A    between atoms: C_6  and  C_13
REMARK    3  A    between atoms: C_17  and  C_19
REMARK    4  A    between atoms: C_21  and  C_26
REMARK                            x       y       z     vdW  Elec       q    Type
REMARK                         _______ _______ _______ _____ _____    ______ ____
ROOT
ATOM      1  O   UNL     1      34.430 -17.123 -20.160  0.00  0.00    -0.274 OA
ATOM      2  N   UNL     1      33.817 -16.988 -22.427  0.00  0.00    -0.269 N 
ATOM      3  N   UNL     1      33.251 -15.191 -23.857  0.00  0.00    -0.229 NA
ATOM      4  C   UNL     1      34.197 -17.643 -21.247  0.00  0.00    +0.232 C 
ATOM      5  C   UNL     1      33.620 -15.616 -22.628  0.00  0.00    +0.134 C 
ATOM      6  C   UNL     1      33.249 -12.936 -22.984  0.00  0.00    +0.038 C 
ATOM      7  C   UNL     1      33.820 -14.777 -21.544  0.00  0.00    +0.035 C 
ATOM      8  C   UNL     1      33.628 -13.413 -21.733  0.00  0.00    +0.006 C 
ATOM      9  C   UNL     1      33.074 -13.858 -24.003  0.00  0.00    +0.102 C 
ATOM     10  H   UNL     1      33.670 -17.564 -23.212  0.00  0.00    +0.156 HD
ENDROOT
BRANCH   6  13
ATOM     11  N   UNL     1      32.271 -10.889 -22.307  0.00  0.00    -0.241 NA
ATOM     12  N   UNL     1      33.402  -9.552 -24.498  0.00  0.00    -0.239 NA
ATOM     13  C   UNL     1      33.042 -11.526 -23.212  0.00  0.00    +0.102 C 
ATOM     14  C   UNL     1      33.598 -10.869 -24.287  0.00  0.00    +0.118 C 
ATOM     15  C   UNL     1      32.076  -9.573 -22.518  0.00  0.00    +0.119 C 
ATOM     16  C   UNL     1      32.631  -8.916 -23.593  0.00  0.00    +0.120 C 
ENDBRANCH   6  13
BRANCH   4  17
ATOM     17  C   UNL     1      34.299 -19.144 -21.468  0.00  0.00    +0.113 C 
BRANCH  17  19
ATOM     18  N   UNL     1      32.264 -20.950 -18.835  0.00  0.00    -0.244 NA
ATOM     19  C   UNL     1      33.957 -19.954 -20.245  0.00  0.00    +0.006 C 
ATOM     20  C   UNL     1      34.607 -21.190 -18.286  0.00  0.00    -0.004 C 
ATOM     21  C   UNL     1      33.261 -21.412 -18.046  0.00  0.00    +0.077 C 
ATOM     22  C   UNL     1      34.953 -20.446 -19.409  0.00  0.00    -0.005 C 
ATOM     23  C   UNL     1      32.639 -20.232 -19.916  0.00  0.00    +0.095 C 
ATOM     24  C   UNL     1      35.677 -21.715 -17.391  0.00  0.00    +0.033 C 
BRANCH  21  26
ATOM     25  N   UNL     1      31.921 -23.643 -14.697  0.00  0.00    -0.248 NA
ATOM     26  C   UNL     1      32.804 -22.172 -16.904  0.00  0.00    +0.020 C 
ATOM     27  C   UNL     1      31.442 -22.304 -16.652  0.00  0.00    +0.016 C 
ATOM     28  C   UNL     1      33.724 -22.776 -16.055  0.00  0.00    +0.022 C 
ATOM     29  C   UNL     1      31.057 -23.043 -15.545  0.00  0.00    +0.059 C 
ATOM     30  C   UNL     1      33.237 -23.494 -14.974  0.00  0.00    +0.098 C 
ATOM     31  C   UNL     1      29.604 -23.205 -15.243  0.00  0.00    +0.052 C 
ENDBRANCH  21  26
ENDBRANCH  17  19
ENDBRANCH   4  17
TORSDOF 4
ENDMDL
MODEL 8
REMARK VINA RESULT:     -11.5      2.622     11.147
REMARK  Name = 46926973
REMARK  4 active torsions:
REMARK  status: ('A' for Active; 'I' for Inactive)
REMARK    1  A    between atoms: C_4  and  C_17
REMARK    2  A    between atoms: C_6  and  C_13
REMARK    3  A    between atoms: C_17  and  C_19
REMARK    4  A    between atoms: C_21  and  C_26
REMARK                            x       y       z     vdW  Elec       q    Type
REMARK                         _______ _______ _______ _____ _____    ______ ____
ROOT
ATOM      1  O   UNL     1      31.998 -13.591 -21.951  0.00  0.00    -0.274 OA
ATOM      2  N   UNL     1      33.203 -11.997 -23.191  0.00  0.00    -0.269 N 
ATOM      3  N   UNL     1      33.182  -9.633 -23.263  0.00  0.00    -0.229 NA
ATOM      4  C   UNL     1      32.843 -13.290 -22.788  0.00  0.00    +0.232 C 
ATOM      5  C   UNL     1      32.689 -10.777 -22.736  0.00  0.00    +0.134 C 
ATOM      6  C   UNL     1      31.666  -8.417 -21.824  0.00  0.00    +0.038 C 
ATOM      7  C   UNL     1      31.700 -10.821 -21.766  0.00  0.00    +0.035 C 
ATOM      8  C   UNL     1      31.183  -9.615 -21.308  0.00  0.00    +0.006 C 
ATOM      9  C   UNL     1      32.656  -8.480 -22.792  0.00  0.00    +0.102 C 
ATOM     10  H   UNL     1      33.905 -11.940 -23.879  0.00  0.00    +0.156 HD
ENDROOT
BRANCH   6  13
ATOM     11  N   UNL     1      31.678  -6.674 -20.222  0.00  0.00    -0.241 NA
ATOM     12  N   UNL     1      29.696  -5.279 -21.632  0.00  0.00    -0.239 NA
ATOM     13  C   UNL     1      31.149  -7.148 -21.368  0.00  0.00    +0.102 C 
ATOM     14  C   UNL     1      30.176  -6.463 -22.060  0.00  0.00    +0.118 C 
ATOM     15  C   UNL     1      31.198  -5.489 -19.795  0.00  0.00    +0.119 C 
ATOM     16  C   UNL     1      30.224  -4.804 -20.486  0.00  0.00    +0.120 C 
ENDBRANCH   6  13
BRANCH   4  17
ATOM     17  C   UNL     1      33.654 -14.337 -23.536  0.00  0.00    +0.113 C 
BRANCH  17  19
ATOM     18  N   UNL     1      34.251 -16.686 -20.627  0.00  0.00    -0.244 NA
ATOM     19  C   UNL     1      33.853 -15.610 -22.755  0.00  0.00    +0.006 C 
ATOM     20  C   UNL     1      34.021 -18.007 -22.639  0.00  0.00    -0.004 C 
ATOM     21  C   UNL     1      34.224 -17.872 -21.275  0.00  0.00    +0.077 C 
ATOM     22  C   UNL     1      33.833 -16.849 -23.385  0.00  0.00    -0.005 C 
ATOM     23  C   UNL     1      34.064 -15.583 -21.385  0.00  0.00    +0.095 C 
ATOM     24  C   UNL     1      34.000 -19.333 -23.317  0.00  0.00    +0.033 C 
BRANCH  21  26
ATOM     25  N   UNL     1      34.828 -21.232 -18.758  0.00  0.00    -0.248 NA
ATOM     26  C   UNL     1      34.430 -19.017 -20.417  0.00  0.00    +0.020 C 
ATOM     27  C   UNL     1      33.340 -19.748 -19.954  0.00  0.00    +0.016 C 
ATOM     28  C   UNL     1      35.718 -19.393 -20.051  0.00  0.00    +0.022 C 
ATOM     29  C   UNL     1      33.592 -20.837 -19.134  0.00  0.00    +0.059 C 
ATOM     30  C   UNL     1      35.862 -20.497 -19.227  0.00  0.00    +0.098 C 
ATOM     31  C   UNL     1      32.447 -21.644 -18.619  0.00  0.00    +0.052 C 
ENDBRANCH  21  26
ENDBRANCH  17  19
ENDBRANCH   4  17
TORSDOF 4
ENDMDL
MODEL 9
REMARK VINA RESULT:     -11.4      1.585     10.802
REMARK  Name = 46926973
REMARK  4 active torsions:
REMARK  status: ('A' for Active; 'I' for Inactive)
REMARK    1  A    between atoms: C_4  and  C_17
REMARK    2  A    between atoms: C_6  and  C_13
REMARK    3  A    between atoms: C_17  and  C_19
REMARK    4  A    between atoms: C_21  and  C_26
REMARK                            x       y       z     vdW  Elec       q    Type
REMARK                         _______ _______ _______ _____ _____    ______ ____
ROOT
ATOM      1  O   UNL     1      34.523 -16.926 -20.261  0.00  0.00    -0.274 OA
ATOM      2  N   UNL     1      33.894 -16.763 -22.521  0.00  0.00    -0.269 N 
ATOM      3  N   UNL     1      33.273 -14.954 -23.912  0.00  0.00    -0.229 NA
ATOM      4  C   UNL     1      34.298 -17.430 -21.357  0.00  0.00    +0.232 C 
ATOM      5  C   UNL     1      33.660 -15.393 -22.694  0.00  0.00    +0.134 C 
ATOM      6  C   UNL     1      33.216 -12.718 -22.994  0.00  0.00    +0.038 C 
ATOM      7  C   UNL     1      33.843 -14.570 -21.594  0.00  0.00    +0.035 C 
ATOM      8  C   UNL     1      33.614 -13.208 -21.755  0.00  0.00    +0.006 C 
ATOM      9  C   UNL     1      33.060 -13.623 -24.031  0.00  0.00    +0.102 C 
ATOM     10  H   UNL     1      33.759 -17.327 -23.317  0.00  0.00    +0.156 HD
ENDROOT
BRANCH   6  13
ATOM     11  N   UNL     1      32.172 -10.715 -22.282  0.00  0.00    -0.241 NA
ATOM     12  N   UNL     1      33.282  -9.298 -24.431  0.00  0.00    -0.239 NA
ATOM     13  C   UNL     1      32.969 -11.309 -23.193  0.00  0.00    +0.102 C 
ATOM     14  C   UNL     1      33.515 -10.612 -24.249  0.00  0.00    +0.118 C 
ATOM     15  C   UNL     1      31.941  -9.400 -22.465  0.00  0.00    +0.119 C 
ATOM     16  C   UNL     1      32.485  -8.704 -23.520  0.00  0.00    +0.120 C 
ENDBRANCH   6  13
BRANCH   4  17
ATOM     17  C   UNL     1      34.439 -18.923 -21.608  0.00  0.00    +0.113 C 
BRANCH  17  19
ATOM     18  N   UNL     1      35.415 -20.876 -18.514  0.00  0.00    -0.244 NA
ATOM     19  C   UNL     1      34.323 -19.755 -20.357  0.00  0.00    +0.006 C 
ATOM     20  C   UNL     1      33.007 -20.938 -18.728  0.00  0.00    -0.004 C 
ATOM     21  C   UNL     1      34.192 -21.260 -18.086  0.00  0.00    +0.077 C 
ATOM     22  C   UNL     1      33.083 -20.170 -19.885  0.00  0.00    -0.005 C 
ATOM     23  C   UNL     1      35.449 -20.131 -19.642  0.00  0.00    +0.095 C 
ATOM     24  C   UNL     1      31.677 -21.383 -18.224  0.00  0.00    +0.033 C 
BRANCH  21  26
ATOM     25  N   UNL     1      34.255 -23.590 -14.542  0.00  0.00    -0.248 NA
ATOM     26  C   UNL     1      34.213 -22.055 -16.878  0.00  0.00    +0.020 C 
ATOM     27  C   UNL     1      35.358 -22.093 -16.088  0.00  0.00    +0.016 C 
ATOM     28  C   UNL     1      33.090 -22.782 -16.500  0.00  0.00    +0.022 C 
ATOM     29  C   UNL     1      35.327 -22.870 -14.940  0.00  0.00    +0.059 C 
ATOM     30  C   UNL     1      33.161 -23.528 -15.335  0.00  0.00    +0.098 C 
ATOM     31  C   UNL     1      36.537 -22.936 -14.069  0.00  0.00    +0.052 C 
ENDBRANCH  21  26
ENDBRANCH  17  19
ENDBRANCH   4  17
TORSDOF 4
ENDMDL
