MODEL 1
REMARK VINA RESULT:     -12.9      0.000      0.000
REMARK  Name = 119057475
REMARK  5 active torsions:
REMARK  status: ('A' for Active; 'I' for Inactive)
REMARK    1  A    between atoms: N_1  and  C_22
REMARK    2  A    between atoms: C_2  and  N_8
REMARK    3  A    between atoms: N_8  and  C_11
REMARK    4  A    between atoms: C_11  and  C_16
REMARK    5  A    between atoms: C_22  and  C_26
REMARK                            x       y       z     vdW  Elec       q    Type
REMARK                         _______ _______ _______ _____ _____    ______ ____
ROOT
ATOM      1  N   UNL     1      33.420 -22.060 -18.733  0.00  0.00    +0.387 N 
ATOM      2  C   UNL     1      34.172 -19.530 -19.997  0.00  0.00    -0.066 C 
ATOM      3  C   UNL     1      34.784 -21.533 -18.589  0.00  0.00    -0.079 C 
ATOM      4  C   UNL     1      32.440 -20.972 -18.862  0.00  0.00    -0.079 C 
ATOM      5  C   UNL     1      35.172 -20.670 -19.793  0.00  0.00    -0.044 C 
ATOM      6  C   UNL     1      32.749 -20.090 -20.075  0.00  0.00    -0.044 C 
ATOM      7  H   UNL     1      33.386 -22.615 -19.588  0.00  0.00    -0.080 HD
ENDROOT
BRANCH   2   8
ATOM      8  N   UNL     1      34.504 -18.775 -21.203  0.00  0.00    +0.389 N 
ATOM      9  H   UNL     1      33.822 -18.992 -21.931  0.00  0.00    -0.084 HD
ATOM     10  H   UNL     1      35.442 -19.038 -21.506  0.00  0.00    -0.084 HD
BRANCH   8  11
ATOM     11  C   UNL     1      34.482 -17.344 -20.940  0.00  0.00    -0.032 C 
BRANCH  11  16
ATOM     12  O   UNL     1      32.932 -13.263 -23.069  0.00  0.00    -0.467 OA
ATOM     13  O   UNL     1      33.037 -14.655 -25.584  0.00  0.00    -0.453 OA
ATOM     14  N   UNL     1      34.165 -17.187 -23.350  0.00  0.00    -0.151 NA
ATOM     15  N   UNL     1      33.813 -16.518 -24.483  0.00  0.00    -0.107 NA
ATOM     16  C   UNL     1      34.088 -16.556 -22.160  0.00  0.00    +0.062 C 
ATOM     17  C   UNL     1      33.675 -15.245 -22.032  0.00  0.00    +0.056 C 
ATOM     18  C   UNL     1      33.329 -14.564 -23.187  0.00  0.00    +0.194 C 
ATOM     19  C   UNL     1      33.393 -15.238 -24.394  0.00  0.00    +0.278 C 
ATOM     20  C   UNL     1      32.911 -12.593 -24.333  0.00  0.00    +0.253 C 
ATOM     21  C   UNL     1      32.259 -13.473 -25.383  0.00  0.00    +0.254 C 
ENDBRANCH  11  16
ENDBRANCH   8  11
ENDBRANCH   2   8
BRANCH   1  22
ATOM     22  C   UNL     1      33.081 -22.922 -17.601  0.00  0.00    -0.071 C 
BRANCH  22  26
ATOM     23  F   UNL     1      30.204 -22.487 -16.080  0.00  0.00    -0.204 F 
ATOM     24  O   UNL     1      36.703 -23.141 -13.624  0.00  0.00    -0.270 OA
ATOM     25  N   UNL     1      34.520 -22.959 -14.369  0.00  0.00    -0.255 N 
ATOM     26  C   UNL     1      33.243 -22.180 -16.281  0.00  0.00    +0.025 C 
ATOM     27  C   UNL     1      34.676 -22.342 -15.693  0.00  0.00    +0.101 C 
ATOM     28  C   UNL     1      32.383 -22.746 -15.185  0.00  0.00    +0.018 C 
ATOM     29  C   UNL     1      33.170 -23.165 -14.127  0.00  0.00    +0.052 C 
ATOM     30  C   UNL     1      32.688 -23.730 -12.963  0.00  0.00    +0.014 C 
ATOM     31  C   UNL     1      31.012 -22.885 -15.089  0.00  0.00    +0.137 C 
ATOM     32  C   UNL     1      35.496 -23.303 -13.461  0.00  0.00    +0.253 C 
ATOM     33  C   UNL     1      31.307 -23.877 -12.861  0.00  0.00    +0.004 C 
ATOM     34  C   UNL     1      30.477 -23.455 -13.921  0.00  0.00    +0.029 C 
ATOM     35  C   UNL     1      33.675 -24.115 -11.959  0.00  0.00    +0.006 C 
ATOM     36  C   UNL     1      34.985 -23.918 -12.187  0.00  0.00    +0.058 C 
ENDBRANCH  22  26
ENDBRANCH   1  22
TORSDOF 5
ENDMDL
MODEL 2
REMARK VINA RESULT:     -12.9      4.102     11.836
REMARK  Name = 119057475
REMARK  5 active torsions:
REMARK  status: ('A' for Active; 'I' for Inactive)
REMARK    1  A    between atoms: N_1  and  C_22
REMARK    2  A    between atoms: C_2  and  N_8
REMARK    3  A    between atoms: N_8  and  C_11
REMARK    4  A    between atoms: C_11  and  C_16
REMARK    5  A    between atoms: C_22  and  C_26
REMARK                            x       y       z     vdW  Elec       q    Type
REMARK                         _______ _______ _______ _____ _____    ______ ____
ROOT
ATOM      1  N   UNL     1      32.946 -14.830 -23.431  0.00  0.00    +0.387 N 
ATOM      2  C   UNL     1      33.984 -17.558 -23.229  0.00  0.00    -0.066 C 
ATOM      3  C   UNL     1      34.189 -15.101 -22.695  0.00  0.00    -0.079 C 
ATOM      4  C   UNL     1      32.766 -15.778 -24.539  0.00  0.00    -0.079 C 
ATOM      5  C   UNL     1      34.194 -16.522 -22.124  0.00  0.00    -0.044 C 
ATOM      6  C   UNL     1      32.722 -17.221 -24.030  0.00  0.00    -0.044 C 
ATOM      7  H   UNL     1      32.167 -14.950 -22.784  0.00  0.00    -0.080 HD
ENDROOT
BRANCH   2   8
ATOM      8  N   UNL     1      33.896 -18.900 -22.656  0.00  0.00    +0.389 N 
ATOM      9  H   UNL     1      34.294 -19.570 -23.314  0.00  0.00    -0.084 HD
ATOM     10  H   UNL     1      32.916 -19.116 -22.478  0.00  0.00    -0.084 HD
BRANCH   8  11
ATOM     11  C   UNL     1      34.626 -18.974 -21.399  0.00  0.00    -0.032 C 
BRANCH  11  16
ATOM     12  O   UNL     1      34.560 -22.038 -17.631  0.00  0.00    -0.467 OA
ATOM     13  O   UNL     1      31.686 -21.931 -17.726  0.00  0.00    -0.453 OA
ATOM     14  N   UNL     1      32.543 -19.722 -20.382  0.00  0.00    -0.151 NA
ATOM     15  N   UNL     1      31.832 -20.446 -19.475  0.00  0.00    -0.107 NA
ATOM     16  C   UNL     1      33.891 -19.790 -20.371  0.00  0.00    +0.062 C 
ATOM     17  C   UNL     1      34.594 -20.559 -19.466  0.00  0.00    +0.056 C 
ATOM     18  C   UNL     1      33.868 -21.285 -18.537  0.00  0.00    +0.194 C 
ATOM     19  C   UNL     1      32.487 -21.219 -18.583  0.00  0.00    +0.278 C 
ATOM     20  C   UNL     1      33.726 -22.476 -16.554  0.00  0.00    +0.253 C 
ATOM     21  C   UNL     1      32.403 -22.990 -17.087  0.00  0.00    +0.254 C 
ENDBRANCH  11  16
ENDBRANCH   8  11
ENDBRANCH   2   8
BRANCH   1  22
ATOM     22  C   UNL     1      32.935 -13.454 -23.927  0.00  0.00    -0.071 C 
BRANCH  22  26
ATOM     23  F   UNL     1      34.525 -10.828 -25.092  0.00  0.00    -0.204 F 
ATOM     24  O   UNL     1      30.352 -11.652 -19.560  0.00  0.00    -0.270 OA
ATOM     25  N   UNL     1      31.710 -11.301 -21.400  0.00  0.00    -0.255 N 
ATOM     26  C   UNL     1      33.293 -12.471 -22.822  0.00  0.00    +0.025 C 
ATOM     27  C   UNL     1      32.352 -12.609 -21.589  0.00  0.00    +0.101 C 
ATOM     28  C   UNL     1      33.082 -11.037 -23.225  0.00  0.00    +0.018 C 
ATOM     29  C   UNL     1      32.175 -10.429 -22.374  0.00  0.00    +0.052 C 
ATOM     30  C   UNL     1      31.766  -9.115 -22.471  0.00  0.00    +0.014 C 
ATOM     31  C   UNL     1      33.636 -10.292 -24.247  0.00  0.00    +0.137 C 
ATOM     32  C   UNL     1      30.796 -10.923 -20.444  0.00  0.00    +0.253 C 
ATOM     33  C   UNL     1      32.317  -8.359 -23.501  0.00  0.00    +0.004 C 
ATOM     34  C   UNL     1      33.248  -8.948 -24.382  0.00  0.00    +0.029 C 
ATOM     35  C   UNL     1      30.796  -8.653 -21.482  0.00  0.00    +0.006 C 
ATOM     36  C   UNL     1      30.341  -9.491 -20.536  0.00  0.00    +0.058 C 
ENDBRANCH  22  26
ENDBRANCH   1  22
TORSDOF 5
ENDMDL
MODEL 3
REMARK VINA RESULT:     -12.7      3.686     11.607
REMARK  Name = 119057475
REMARK  5 active torsions:
REMARK  status: ('A' for Active; 'I' for Inactive)
REMARK    1  A    between atoms: N_1  and  C_22
REMARK    2  A    between atoms: C_2  and  N_8
REMARK    3  A    between atoms: N_8  and  C_11
REMARK    4  A    between atoms: C_11  and  C_16
REMARK    5  A    between atoms: C_22  and  C_26
REMARK                            x       y       z     vdW  Elec       q    Type
REMARK                         _______ _______ _______ _____ _____    ______ ____
ROOT
ATOM      1  N   UNL     1      33.628 -14.809 -22.028  0.00  0.00    +0.387 N 
ATOM      2  C   UNL     1      34.533 -17.590 -21.938  0.00  0.00    -0.066 C 
ATOM      3  C   UNL     1      34.182 -15.372 -20.788  0.00  0.00    -0.079 C 
ATOM      4  C   UNL     1      34.234 -15.433 -23.212  0.00  0.00    -0.079 C 
ATOM      5  C   UNL     1      33.946 -16.883 -20.715  0.00  0.00    -0.044 C 
ATOM      6  C   UNL     1      34.000 -16.946 -23.221  0.00  0.00    -0.044 C 
ATOM      7  H   UNL     1      32.628 -15.009 -22.044  0.00  0.00    -0.080 HD
ENDROOT
BRANCH   2   8
ATOM      8  N   UNL     1      34.218 -19.016 -21.898  0.00  0.00    +0.389 N 
ATOM      9  H   UNL     1      35.016 -19.524 -21.516  0.00  0.00    -0.084 HD
ATOM     10  H   UNL     1      34.016 -19.334 -22.846  0.00  0.00    -0.084 HD
BRANCH   8  11
ATOM     11  C   UNL     1      33.051 -19.265 -21.065  0.00  0.00    -0.032 C 
BRANCH  11  16
ATOM     12  O   UNL     1      31.742 -22.273 -17.483  0.00  0.00    -0.467 OA
ATOM     13  O   UNL     1      34.512 -22.407 -16.719  0.00  0.00    -0.453 OA
ATOM     14  N   UNL     1      34.681 -20.240 -19.539  0.00  0.00    -0.151 NA
ATOM     15  N   UNL     1      35.029 -21.016 -18.476  0.00  0.00    -0.107 NA
ATOM     16  C   UNL     1      33.381 -20.142 -19.886  0.00  0.00    +0.062 C 
ATOM     17  C   UNL     1      32.373 -20.805 -19.216  0.00  0.00    +0.056 C 
ATOM     18  C   UNL     1      32.732 -21.603 -18.142  0.00  0.00    +0.194 C 
ATOM     19  C   UNL     1      34.069 -21.671 -17.789  0.00  0.00    +0.278 C 
ATOM     20  C   UNL     1      32.265 -23.286 -16.618  0.00  0.00    +0.253 C 
ATOM     21  C   UNL     1      33.444 -22.748 -15.832  0.00  0.00    +0.254 C 
ENDBRANCH  11  16
ENDBRANCH   8  11
ENDBRANCH   2   8
BRANCH   1  22
ATOM     22  C   UNL     1      33.816 -13.359 -22.060  0.00  0.00    -0.071 C 
BRANCH  22  26
ATOM     23  F   UNL     1      31.278 -13.721 -20.009  0.00  0.00    -0.204 F 
ATOM     24  O   UNL     1      32.930  -8.644 -24.502  0.00  0.00    -0.270 OA
ATOM     25  N   UNL     1      32.345 -10.271 -22.965  0.00  0.00    -0.255 N 
ATOM     26  C   UNL     1      32.567 -12.657 -22.573  0.00  0.00    +0.025 C 
ATOM     27  C   UNL     1      32.911 -11.494 -23.551  0.00  0.00    +0.101 C 
ATOM     28  C   UNL     1      31.809 -11.946 -21.486  0.00  0.00    +0.018 C 
ATOM     29  C   UNL     1      31.715 -10.595 -21.772  0.00  0.00    +0.052 C 
ATOM     30  C   UNL     1      31.079  -9.665 -20.975  0.00  0.00    +0.014 C 
ATOM     31  C   UNL     1      31.225 -12.422 -20.328  0.00  0.00    +0.137 C 
ATOM     32  C   UNL     1      32.387  -8.985 -23.454  0.00  0.00    +0.253 C 
ATOM     33  C   UNL     1      30.491 -10.137 -19.805  0.00  0.00    +0.004 C 
ATOM     34  C   UNL     1      30.565 -11.509 -19.487  0.00  0.00    +0.029 C 
ATOM     35  C   UNL     1      31.088  -8.282 -21.442  0.00  0.00    +0.006 C 
ATOM     36  C   UNL     1      31.697  -7.960 -22.596  0.00  0.00    +0.058 C 
ENDBRANCH  22  26
ENDBRANCH   1  22
TORSDOF 5
ENDMDL
MODEL 4
REMARK VINA RESULT:     -12.5      2.146      3.011
REMARK  Name = 119057475
REMARK  5 active torsions:
REMARK  status: ('A' for Active; 'I' for Inactive)
REMARK    1  A    between atoms: N_1  and  C_22
REMARK    2  A    between atoms: C_2  and  N_8
REMARK    3  A    between atoms: N_8  and  C_11
REMARK    4  A    between atoms: C_11  and  C_16
REMARK    5  A    between atoms: C_22  and  C_26
REMARK                            x       y       z     vdW  Elec       q    Type
REMARK                         _______ _______ _______ _____ _____    ______ ____
ROOT
ATOM      1  N   UNL     1      34.105 -21.493 -18.356  0.00  0.00    +0.387 N 
ATOM      2  C   UNL     1      33.761 -19.433 -20.405  0.00  0.00    -0.066 C 
ATOM      3  C   UNL     1      35.226 -20.620 -18.728  0.00  0.00    -0.079 C 
ATOM      4  C   UNL     1      32.818 -20.800 -18.505  0.00  0.00    -0.079 C 
ATOM      5  C   UNL     1      35.097 -20.143 -20.178  0.00  0.00    -0.044 C 
ATOM      6  C   UNL     1      32.607 -20.329 -19.947  0.00  0.00    -0.044 C 
ATOM      7  H   UNL     1      34.106 -22.293 -18.990  0.00  0.00    -0.080 HD
ENDROOT
BRANCH   2   8
ATOM      8  N   UNL     1      33.613 -19.068 -21.812  0.00  0.00    +0.389 N 
ATOM      9  H   UNL     1      32.716 -18.601 -21.943  0.00  0.00    -0.084 HD
ATOM     10  H   UNL     1      33.657 -19.917 -22.376  0.00  0.00    -0.084 HD
BRANCH   8  11
ATOM     11  C   UNL     1      34.683 -18.175 -22.230  0.00  0.00    -0.032 C 
BRANCH  11  16
ATOM     12  O   UNL     1      32.968 -15.013 -25.495  0.00  0.00    -0.467 OA
ATOM     13  O   UNL     1      32.822 -13.066 -23.382  0.00  0.00    -0.453 OA
ATOM     14  N   UNL     1      34.055 -15.902 -21.618  0.00  0.00    -0.151 NA
ATOM     15  N   UNL     1      33.593 -14.655 -21.910  0.00  0.00    -0.107 NA
ATOM     16  C   UNL     1      34.161 -16.814 -22.607  0.00  0.00    +0.062 C 
ATOM     17  C   UNL     1      33.810 -16.546 -23.915  0.00  0.00    +0.056 C 
ATOM     18  C   UNL     1      33.330 -15.280 -24.205  0.00  0.00    +0.194 C 
ATOM     19  C   UNL     1      33.252 -14.353 -23.180  0.00  0.00    +0.278 C 
ATOM     20  C   UNL     1      32.208 -13.805 -25.598  0.00  0.00    +0.253 C 
ATOM     21  C   UNL     1      32.847 -12.710 -24.767  0.00  0.00    +0.254 C 
ENDBRANCH  11  16
ENDBRANCH   8  11
ENDBRANCH   2   8
BRANCH   1  22
ATOM     22  C   UNL     1      34.268 -21.981 -16.987  0.00  0.00    -0.071 C 
BRANCH  22  26
ATOM     23  F   UNL     1      35.461 -24.115 -14.795  0.00  0.00    -0.204 F 
ATOM     24  O   UNL     1      28.936 -22.127 -16.263  0.00  0.00    -0.270 OA
ATOM     25  N   UNL     1      31.076 -22.799 -15.699  0.00  0.00    -0.255 N 
ATOM     26  C   UNL     1      33.277 -23.095 -16.681  0.00  0.00    +0.025 C 
ATOM     27  C   UNL     1      31.807 -22.663 -16.965  0.00  0.00    +0.101 C 
ATOM     28  C   UNL     1      33.228 -23.447 -15.220  0.00  0.00    +0.018 C 
ATOM     29  C   UNL     1      31.949 -23.262 -14.724  0.00  0.00    +0.052 C 
ATOM     30  C   UNL     1      31.569 -23.498 -13.418  0.00  0.00    +0.014 C 
ATOM     31  C   UNL     1      34.211 -23.909 -14.365  0.00  0.00    +0.137 C 
ATOM     32  C   UNL     1      29.750 -22.536 -15.439  0.00  0.00    +0.253 C 
ATOM     33  C   UNL     1      32.555 -23.960 -12.551  0.00  0.00    +0.004 C 
ATOM     34  C   UNL     1      33.868 -24.164 -13.026  0.00  0.00    +0.029 C 
ATOM     35  C   UNL     1      30.173 -23.239 -13.082  0.00  0.00    +0.006 C 
ATOM     36  C   UNL     1      29.321 -22.791 -14.020  0.00  0.00    +0.058 C 
ENDBRANCH  22  26
ENDBRANCH   1  22
TORSDOF 5
ENDMDL
MODEL 5
REMARK VINA RESULT:     -12.3      2.413     11.057
REMARK  Name = 119057475
REMARK  5 active torsions:
REMARK  status: ('A' for Active; 'I' for Inactive)
REMARK    1  A    between atoms: N_1  and  C_22
REMARK    2  A    between atoms: C_2  and  N_8
REMARK    3  A    between atoms: N_8  and  C_11
REMARK    4  A    between atoms: C_11  and  C_16
REMARK    5  A    between atoms: C_22  and  C_26
REMARK                            x       y       z     vdW  Elec       q    Type
REMARK                         _______ _______ _______ _____ _____    ______ ____
ROOT
ATOM      1  N   UNL     1      35.036 -18.759 -21.621  0.00  0.00    +0.387 N 
ATOM      2  C   UNL     1      34.594 -20.293 -19.169  0.00  0.00    -0.066 C 
ATOM      3  C   UNL     1      33.673 -18.995 -21.126  0.00  0.00    -0.079 C 
ATOM      4  C   UNL     1      35.999 -18.685 -20.513  0.00  0.00    -0.079 C 
ATOM      5  C   UNL     1      33.593 -20.298 -20.326  0.00  0.00    -0.044 C 
ATOM      6  C   UNL     1      35.998 -19.978 -19.692  0.00  0.00    -0.044 C 
ATOM      7  H   UNL     1      35.297 -19.550 -22.211  0.00  0.00    -0.080 HD
ENDROOT
BRANCH   2   8
ATOM      8  N   UNL     1      34.571 -21.579 -18.474  0.00  0.00    +0.389 N 
ATOM      9  H   UNL     1      34.890 -21.445 -17.514  0.00  0.00    -0.084 HD
ATOM     10  H   UNL     1      35.186 -22.227 -18.965  0.00  0.00    -0.084 HD
BRANCH   8  11
ATOM     11  C   UNL     1      33.226 -22.134 -18.457  0.00  0.00    -0.032 C 
BRANCH  11  16
ATOM     12  O   UNL     1      29.800 -22.796 -15.078  0.00  0.00    -0.467 OA
ATOM     13  O   UNL     1      31.890 -23.556 -13.253  0.00  0.00    -0.453 OA
ATOM     14  N   UNL     1      33.763 -22.908 -16.210  0.00  0.00    -0.151 NA
ATOM     15  N   UNL     1      33.425 -23.260 -14.939  0.00  0.00    -0.107 NA
ATOM     16  C   UNL     1      32.796 -22.517 -17.066  0.00  0.00    +0.062 C 
ATOM     17  C   UNL     1      31.462 -22.464 -16.716  0.00  0.00    +0.056 C 
ATOM     18  C   UNL     1      31.120 -22.834 -15.426  0.00  0.00    +0.194 C 
ATOM     19  C   UNL     1      32.131 -23.209 -14.558  0.00  0.00    +0.278 C 
ATOM     20  C   UNL     1      29.551 -23.489 -13.851  0.00  0.00    +0.253 C 
ATOM     21  C   UNL     1      30.599 -23.122 -12.818  0.00  0.00    +0.254 C 
ENDBRANCH  11  16
ENDBRANCH   8  11
ENDBRANCH   2   8
BRANCH   1  22
ATOM     22  C   UNL     1      35.086 -17.539 -22.425  0.00  0.00    -0.071 C 
BRANCH  22  26
ATOM     23  F   UNL     1      34.112 -16.142 -19.617  0.00  0.00    -0.204 F 
ATOM     24  O   UNL     1      32.624 -14.700 -26.280  0.00  0.00    -0.270 OA
ATOM     25  N   UNL     1      33.108 -15.099 -24.053  0.00  0.00    -0.255 N 
ATOM     26  C   UNL     1      33.705 -16.911 -22.552  0.00  0.00    +0.025 C 
ATOM     27  C   UNL     1      33.363 -16.545 -24.027  0.00  0.00    +0.101 C 
ATOM     28  C   UNL     1      33.604 -15.578 -21.862  0.00  0.00    +0.018 C 
ATOM     29  C   UNL     1      33.257 -14.594 -22.770  0.00  0.00    +0.052 C 
ATOM     30  C   UNL     1      33.082 -13.261 -22.456  0.00  0.00    +0.014 C 
ATOM     31  C   UNL     1      33.786 -15.228 -20.538  0.00  0.00    +0.137 C 
ATOM     32  C   UNL     1      32.770 -14.305 -25.126  0.00  0.00    +0.253 C 
ATOM     33  C   UNL     1      33.267 -12.899 -21.125  0.00  0.00    +0.004 C 
ATOM     34  C   UNL     1      33.617 -13.881 -20.174  0.00  0.00    +0.029 C 
ATOM     35  C   UNL     1      32.720 -12.368 -23.553  0.00  0.00    +0.006 C 
ATOM     36  C   UNL     1      32.574 -12.850 -24.799  0.00  0.00    +0.058 C 
ENDBRANCH  22  26
ENDBRANCH   1  22
TORSDOF 5
ENDMDL
MODEL 6
REMARK VINA RESULT:     -12.3      1.428      2.018
REMARK  Name = 119057475
REMARK  5 active torsions:
REMARK  status: ('A' for Active; 'I' for Inactive)
REMARK    1  A    between atoms: N_1  and  C_22
REMARK    2  A    between atoms: C_2  and  N_8
REMARK    3  A    between atoms: N_8  and  C_11
REMARK    4  A    between atoms: C_11  and  C_16
REMARK    5  A    between atoms: C_22  and  C_26
REMARK                            x       y       z     vdW  Elec       q    Type
REMARK                         _______ _______ _______ _____ _____    ______ ____
ROOT
ATOM      1  N   UNL     1      35.023 -20.671 -19.938  0.00  0.00    +0.387 N 
ATOM      2  C   UNL     1      34.814 -17.858 -20.719  0.00  0.00    -0.066 C 
ATOM      3  C   UNL     1      36.062 -19.709 -19.544  0.00  0.00    -0.079 C 
ATOM      4  C   UNL     1      33.708 -20.022 -20.038  0.00  0.00    -0.079 C 
ATOM      5  C   UNL     1      36.163 -18.560 -20.551  0.00  0.00    -0.044 C 
ATOM      6  C   UNL     1      33.730 -18.884 -21.062  0.00  0.00    -0.044 C 
ATOM      7  H   UNL     1      35.265 -21.033 -20.861  0.00  0.00    -0.080 HD
ENDROOT
BRANCH   2   8
ATOM      8  N   UNL     1      34.905 -16.828 -21.751  0.00  0.00    +0.389 N 
ATOM      9  H   UNL     1      35.840 -16.846 -22.159  0.00  0.00    -0.084 HD
ATOM     10  H   UNL     1      34.722 -15.920 -21.324  0.00  0.00    -0.084 HD
BRANCH   8  11
ATOM     11  C   UNL     1      33.922 -17.057 -22.800  0.00  0.00    -0.032 C 
BRANCH  11  16
ATOM     12  O   UNL     1      33.479 -12.225 -23.022  0.00  0.00    -0.467 OA
ATOM     13  O   UNL     1      32.610 -12.532 -25.748  0.00  0.00    -0.453 OA
ATOM     14  N   UNL     1      33.217 -15.920 -24.835  0.00  0.00    -0.151 NA
ATOM     15  N   UNL     1      32.902 -14.805 -25.550  0.00  0.00    -0.107 NA
ATOM     16  C   UNL     1      33.592 -15.792 -23.545  0.00  0.00    +0.062 C 
ATOM     17  C   UNL     1      33.685 -14.571 -22.909  0.00  0.00    +0.056 C 
ATOM     18  C   UNL     1      33.376 -13.438 -23.643  0.00  0.00    +0.194 C 
ATOM     19  C   UNL     1      32.970 -13.594 -24.957  0.00  0.00    +0.278 C 
ATOM     20  C   UNL     1      33.442 -11.142 -23.957  0.00  0.00    +0.253 C 
ATOM     21  C   UNL     1      32.339 -11.362 -24.974  0.00  0.00    +0.254 C 
ENDBRANCH  11  16
ENDBRANCH   8  11
ENDBRANCH   2   8
BRANCH   1  22
ATOM     22  C   UNL     1      34.973 -21.787 -18.995  0.00  0.00    -0.071 C 
BRANCH  22  26
ATOM     23  F   UNL     1      31.789 -21.409 -18.288  0.00  0.00    -0.204 F 
ATOM     24  O   UNL     1      37.289 -22.929 -14.272  0.00  0.00    -0.270 OA
ATOM     25  N   UNL     1      35.418 -22.469 -15.552  0.00  0.00    -0.255 N 
ATOM     26  C   UNL     1      34.763 -21.291 -17.571  0.00  0.00    +0.025 C 
ATOM     27  C   UNL     1      35.962 -21.651 -16.645  0.00  0.00    +0.101 C 
ATOM     28  C   UNL     1      33.612 -21.970 -16.881  0.00  0.00    +0.018 C 
ATOM     29  C   UNL     1      34.051 -22.616 -15.739  0.00  0.00    +0.052 C 
ATOM     30  C   UNL     1      33.243 -23.332 -14.880  0.00  0.00    +0.014 C 
ATOM     31  C   UNL     1      32.268 -22.024 -17.200  0.00  0.00    +0.137 C 
ATOM     32  C   UNL     1      36.084 -23.029 -14.485  0.00  0.00    +0.253 C 
ATOM     33  C   UNL     1      31.889 -23.395 -15.197  0.00  0.00    +0.004 C 
ATOM     34  C   UNL     1      31.408 -22.742 -16.352  0.00  0.00    +0.029 C 
ATOM     35  C   UNL     1      33.891 -23.949 -13.727  0.00  0.00    +0.006 C 
ATOM     36  C   UNL     1      35.214 -23.811 -13.539  0.00  0.00    +0.058 C 
ENDBRANCH  22  26
ENDBRANCH   1  22
TORSDOF 5
ENDMDL
MODEL 7
REMARK VINA RESULT:     -12.1      2.357     11.369
REMARK  Name = 119057475
REMARK  5 active torsions:
REMARK  status: ('A' for Active; 'I' for Inactive)
REMARK    1  A    between atoms: N_1  and  C_22
REMARK    2  A    between atoms: C_2  and  N_8
REMARK    3  A    between atoms: N_8  and  C_11
REMARK    4  A    between atoms: C_11  and  C_16
REMARK    5  A    between atoms: C_22  and  C_26
REMARK                            x       y       z     vdW  Elec       q    Type
REMARK                         _______ _______ _______ _____ _____    ______ ____
ROOT
ATOM      1  N   UNL     1      35.034 -18.746 -21.750  0.00  0.00    +0.387 N 
ATOM      2  C   UNL     1      34.607 -20.146 -19.216  0.00  0.00    -0.066 C 
ATOM      3  C   UNL     1      33.672 -19.008 -21.265  0.00  0.00    -0.079 C 
ATOM      4  C   UNL     1      35.971 -18.565 -20.632  0.00  0.00    -0.079 C 
ATOM      5  C   UNL     1      33.630 -20.263 -20.388  0.00  0.00    -0.044 C 
ATOM      6  C   UNL     1      36.007 -19.805 -19.734  0.00  0.00    -0.044 C 
ATOM      7  H   UNL     1      35.338 -19.559 -22.286  0.00  0.00    -0.080 HD
ENDROOT
BRANCH   2   8
ATOM      8  N   UNL     1      34.623 -21.388 -18.445  0.00  0.00    +0.389 N 
ATOM      9  H   UNL     1      34.756 -22.174 -19.082  0.00  0.00    -0.084 HD
ATOM     10  H   UNL     1      33.735 -21.478 -17.951  0.00  0.00    -0.084 HD
BRANCH   8  11
ATOM     11  C   UNL     1      35.701 -21.376 -17.468  0.00  0.00    -0.032 C 
BRANCH  11  16
ATOM     12  O   UNL     1      36.565 -22.685 -12.871  0.00  0.00    -0.467 OA
ATOM     13  O   UNL     1      34.108 -24.179 -12.941  0.00  0.00    -0.453 OA
ATOM     14  N   UNL     1      34.155 -22.781 -16.215  0.00  0.00    -0.151 NA
ATOM     15  N   UNL     1      33.771 -23.460 -15.099  0.00  0.00    -0.107 NA
ATOM     16  C   UNL     1      35.322 -22.104 -16.206  0.00  0.00    +0.062 C 
ATOM     17  C   UNL     1      36.153 -22.057 -15.105  0.00  0.00    +0.056 C 
ATOM     18  C   UNL     1      35.754 -22.739 -13.968  0.00  0.00    +0.194 C 
ATOM     19  C   UNL     1      34.565 -23.446 -14.007  0.00  0.00    +0.278 C 
ATOM     20  C   UNL     1      35.902 -23.153 -11.693  0.00  0.00    +0.253 C 
ATOM     21  C   UNL     1      35.144 -24.432 -11.989  0.00  0.00    +0.254 C 
ENDBRANCH  11  16
ENDBRANCH   8  11
ENDBRANCH   2   8
BRANCH   1  22
ATOM     22  C   UNL     1      35.049 -17.575 -22.626  0.00  0.00    -0.071 C 
BRANCH  22  26
ATOM     23  F   UNL     1      34.153 -16.246 -19.760  0.00  0.00    -0.204 F 
ATOM     24  O   UNL     1      32.527 -14.613 -26.346  0.00  0.00    -0.270 OA
ATOM     25  N   UNL     1      33.057 -15.076 -24.142  0.00  0.00    -0.255 N 
ATOM     26  C   UNL     1      33.672 -16.932 -22.704  0.00  0.00    +0.025 C 
ATOM     27  C   UNL     1      33.300 -16.524 -24.161  0.00  0.00    +0.101 C 
ATOM     28  C   UNL     1      33.599 -15.618 -21.977  0.00  0.00    +0.018 C 
ATOM     29  C   UNL     1      33.240 -14.606 -22.850  0.00  0.00    +0.052 C 
ATOM     30  C   UNL     1      33.085 -13.281 -22.497  0.00  0.00    +0.014 C 
ATOM     31  C   UNL     1      33.814 -15.304 -20.648  0.00  0.00    +0.137 C 
ATOM     32  C   UNL     1      32.702 -14.250 -25.186  0.00  0.00    +0.253 C 
ATOM     33  C   UNL     1      33.303 -12.956 -21.161  0.00  0.00    +0.004 C 
ATOM     34  C   UNL     1      33.665 -13.966 -20.244  0.00  0.00    +0.029 C 
ATOM     35  C   UNL     1      32.706 -12.356 -23.561  0.00  0.00    +0.006 C 
ATOM     36  C   UNL     1      32.527 -12.803 -24.815  0.00  0.00    +0.058 C 
ENDBRANCH  22  26
ENDBRANCH   1  22
TORSDOF 5
ENDMDL
MODEL 8
REMARK VINA RESULT:     -11.4      7.382     14.684
REMARK  Name = 119057475
REMARK  5 active torsions:
REMARK  status: ('A' for Active; 'I' for Inactive)
REMARK    1  A    between atoms: N_1  and  C_22
REMARK    2  A    between atoms: C_2  and  N_8
REMARK    3  A    between atoms: N_8  and  C_11
REMARK    4  A    between atoms: C_11  and  C_16
REMARK    5  A    between atoms: C_22  and  C_26
REMARK                            x       y       z     vdW  Elec       q    Type
REMARK                         _______ _______ _______ _____ _____    ______ ____
ROOT
ATOM      1  N   UNL     1      33.493  -8.047 -23.951  0.00  0.00    +0.387 N 
ATOM      2  C   UNL     1      33.102 -10.945 -24.059  0.00  0.00    -0.066 C 
ATOM      3  C   UNL     1      34.252  -8.865 -24.908  0.00  0.00    -0.079 C 
ATOM      4  C   UNL     1      32.171  -8.630 -23.684  0.00  0.00    -0.079 C 
ATOM      5  C   UNL     1      34.447 -10.290 -24.382  0.00  0.00    -0.044 C 
ATOM      6  C   UNL     1      32.295 -10.047 -23.117  0.00  0.00    -0.044 C 
ATOM      7  H   UNL     1      34.012  -8.029 -23.073  0.00  0.00    -0.080 HD
ENDROOT
BRANCH   2   8
ATOM      8  N   UNL     1      33.311 -12.267 -23.471  0.00  0.00    +0.389 N 
ATOM      9  H   UNL     1      32.888 -12.289 -22.543  0.00  0.00    -0.084 HD
ATOM     10  H   UNL     1      34.313 -12.443 -23.409  0.00  0.00    -0.084 HD
BRANCH   8  11
ATOM     11  C   UNL     1      32.705 -13.301 -24.296  0.00  0.00    -0.032 C 
BRANCH  11  16
ATOM     12  O   UNL     1      34.420 -16.424 -20.994  0.00  0.00    -0.467 OA
ATOM     13  O   UNL     1      34.334 -18.461 -23.024  0.00  0.00    -0.453 OA
ATOM     14  N   UNL     1      33.083 -15.651 -24.817  0.00  0.00    -0.151 NA
ATOM     15  N   UNL     1      33.479 -16.912 -24.494  0.00  0.00    -0.107 NA
ATOM     16  C   UNL     1      33.150 -14.679 -23.884  0.00  0.00    +0.062 C 
ATOM     17  C   UNL     1      33.598 -14.904 -22.598  0.00  0.00    +0.056 C 
ATOM     18  C   UNL     1      33.989 -16.191 -22.269  0.00  0.00    +0.194 C 
ATOM     19  C   UNL     1      33.933 -17.167 -23.249  0.00  0.00    +0.278 C 
ATOM     20  C   UNL     1      34.490 -17.823 -20.701  0.00  0.00    +0.253 C 
ATOM     21  C   UNL     1      35.140 -18.569 -21.849  0.00  0.00    +0.254 C 
ENDBRANCH  11  16
ENDBRANCH   8  11
ENDBRANCH   2   8
BRANCH   1  22
ATOM     22  C   UNL     1      33.358  -6.677 -24.444  0.00  0.00    -0.071 C 
BRANCH  22  26
ATOM     23  F   UNL     1      32.203  -3.742 -25.360  0.00  0.00    -0.204 F 
ATOM     24  O   UNL     1      32.182  -7.024 -19.202  0.00  0.00    -0.270 OA
ATOM     25  N   UNL     1      32.119  -5.899 -21.223  0.00  0.00    -0.255 N 
ATOM     26  C   UNL     1      33.366  -5.679 -23.294  0.00  0.00    +0.025 C 
ATOM     27  C   UNL     1      33.324  -6.387 -21.907  0.00  0.00    +0.101 C 
ATOM     28  C   UNL     1      32.128  -4.826 -23.254  0.00  0.00    +0.018 C 
ATOM     29  C   UNL     1      31.469  -4.994 -22.049  0.00  0.00    +0.052 C 
ATOM     30  C   UNL     1      30.300  -4.351 -21.695  0.00  0.00    +0.014 C 
ATOM     31  C   UNL     1      31.601  -3.950 -24.183  0.00  0.00    +0.137 C 
ATOM     32  C   UNL     1      31.647  -6.232 -19.973  0.00  0.00    +0.253 C 
ATOM     33  C   UNL     1      29.760  -3.470 -22.628  0.00  0.00    +0.004 C 
ATOM     34  C   UNL     1      30.411  -3.272 -23.864  0.00  0.00    +0.029 C 
ATOM     35  C   UNL     1      29.749  -4.661 -20.379  0.00  0.00    +0.006 C 
ATOM     36  C   UNL     1      30.373  -5.537 -19.573  0.00  0.00    +0.058 C 
ENDBRANCH  22  26
ENDBRANCH   1  22
TORSDOF 5
ENDMDL
MODEL 9
REMARK VINA RESULT:     -11.2      7.131     15.212
REMARK  Name = 119057475
REMARK  5 active torsions:
REMARK  status: ('A' for Active; 'I' for Inactive)
REMARK    1  A    between atoms: N_1  and  C_22
REMARK    2  A    between atoms: C_2  and  N_8
REMARK    3  A    between atoms: N_8  and  C_11
REMARK    4  A    between atoms: C_11  and  C_16
REMARK    5  A    between atoms: C_22  and  C_26
REMARK                            x       y       z     vdW  Elec       q    Type
REMARK                         _______ _______ _______ _____ _____    ______ ____
ROOT
ATOM      1  N   UNL     1      33.660  -8.341 -22.948  0.00  0.00    +0.387 N 
ATOM      2  C   UNL     1      33.220 -10.757 -24.540  0.00  0.00    -0.066 C 
ATOM      3  C   UNL     1      34.171  -8.429 -24.323  0.00  0.00    -0.079 C 
ATOM      4  C   UNL     1      32.426  -9.124 -22.787  0.00  0.00    -0.079 C 
ATOM      5  C   UNL     1      34.463  -9.882 -24.711  0.00  0.00    -0.044 C 
ATOM      6  C   UNL     1      32.660 -10.599 -23.123  0.00  0.00    -0.044 C 
ATOM      7  H   UNL     1      34.365  -8.736 -22.325  0.00  0.00    -0.080 HD
ENDROOT
BRANCH   2   8
ATOM      8  N   UNL     1      33.541 -12.154 -24.824  0.00  0.00    +0.389 N 
ATOM      9  H   UNL     1      34.435 -12.385 -24.390  0.00  0.00    -0.084 HD
ATOM     10  H   UNL     1      33.594 -12.278 -25.835  0.00  0.00    -0.084 HD
BRANCH   8  11
ATOM     11  C   UNL     1      32.512 -13.038 -24.299  0.00  0.00    -0.032 C 
BRANCH  11  16
ATOM     12  O   UNL     1      34.294 -16.086 -20.963  0.00  0.00    -0.467 OA
ATOM     13  O   UNL     1      34.602 -18.035 -23.057  0.00  0.00    -0.453 OA
ATOM     14  N   UNL     1      33.192 -15.309 -24.860  0.00  0.00    -0.151 NA
ATOM     15  N   UNL     1      33.700 -16.532 -24.544  0.00  0.00    -0.107 NA
ATOM     16  C   UNL     1      33.074 -14.374 -23.894  0.00  0.00    +0.062 C 
ATOM     17  C   UNL     1      33.438 -14.602 -22.582  0.00  0.00    +0.056 C 
ATOM     18  C   UNL     1      33.944 -15.850 -22.262  0.00  0.00    +0.194 C 
ATOM     19  C   UNL     1      34.078 -16.786 -23.274  0.00  0.00    +0.278 C 
ATOM     20  C   UNL     1      34.497 -17.479 -20.709  0.00  0.00    +0.253 C 
ATOM     21  C   UNL     1      35.318 -18.103 -21.821  0.00  0.00    +0.254 C 
ENDBRANCH  11  16
ENDBRANCH   8  11
ENDBRANCH   2   8
BRANCH   1  22
ATOM     22  C   UNL     1      33.433  -6.946 -22.574  0.00  0.00    -0.071 C 
BRANCH  22  26
ATOM     23  F   UNL     1      30.719  -7.332 -20.767  0.00  0.00    -0.204 F 
ATOM     24  O   UNL     1      32.497  -2.528 -25.505  0.00  0.00    -0.270 OA
ATOM     25  N   UNL     1      31.862  -4.064 -23.896  0.00  0.00    -0.255 N 
ATOM     26  C   UNL     1      32.201  -6.386 -23.272  0.00  0.00    +0.025 C 
ATOM     27  C   UNL     1      32.569  -5.284 -24.310  0.00  0.00    +0.101 C 
ATOM     28  C   UNL     1      31.284  -5.648 -22.335  0.00  0.00    +0.018 C 
ATOM     29  C   UNL     1      31.130  -4.337 -22.749  0.00  0.00    +0.052 C 
ATOM     30  C   UNL     1      30.351  -3.396 -22.107  0.00  0.00    +0.014 C 
ATOM     31  C   UNL     1      30.612  -6.072 -21.205  0.00  0.00    +0.137 C 
ATOM     32  C   UNL     1      31.870  -2.823 -24.491  0.00  0.00    +0.253 C 
ATOM     33  C   UNL     1      29.674  -3.814 -20.965  0.00  0.00    +0.004 C 
ATOM     34  C   UNL     1      29.806  -5.146 -20.520  0.00  0.00    +0.029 C 
ATOM     35  C   UNL     1      30.317  -2.059 -22.693  0.00  0.00    +0.006 C 
ATOM     36  C   UNL     1      31.023  -1.787 -23.803  0.00  0.00    +0.058 C 
ENDBRANCH  22  26
ENDBRANCH   1  22
TORSDOF 5
ENDMDL
