MODEL 1
REMARK VINA RESULT:     -12.5      0.000      0.000
REMARK  Name = 9826451
REMARK  9 active torsions:
REMARK  status: ('A' for Active; 'I' for Inactive)
REMARK    1  A    between atoms: C_1  and  N_2
REMARK    2  A    between atoms: C_1  and  C_19
REMARK    3  A    between atoms: C_8  and  O_10
REMARK    4  A    between atoms: O_10  and  C_11
REMARK    5  A    between atoms: C_14  and  O_17
REMARK    6  A    between atoms: C_19  and  O_20
REMARK    7  A    between atoms: O_20  and  C_24
REMARK    8  A    between atoms: C_21  and  C_27
REMARK    9  A    between atoms: C_27  and  C_32
REMARK                            x       y       z     vdW  Elec       q    Type
REMARK                         _______ _______ _______ _____ _____    ______ ____
ROOT
ATOM      1  C   UNL     1      35.102 -21.660 -17.002  0.00  0.00    +0.139 C 
ENDROOT
BRANCH   1   2
ATOM      2  N   UNL     1      33.924 -22.328 -16.505  0.00  0.00    -0.291 N 
ATOM      3  C   UNL     1      32.779 -22.488 -17.402  0.00  0.00    +0.113 C 
ATOM      4  N   UNL     1      34.926 -22.649 -14.383  0.00  0.00    -0.233 NA
ATOM      5  N   UNL     1      33.692 -23.756 -12.635  0.00  0.00    -0.214 NA
ATOM      6  C   UNL     1      33.857 -22.808 -15.190  0.00  0.00    +0.115 C 
ATOM      7  C   UNL     1      32.685 -23.423 -14.797  0.00  0.00    +0.146 C 
ATOM      8  C   UNL     1      32.660 -23.882 -13.495  0.00  0.00    +0.210 C 
ATOM      9  C   UNL     1      34.777 -23.138 -13.138  0.00  0.00    +0.254 C 
BRANCH   8  10
ATOM     10  O   UNL     1      31.532 -24.504 -13.028  0.00  0.00    -0.440 OA
BRANCH  10  11
ATOM     11  C   UNL     1      30.321 -24.107 -13.561  0.00  0.00    +0.147 C 
ATOM     12  C   UNL     1      30.019 -22.750 -13.673  0.00  0.00    +0.041 C 
ATOM     13  C   UNL     1      29.400 -25.064 -13.988  0.00  0.00    +0.041 C 
ATOM     14  C   UNL     1      27.876 -23.306 -14.639  0.00  0.00    +0.139 C 
ATOM     15  C   UNL     1      28.797 -22.350 -14.212  0.00  0.00    +0.040 C 
ATOM     16  C   UNL     1      28.179 -24.664 -14.528  0.00  0.00    +0.040 C 
BRANCH  14  17
ATOM     17  O   UNL     1      26.683 -22.916 -15.166  0.00  0.00    -0.471 OA
ATOM     18  C   UNL     1      26.668 -22.562 -16.548  0.00  0.00    +0.252 C 
ENDBRANCH  14  17
ENDBRANCH  10  11
ENDBRANCH   8  10
ENDBRANCH   1   2
BRANCH   1  19
ATOM     19  C   UNL     1      34.968 -21.410 -18.495  0.00  0.00    +0.227 C 
BRANCH  19  20
ATOM     20  O   UNL     1      35.658 -20.210 -18.840  0.00  0.00    -0.474 OA
BRANCH  20  24
ATOM     21  C   UNL     1      34.252 -18.098 -22.124  0.00  0.00    -0.021 C 
ATOM     22  C   UNL     1      35.578 -17.952 -21.717  0.00  0.00    -0.001 C 
ATOM     23  C   UNL     1      33.398 -18.953 -21.426  0.00  0.00    -0.001 C 
ATOM     24  C   UNL     1      35.197 -19.517 -19.916  0.00  0.00    +0.139 C 
ATOM     25  C   UNL     1      36.051 -18.662 -20.614  0.00  0.00    +0.037 C 
ATOM     26  C   UNL     1      33.871 -19.662 -20.323  0.00  0.00    +0.037 C 
BRANCH  21  27
ATOM     27  C   UNL     1      33.741 -17.331 -23.316  0.00  0.00    +0.047 C 
BRANCH  27  32
ATOM     28  S   UNL     1      33.795 -15.216 -21.553  0.00  0.00    -0.048 S 
ATOM     29  O   UNL     1      33.121 -15.216 -25.353  0.00  0.00    -0.274 OA
ATOM     30  O   UNL     1      32.176 -13.157 -21.328  0.00  0.00    -0.263 OA
ATOM     31  N   UNL     1      32.537 -14.048 -23.443  0.00  0.00    -0.246 N 
ATOM     32  C   UNL     1      34.087 -15.855 -23.231  0.00  0.00    +0.137 C 
ATOM     33  C   UNL     1      33.209 -15.028 -24.144  0.00  0.00    +0.239 C 
ATOM     34  C   UNL     1      32.698 -13.961 -22.086  0.00  0.00    +0.279 C 
ATOM     35  H   UNL     1      31.946 -13.417 -23.915  0.00  0.00    +0.158 HD
ENDBRANCH  27  32
ENDBRANCH  21  27
ENDBRANCH  20  24
ENDBRANCH  19  20
ENDBRANCH   1  19
TORSDOF 9
ENDMDL
MODEL 2
REMARK VINA RESULT:     -12.3      5.063      9.590
REMARK  Name = 9826451
REMARK  9 active torsions:
REMARK  status: ('A' for Active; 'I' for Inactive)
REMARK    1  A    between atoms: C_1  and  N_2
REMARK    2  A    between atoms: C_1  and  C_19
REMARK    3  A    between atoms: C_8  and  O_10
REMARK    4  A    between atoms: O_10  and  C_11
REMARK    5  A    between atoms: C_14  and  O_17
REMARK    6  A    between atoms: C_19  and  O_20
REMARK    7  A    between atoms: O_20  and  C_24
REMARK    8  A    between atoms: C_21  and  C_27
REMARK    9  A    between atoms: C_27  and  C_32
REMARK                            x       y       z     vdW  Elec       q    Type
REMARK                         _______ _______ _______ _____ _____    ______ ____
ROOT
ATOM      1  C   UNL     1      32.947 -14.349 -23.982  0.00  0.00    +0.139 C 
ENDROOT
BRANCH   1   2
ATOM      2  N   UNL     1      33.527 -15.051 -22.861  0.00  0.00    -0.291 N 
ATOM      3  C   UNL     1      33.883 -14.286 -21.665  0.00  0.00    +0.113 C 
ATOM      4  N   UNL     1      33.426 -17.113 -24.021  0.00  0.00    -0.233 NA
ATOM      5  N   UNL     1      34.237 -19.119 -22.961  0.00  0.00    -0.214 NA
ATOM      6  C   UNL     1      33.763 -16.431 -22.906  0.00  0.00    +0.115 C 
ATOM      7  C   UNL     1      34.334 -17.015 -21.794  0.00  0.00    +0.146 C 
ATOM      8  C   UNL     1      34.550 -18.376 -21.879  0.00  0.00    +0.210 C 
ATOM      9  C   UNL     1      33.687 -18.433 -23.980  0.00  0.00    +0.254 C 
BRANCH   8  10
ATOM     10  O   UNL     1      35.113 -19.031 -20.815  0.00  0.00    -0.440 OA
BRANCH  10  11
ATOM     11  C   UNL     1      34.288 -19.839 -20.059  0.00  0.00    +0.147 C 
ATOM     12  C   UNL     1      34.837 -20.814 -19.226  0.00  0.00    +0.041 C 
ATOM     13  C   UNL     1      32.903 -19.680 -20.127  0.00  0.00    +0.041 C 
ATOM     14  C   UNL     1      32.619 -21.471 -18.531  0.00  0.00    +0.139 C 
ATOM     15  C   UNL     1      34.003 -21.630 -18.462  0.00  0.00    +0.040 C 
ATOM     16  C   UNL     1      32.069 -20.495 -19.363  0.00  0.00    +0.040 C 
BRANCH  14  17
ATOM     17  O   UNL     1      31.805 -22.267 -17.785  0.00  0.00    -0.471 OA
ATOM     18  C   UNL     1      32.393 -22.935 -16.670  0.00  0.00    +0.252 C 
ENDBRANCH  14  17
ENDBRANCH  10  11
ENDBRANCH   8  10
ENDBRANCH   1   2
BRANCH   1  19
ATOM     19  C   UNL     1      32.403 -13.004 -23.529  0.00  0.00    +0.227 C 
BRANCH  19  20
ATOM     20  O   UNL     1      33.240 -11.962 -24.027  0.00  0.00    -0.474 OA
BRANCH  20  24
ATOM     21  C   UNL     1      32.787  -8.201 -22.332  0.00  0.00    -0.021 C 
ATOM     22  C   UNL     1      33.831  -8.442 -23.225  0.00  0.00    -0.001 C 
ATOM     23  C   UNL     1      31.895  -9.224 -22.009  0.00  0.00    -0.001 C 
ATOM     24  C   UNL     1      33.092 -10.729 -23.471  0.00  0.00    +0.139 C 
ATOM     25  C   UNL     1      33.984  -9.706 -23.794  0.00  0.00    +0.037 C 
ATOM     26  C   UNL     1      32.048 -10.487 -22.578  0.00  0.00    +0.037 C 
BRANCH  21  27
ATOM     27  C   UNL     1      32.623  -6.835 -21.717  0.00  0.00    +0.047 C 
BRANCH  27  32
ATOM     28  S   UNL     1      30.084  -5.783 -21.906  0.00  0.00    -0.048 S 
ATOM     29  O   UNL     1      32.309  -6.260 -18.789  0.00  0.00    -0.274 OA
ATOM     30  O   UNL     1      29.043  -3.658 -20.761  0.00  0.00    -0.263 OA
ATOM     31  N   UNL     1      30.667  -4.848 -19.602  0.00  0.00    -0.246 N 
ATOM     32  C   UNL     1      31.320  -6.712 -20.947  0.00  0.00    +0.137 C 
ATOM     33  C   UNL     1      31.508  -5.940 -19.661  0.00  0.00    +0.239 C 
ATOM     34  C   UNL     1      29.838  -4.580 -20.659  0.00  0.00    +0.279 C 
ATOM     35  H   UNL     1      30.665  -4.266 -18.808  0.00  0.00    +0.158 HD
ENDBRANCH  27  32
ENDBRANCH  21  27
ENDBRANCH  20  24
ENDBRANCH  19  20
ENDBRANCH   1  19
TORSDOF 9
ENDMDL
MODEL 3
REMARK VINA RESULT:     -12.1      2.502      5.069
REMARK  Name = 9826451
REMARK  9 active torsions:
REMARK  status: ('A' for Active; 'I' for Inactive)
REMARK    1  A    between atoms: C_1  and  N_2
REMARK    2  A    between atoms: C_1  and  C_19
REMARK    3  A    between atoms: C_8  and  O_10
REMARK    4  A    between atoms: O_10  and  C_11
REMARK    5  A    between atoms: C_14  and  O_17
REMARK    6  A    between atoms: C_19  and  O_20
REMARK    7  A    between atoms: O_20  and  C_24
REMARK    8  A    between atoms: C_21  and  C_27
REMARK    9  A    between atoms: C_27  and  C_32
REMARK                            x       y       z     vdW  Elec       q    Type
REMARK                         _______ _______ _______ _____ _____    ______ ____
ROOT
ATOM      1  C   UNL     1      32.673 -21.631 -19.115  0.00  0.00    +0.139 C 
ENDROOT
BRANCH   1   2
ATOM      2  N   UNL     1      33.416 -21.901 -17.907  0.00  0.00    -0.291 N 
ATOM      3  C   UNL     1      34.857 -21.645 -17.900  0.00  0.00    +0.113 C 
ATOM      4  N   UNL     1      31.459 -22.637 -16.794  0.00  0.00    -0.233 NA
ATOM      5  N   UNL     1      31.599 -23.400 -14.513  0.00  0.00    -0.214 NA
ATOM      6  C   UNL     1      32.789 -22.410 -16.762  0.00  0.00    +0.115 C 
ATOM      7  C   UNL     1      33.580 -22.650 -15.657  0.00  0.00    +0.146 C 
ATOM      8  C   UNL     1      32.924 -23.150 -14.550  0.00  0.00    +0.210 C 
ATOM      9  C   UNL     1      30.937 -23.125 -15.653  0.00  0.00    +0.254 C 
BRANCH   8  10
ATOM     10  O   UNL     1      33.641 -23.415 -13.413  0.00  0.00    -0.440 OA
BRANCH  10  11
ATOM     11  C   UNL     1      34.799 -24.154 -13.550  0.00  0.00    +0.147 C 
ATOM     12  C   UNL     1      34.761 -25.403 -14.171  0.00  0.00    +0.041 C 
ATOM     13  C   UNL     1      36.008 -23.651 -13.068  0.00  0.00    +0.041 C 
ATOM     14  C   UNL     1      37.139 -25.646 -13.827  0.00  0.00    +0.139 C 
ATOM     15  C   UNL     1      35.931 -26.148 -14.310  0.00  0.00    +0.040 C 
ATOM     16  C   UNL     1      37.178 -24.397 -13.207  0.00  0.00    +0.040 C 
BRANCH  14  17
ATOM     17  O   UNL     1      38.282 -26.373 -13.964  0.00  0.00    -0.471 OA
ATOM     18  C   UNL     1      39.507 -25.732 -13.609  0.00  0.00    +0.252 C 
ENDBRANCH  14  17
ENDBRANCH  10  11
ENDBRANCH   8  10
ENDBRANCH   1   2
BRANCH   1  19
ATOM     19  C   UNL     1      32.835 -20.173 -19.511  0.00  0.00    +0.227 C 
BRANCH  19  20
ATOM     20  O   UNL     1      34.022 -20.021 -20.286  0.00  0.00    -0.474 OA
BRANCH  20  24
ATOM     21  C   UNL     1      34.132 -16.861 -22.975  0.00  0.00    -0.021 C 
ATOM     22  C   UNL     1      33.680 -18.114 -23.390  0.00  0.00    -0.001 C 
ATOM     23  C   UNL     1      34.548 -16.671 -21.657  0.00  0.00    -0.001 C 
ATOM     24  C   UNL     1      34.059 -18.985 -21.168  0.00  0.00    +0.139 C 
ATOM     25  C   UNL     1      33.643 -19.176 -22.487  0.00  0.00    +0.037 C 
ATOM     26  C   UNL     1      34.512 -17.733 -20.755  0.00  0.00    +0.037 C 
BRANCH  21  27
ATOM     27  C   UNL     1      34.172 -15.714 -23.952  0.00  0.00    +0.047 C 
BRANCH  27  32
ATOM     28  S   UNL     1      32.183 -14.627 -25.517  0.00  0.00    -0.048 S 
ATOM     29  O   UNL     1      33.788 -13.245 -22.290  0.00  0.00    -0.274 OA
ATOM     30  O   UNL     1      31.830 -12.151 -26.327  0.00  0.00    -0.263 OA
ATOM     31  N   UNL     1      32.822 -12.500 -24.256  0.00  0.00    -0.246 N 
ATOM     32  C   UNL     1      32.922 -14.856 -23.870  0.00  0.00    +0.137 C 
ATOM     33  C   UNL     1      33.237 -13.467 -23.363  0.00  0.00    +0.239 C 
ATOM     34  C   UNL     1      32.245 -12.879 -25.438  0.00  0.00    +0.279 C 
ATOM     35  H   UNL     1      32.942 -11.546 -24.044  0.00  0.00    +0.158 HD
ENDBRANCH  27  32
ENDBRANCH  21  27
ENDBRANCH  20  24
ENDBRANCH  19  20
ENDBRANCH   1  19
TORSDOF 9
ENDMDL
MODEL 4
REMARK VINA RESULT:     -11.9      5.232      9.992
REMARK  Name = 9826451
REMARK  9 active torsions:
REMARK  status: ('A' for Active; 'I' for Inactive)
REMARK    1  A    between atoms: C_1  and  N_2
REMARK    2  A    between atoms: C_1  and  C_19
REMARK    3  A    between atoms: C_8  and  O_10
REMARK    4  A    between atoms: O_10  and  C_11
REMARK    5  A    between atoms: C_14  and  O_17
REMARK    6  A    between atoms: C_19  and  O_20
REMARK    7  A    between atoms: O_20  and  C_24
REMARK    8  A    between atoms: C_21  and  C_27
REMARK    9  A    between atoms: C_27  and  C_32
REMARK                            x       y       z     vdW  Elec       q    Type
REMARK                         _______ _______ _______ _____ _____    ______ ____
ROOT
ATOM      1  C   UNL     1      32.789 -12.960 -23.135  0.00  0.00    +0.139 C 
ENDROOT
BRANCH   1   2
ATOM      2  N   UNL     1      33.203 -14.327 -23.340  0.00  0.00    -0.291 N 
ATOM      3  C   UNL     1      33.215 -14.857 -24.705  0.00  0.00    +0.113 C 
ATOM      4  N   UNL     1      33.558 -14.634 -21.019  0.00  0.00    -0.233 NA
ATOM      5  N   UNL     1      34.311 -16.771 -20.200  0.00  0.00    -0.214 NA
ATOM      6  C   UNL     1      33.577 -15.147 -22.267  0.00  0.00    +0.115 C 
ATOM      7  C   UNL     1      33.946 -16.445 -22.557  0.00  0.00    +0.146 C 
ATOM      8  C   UNL     1      34.308 -17.219 -21.472  0.00  0.00    +0.210 C 
ATOM      9  C   UNL     1      33.931 -15.489 -20.048  0.00  0.00    +0.254 C 
BRANCH   8  10
ATOM     10  O   UNL     1      34.688 -18.519 -21.677  0.00  0.00    -0.440 OA
BRANCH  10  11
ATOM     11  C   UNL     1      34.454 -19.417 -20.654  0.00  0.00    +0.147 C 
ATOM     12  C   UNL     1      35.524 -19.965 -19.948  0.00  0.00    +0.041 C 
ATOM     13  C   UNL     1      33.145 -19.775 -20.327  0.00  0.00    +0.041 C 
ATOM     14  C   UNL     1      33.979 -21.230 -18.589  0.00  0.00    +0.139 C 
ATOM     15  C   UNL     1      35.287 -20.872 -18.915  0.00  0.00    +0.040 C 
ATOM     16  C   UNL     1      32.908 -20.681 -19.294  0.00  0.00    +0.040 C 
BRANCH  14  17
ATOM     17  O   UNL     1      33.747 -22.114 -17.580  0.00  0.00    -0.471 OA
ATOM     18  C   UNL     1      32.388 -22.466 -17.324  0.00  0.00    +0.252 C 
ENDBRANCH  14  17
ENDBRANCH  10  11
ENDBRANCH   8  10
ENDBRANCH   1   2
BRANCH   1  19
ATOM     19  C   UNL     1      32.814 -12.204 -24.452  0.00  0.00    +0.227 C 
BRANCH  19  20
ATOM     20  O   UNL     1      33.842 -11.216 -24.413  0.00  0.00    -0.474 OA
BRANCH  20  24
ATOM     21  C   UNL     1      33.006  -7.698 -22.376  0.00  0.00    -0.021 C 
ATOM     22  C   UNL     1      34.205  -7.830 -23.075  0.00  0.00    -0.001 C 
ATOM     23  C   UNL     1      32.087  -8.748 -22.361  0.00  0.00    -0.001 C 
ATOM     24  C   UNL     1      33.568 -10.062 -23.745  0.00  0.00    +0.139 C 
ATOM     25  C   UNL     1      34.487  -9.012 -23.759  0.00  0.00    +0.037 C 
ATOM     26  C   UNL     1      32.369  -9.930 -23.045  0.00  0.00    +0.037 C 
BRANCH  21  27
ATOM     27  C   UNL     1      32.703  -6.420 -21.636  0.00  0.00    +0.047 C 
BRANCH  27  32
ATOM     28  S   UNL     1      30.087  -5.594 -21.893  0.00  0.00    -0.048 S 
ATOM     29  O   UNL     1      32.190  -6.102 -18.697  0.00  0.00    -0.274 OA
ATOM     30  O   UNL     1      28.793  -3.667 -20.660  0.00  0.00    -0.263 OA
ATOM     31  N   UNL     1      30.464  -4.788 -19.499  0.00  0.00    -0.246 N 
ATOM     32  C   UNL     1      31.357  -6.477 -20.934  0.00  0.00    +0.137 C 
ATOM     33  C   UNL     1      31.407  -5.790 -19.587  0.00  0.00    +0.239 C 
ATOM     34  C   UNL     1      29.666  -4.517 -20.579  0.00  0.00    +0.279 C 
ATOM     35  H   UNL     1      30.366  -4.271 -18.667  0.00  0.00    +0.158 HD
ENDBRANCH  27  32
ENDBRANCH  21  27
ENDBRANCH  20  24
ENDBRANCH  19  20
ENDBRANCH   1  19
TORSDOF 9
ENDMDL
MODEL 5
REMARK VINA RESULT:     -11.6      3.718     12.478
REMARK  Name = 9826451
REMARK  9 active torsions:
REMARK  status: ('A' for Active; 'I' for Inactive)
REMARK    1  A    between atoms: C_1  and  N_2
REMARK    2  A    between atoms: C_1  and  C_19
REMARK    3  A    between atoms: C_8  and  O_10
REMARK    4  A    between atoms: O_10  and  C_11
REMARK    5  A    between atoms: C_14  and  O_17
REMARK    6  A    between atoms: C_19  and  O_20
REMARK    7  A    between atoms: O_20  and  C_24
REMARK    8  A    between atoms: C_21  and  C_27
REMARK    9  A    between atoms: C_27  and  C_32
REMARK                            x       y       z     vdW  Elec       q    Type
REMARK                         _______ _______ _______ _____ _____    ______ ____
ROOT
ATOM      1  C   UNL     1      34.387 -17.090 -20.725  0.00  0.00    +0.139 C 
ENDROOT
BRANCH   1   2
ATOM      2  N   UNL     1      34.150 -16.252 -21.876  0.00  0.00    -0.291 N 
ATOM      3  C   UNL     1      34.498 -16.768 -23.201  0.00  0.00    +0.113 C 
ATOM      4  N   UNL     1      33.300 -14.512 -20.512  0.00  0.00    -0.233 NA
ATOM      5  N   UNL     1      32.566 -12.453 -21.524  0.00  0.00    -0.214 NA
ATOM      6  C   UNL     1      33.613 -14.965 -21.745  0.00  0.00    +0.115 C 
ATOM      7  C   UNL     1      33.433 -14.229 -22.899  0.00  0.00    +0.146 C 
ATOM      8  C   UNL     1      32.901 -12.967 -22.725  0.00  0.00    +0.210 C 
ATOM      9  C   UNL     1      32.790 -13.267 -20.476  0.00  0.00    +0.254 C 
BRANCH   8  10
ATOM     10  O   UNL     1      32.691 -12.174 -23.823  0.00  0.00    -0.440 OA
BRANCH  10  11
ATOM     11  C   UNL     1      33.072 -10.850 -23.732  0.00  0.00    +0.147 C 
ATOM     12  C   UNL     1      32.326  -9.961 -22.958  0.00  0.00    +0.041 C 
ATOM     13  C   UNL     1      34.205 -10.402 -24.413  0.00  0.00    +0.041 C 
ATOM     14  C   UNL     1      33.843  -8.176 -23.547  0.00  0.00    +0.139 C 
ATOM     15  C   UNL     1      32.711  -8.624 -22.866  0.00  0.00    +0.040 C 
ATOM     16  C   UNL     1      34.590  -9.066 -24.320  0.00  0.00    +0.040 C 
BRANCH  14  17
ATOM     17  O   UNL     1      34.220  -6.871 -23.456  0.00  0.00    -0.471 OA
ATOM     18  C   UNL     1      33.254  -5.949 -22.955  0.00  0.00    +0.252 C 
ENDBRANCH  14  17
ENDBRANCH  10  11
ENDBRANCH   8  10
ENDBRANCH   1   2
BRANCH   1  19
ATOM     19  C   UNL     1      34.195 -18.550 -21.096  0.00  0.00    +0.227 C 
BRANCH  19  20
ATOM     20  O   UNL     1      35.009 -19.365 -20.255  0.00  0.00    -0.474 OA
BRANCH  20  24
ATOM     21  C   UNL     1      33.068 -22.142 -17.857  0.00  0.00    -0.021 C 
ATOM     22  C   UNL     1      32.332 -21.335 -18.725  0.00  0.00    -0.001 C 
ATOM     23  C   UNL     1      34.456 -22.015 -17.795  0.00  0.00    -0.001 C 
ATOM     24  C   UNL     1      34.372 -20.275 -19.468  0.00  0.00    +0.139 C 
ATOM     25  C   UNL     1      32.984 -20.402 -19.531  0.00  0.00    +0.037 C 
ATOM     26  C   UNL     1      35.107 -21.082 -18.600  0.00  0.00    +0.037 C 
BRANCH  21  27
ATOM     27  C   UNL     1      32.363 -23.150 -16.987  0.00  0.00    +0.047 C 
BRANCH  27  32
ATOM     28  S   UNL     1      32.854 -23.366 -14.285  0.00  0.00    -0.048 S 
ATOM     29  O   UNL     1      29.591 -22.408 -16.109  0.00  0.00    -0.274 OA
ATOM     30  O   UNL     1      31.399 -24.447 -12.382  0.00  0.00    -0.263 OA
ATOM     31  N   UNL     1      30.304 -23.454 -14.174  0.00  0.00    -0.246 N 
ATOM     32  C   UNL     1      31.958 -22.559 -15.648  0.00  0.00    +0.137 C 
ATOM     33  C   UNL     1      30.490 -22.784 -15.365  0.00  0.00    +0.239 C 
ATOM     34  C   UNL     1      31.396 -23.849 -13.446  0.00  0.00    +0.279 C 
ATOM     35  H   UNL     1      29.395 -23.648 -13.850  0.00  0.00    +0.158 HD
ENDBRANCH  27  32
ENDBRANCH  21  27
ENDBRANCH  20  24
ENDBRANCH  19  20
ENDBRANCH   1  19
TORSDOF 9
ENDMDL
MODEL 6
REMARK VINA RESULT:     -11.5      5.112      9.475
REMARK  Name = 9826451
REMARK  9 active torsions:
REMARK  status: ('A' for Active; 'I' for Inactive)
REMARK    1  A    between atoms: C_1  and  N_2
REMARK    2  A    between atoms: C_1  and  C_19
REMARK    3  A    between atoms: C_8  and  O_10
REMARK    4  A    between atoms: O_10  and  C_11
REMARK    5  A    between atoms: C_14  and  O_17
REMARK    6  A    between atoms: C_19  and  O_20
REMARK    7  A    between atoms: O_20  and  C_24
REMARK    8  A    between atoms: C_21  and  C_27
REMARK    9  A    between atoms: C_27  and  C_32
REMARK                            x       y       z     vdW  Elec       q    Type
REMARK                         _______ _______ _______ _____ _____    ______ ____
ROOT
ATOM      1  C   UNL     1      32.911 -14.149 -23.356  0.00  0.00    +0.139 C 
ENDROOT
BRANCH   1   2
ATOM      2  N   UNL     1      33.496 -14.947 -22.306  0.00  0.00    -0.291 N 
ATOM      3  C   UNL     1      33.794 -14.307 -21.024  0.00  0.00    +0.113 C 
ATOM      4  N   UNL     1      33.506 -16.870 -23.688  0.00  0.00    -0.233 NA
ATOM      5  N   UNL     1      34.378 -18.948 -22.836  0.00  0.00    -0.214 NA
ATOM      6  C   UNL     1      33.791 -16.303 -22.497  0.00  0.00    +0.115 C 
ATOM      7  C   UNL     1      34.362 -16.985 -21.442  0.00  0.00    +0.146 C 
ATOM      8  C   UNL     1      34.637 -18.319 -21.671  0.00  0.00    +0.210 C 
ATOM      9  C   UNL     1      33.821 -18.175 -23.787  0.00  0.00    +0.254 C 
BRANCH   8  10
ATOM     10  O   UNL     1      35.204 -19.065 -20.672  0.00  0.00    -0.440 OA
BRANCH  10  11
ATOM     11  C   UNL     1      34.372 -19.899 -19.952  0.00  0.00    +0.147 C 
ATOM     12  C   UNL     1      32.988 -19.752 -20.042  0.00  0.00    +0.041 C 
ATOM     13  C   UNL     1      34.916 -20.890 -19.134  0.00  0.00    +0.041 C 
ATOM     14  C   UNL     1      32.692 -21.585 -18.498  0.00  0.00    +0.139 C 
ATOM     15  C   UNL     1      32.148 -20.594 -19.315  0.00  0.00    +0.040 C 
ATOM     16  C   UNL     1      34.076 -21.733 -18.408  0.00  0.00    +0.040 C 
BRANCH  14  17
ATOM     17  O   UNL     1      31.872 -22.409 -17.789  0.00  0.00    -0.471 OA
ATOM     18  C   UNL     1      32.308 -22.795 -16.487  0.00  0.00    +0.252 C 
ENDBRANCH  14  17
ENDBRANCH  10  11
ENDBRANCH   8  10
ENDBRANCH   1   2
BRANCH   1  19
ATOM     19  C   UNL     1      32.781 -12.705 -22.902  0.00  0.00    +0.227 C 
BRANCH  19  20
ATOM     20  O   UNL     1      33.063 -11.835 -23.997  0.00  0.00    -0.474 OA
BRANCH  20  24
ATOM     21  C   UNL     1      33.531  -7.802 -23.137  0.00  0.00    -0.021 C 
ATOM     22  C   UNL     1      32.511  -8.531 -22.526  0.00  0.00    -0.001 C 
ATOM     23  C   UNL     1      34.393  -8.428 -24.038  0.00  0.00    -0.001 C 
ATOM     24  C   UNL     1      33.216 -10.512 -23.715  0.00  0.00    +0.139 C 
ATOM     25  C   UNL     1      32.353  -9.886 -22.814  0.00  0.00    +0.037 C 
ATOM     26  C   UNL     1      34.235  -9.782 -24.327  0.00  0.00    +0.037 C 
BRANCH  21  27
ATOM     27  C   UNL     1      33.700  -6.337 -22.825  0.00  0.00    +0.047 C 
BRANCH  27  32
ATOM     28  S   UNL     1      31.294  -6.173 -24.155  0.00  0.00    -0.048 S 
ATOM     29  O   UNL     1      34.783  -4.938 -25.249  0.00  0.00    -0.274 OA
ATOM     30  O   UNL     1      30.725  -6.611 -26.684  0.00  0.00    -0.263 OA
ATOM     31  N   UNL     1      32.818  -5.751 -26.160  0.00  0.00    -0.246 N 
ATOM     32  C   UNL     1      32.926  -5.458 -23.791  0.00  0.00    +0.137 C 
ATOM     33  C   UNL     1      33.633  -5.345 -25.124  0.00  0.00    +0.239 C 
ATOM     34  C   UNL     1      31.559  -6.216 -25.885  0.00  0.00    +0.279 C 
ATOM     35  H   UNL     1      33.140  -5.709 -27.090  0.00  0.00    +0.158 HD
ENDBRANCH  27  32
ENDBRANCH  21  27
ENDBRANCH  20  24
ENDBRANCH  19  20
ENDBRANCH   1  19
TORSDOF 9
ENDMDL
MODEL 7
REMARK VINA RESULT:     -11.4      3.795     11.162
REMARK  Name = 9826451
REMARK  9 active torsions:
REMARK  status: ('A' for Active; 'I' for Inactive)
REMARK    1  A    between atoms: C_1  and  N_2
REMARK    2  A    between atoms: C_1  and  C_19
REMARK    3  A    between atoms: C_8  and  O_10
REMARK    4  A    between atoms: O_10  and  C_11
REMARK    5  A    between atoms: C_14  and  O_17
REMARK    6  A    between atoms: C_19  and  O_20
REMARK    7  A    between atoms: O_20  and  C_24
REMARK    8  A    between atoms: C_21  and  C_27
REMARK    9  A    between atoms: C_27  and  C_32
REMARK                            x       y       z     vdW  Elec       q    Type
REMARK                         _______ _______ _______ _____ _____    ______ ____
ROOT
ATOM      1  C   UNL     1      33.696 -21.338 -18.246  0.00  0.00    +0.139 C 
ENDROOT
BRANCH   1   2
ATOM      2  N   UNL     1      33.313 -20.498 -19.355  0.00  0.00    -0.291 N 
ATOM      3  C   UNL     1      31.910 -20.488 -19.773  0.00  0.00    +0.113 C 
ATOM      4  N   UNL     1      35.540 -19.740 -19.631  0.00  0.00    -0.233 NA
ATOM      5  N   UNL     1      36.057 -18.171 -21.385  0.00  0.00    -0.214 NA
ATOM      6  C   UNL     1      34.252 -19.713 -20.036  0.00  0.00    +0.115 C 
ATOM      7  C   UNL     1      33.798 -18.951 -21.093  0.00  0.00    +0.146 C 
ATOM      8  C   UNL     1      34.755 -18.192 -21.737  0.00  0.00    +0.210 C 
ATOM      9  C   UNL     1      36.375 -18.957 -20.339  0.00  0.00    +0.254 C 
BRANCH   8  10
ATOM     10  O   UNL     1      34.383 -17.407 -22.796  0.00  0.00    -0.440 OA
BRANCH  10  11
ATOM     11  C   UNL     1      33.868 -16.158 -22.511  0.00  0.00    +0.147 C 
ATOM     12  C   UNL     1      33.242 -15.416 -23.512  0.00  0.00    +0.041 C 
ATOM     13  C   UNL     1      33.973 -15.639 -21.220  0.00  0.00    +0.041 C 
ATOM     14  C   UNL     1      32.827 -13.636 -21.933  0.00  0.00    +0.139 C 
ATOM     15  C   UNL     1      32.721 -14.155 -23.223  0.00  0.00    +0.040 C 
ATOM     16  C   UNL     1      33.452 -14.379 -20.931  0.00  0.00    +0.040 C 
BRANCH  14  17
ATOM     17  O   UNL     1      32.318 -12.405 -21.650  0.00  0.00    -0.471 OA
ATOM     18  C   UNL     1      31.255 -12.344 -20.701  0.00  0.00    +0.252 C 
ENDBRANCH  14  17
ENDBRANCH  10  11
ENDBRANCH   8  10
ENDBRANCH   1   2
BRANCH   1  19
ATOM     19  C   UNL     1      32.465 -21.976 -17.626  0.00  0.00    +0.227 C 
BRANCH  19  20
ATOM     20  O   UNL     1      32.833 -23.197 -16.987  0.00  0.00    -0.474 OA
BRANCH  20  24
ATOM     21  C   UNL     1      34.952 -22.909 -13.430  0.00  0.00    -0.021 C 
ATOM     22  C   UNL     1      35.448 -22.309 -14.588  0.00  0.00    -0.001 C 
ATOM     23  C   UNL     1      33.744 -23.606 -13.468  0.00  0.00    -0.001 C 
ATOM     24  C   UNL     1      33.529 -23.103 -15.821  0.00  0.00    +0.139 C 
ATOM     25  C   UNL     1      34.736 -22.405 -15.783  0.00  0.00    +0.037 C 
ATOM     26  C   UNL     1      33.034 -23.704 -14.664  0.00  0.00    +0.037 C 
BRANCH  21  27
ATOM     27  C   UNL     1      35.722 -22.803 -12.139  0.00  0.00    +0.047 C 
BRANCH  27  32
ATOM     28  S   UNL     1      37.403 -24.514 -13.494  0.00  0.00    -0.048 S 
ATOM     29  O   UNL     1      35.196 -25.193 -10.402  0.00  0.00    -0.274 OA
ATOM     30  O   UNL     1      37.047 -27.015 -14.220  0.00  0.00    -0.263 OA
ATOM     31  N   UNL     1      36.044 -26.286 -12.256  0.00  0.00    -0.246 N 
ATOM     32  C   UNL     1      36.638 -23.995 -11.926  0.00  0.00    +0.137 C 
ATOM     33  C   UNL     1      35.873 -25.199 -11.424  0.00  0.00    +0.239 C 
ATOM     34  C   UNL     1      36.804 -26.155 -13.387  0.00  0.00    +0.279 C 
ATOM     35  H   UNL     1      35.621 -27.148 -12.038  0.00  0.00    +0.158 HD
ENDBRANCH  27  32
ENDBRANCH  21  27
ENDBRANCH  20  24
ENDBRANCH  19  20
ENDBRANCH   1  19
TORSDOF 9
ENDMDL
MODEL 8
REMARK VINA RESULT:     -11.3      3.110     11.482
REMARK  Name = 9826451
REMARK  9 active torsions:
REMARK  status: ('A' for Active; 'I' for Inactive)
REMARK    1  A    between atoms: C_1  and  N_2
REMARK    2  A    between atoms: C_1  and  C_19
REMARK    3  A    between atoms: C_8  and  O_10
REMARK    4  A    between atoms: O_10  and  C_11
REMARK    5  A    between atoms: C_14  and  O_17
REMARK    6  A    between atoms: C_19  and  O_20
REMARK    7  A    between atoms: O_20  and  C_24
REMARK    8  A    between atoms: C_21  and  C_27
REMARK    9  A    between atoms: C_27  and  C_32
REMARK                            x       y       z     vdW  Elec       q    Type
REMARK                         _______ _______ _______ _____ _____    ______ ____
ROOT
ATOM      1  C   UNL     1      33.967 -18.023 -22.807  0.00  0.00    +0.139 C 
ENDROOT
BRANCH   1   2
ATOM      2  N   UNL     1      34.036 -16.630 -22.437  0.00  0.00    -0.291 N 
ATOM      3  C   UNL     1      34.652 -16.276 -21.157  0.00  0.00    +0.113 C 
ATOM      4  N   UNL     1      32.957 -15.979 -24.442  0.00  0.00    -0.233 NA
ATOM      5  N   UNL     1      32.521 -13.647 -24.860  0.00  0.00    -0.214 NA
ATOM      6  C   UNL     1      33.519 -15.627 -23.267  0.00  0.00    +0.115 C 
ATOM      7  C   UNL     1      33.617 -14.322 -22.826  0.00  0.00    +0.146 C 
ATOM      8  C   UNL     1      33.096 -13.365 -23.673  0.00  0.00    +0.210 C 
ATOM      9  C   UNL     1      32.485 -14.955 -25.177  0.00  0.00    +0.254 C 
BRANCH   8  10
ATOM     10  O   UNL     1      33.156 -12.046 -23.307  0.00  0.00    -0.440 OA
BRANCH  10  11
ATOM     11  C   UNL     1      32.301 -11.626 -22.307  0.00  0.00    +0.147 C 
ATOM     12  C   UNL     1      31.753 -12.553 -21.422  0.00  0.00    +0.041 C 
ATOM     13  C   UNL     1      31.987 -10.272 -22.182  0.00  0.00    +0.041 C 
ATOM     14  C   UNL     1      30.576 -10.775 -20.288  0.00  0.00    +0.139 C 
ATOM     15  C   UNL     1      30.890 -12.129 -20.412  0.00  0.00    +0.040 C 
ATOM     16  C   UNL     1      31.125  -9.847 -21.172  0.00  0.00    +0.040 C 
BRANCH  14  17
ATOM     17  O   UNL     1      29.734 -10.360 -19.301  0.00  0.00    -0.471 OA
ATOM     18  C   UNL     1      30.271  -9.475 -18.319  0.00  0.00    +0.252 C 
ENDBRANCH  14  17
ENDBRANCH  10  11
ENDBRANCH   8  10
ENDBRANCH   1   2
BRANCH   1  19
ATOM     19  C   UNL     1      33.249 -18.814 -21.726  0.00  0.00    +0.227 C 
BRANCH  19  20
ATOM     20  O   UNL     1      34.178 -19.174 -20.706  0.00  0.00    -0.474 OA
BRANCH  20  24
ATOM     21  C   UNL     1      32.978 -22.079 -17.995  0.00  0.00    -0.021 C 
ATOM     22  C   UNL     1      34.335 -21.881 -18.250  0.00  0.00    -0.001 C 
ATOM     23  C   UNL     1      32.024 -21.301 -18.652  0.00  0.00    -0.001 C 
ATOM     24  C   UNL     1      33.785 -20.127 -19.817  0.00  0.00    +0.139 C 
ATOM     25  C   UNL     1      34.739 -20.905 -19.160  0.00  0.00    +0.037 C 
ATOM     26  C   UNL     1      32.428 -20.326 -19.563  0.00  0.00    +0.037 C 
BRANCH  21  27
ATOM     27  C   UNL     1      32.543 -23.134 -17.011  0.00  0.00    +0.047 C 
BRANCH  27  32
ATOM     28  S   UNL     1      33.004 -23.300 -14.300  0.00  0.00    -0.048 S 
ATOM     29  O   UNL     1      29.748 -22.428 -16.179  0.00  0.00    -0.274 OA
ATOM     30  O   UNL     1      31.545 -24.378 -12.398  0.00  0.00    -0.263 OA
ATOM     31  N   UNL     1      30.455 -23.432 -14.219  0.00  0.00    -0.246 N 
ATOM     32  C   UNL     1      32.111 -22.530 -15.686  0.00  0.00    +0.137 C 
ATOM     33  C   UNL     1      30.644 -22.777 -15.418  0.00  0.00    +0.239 C 
ATOM     34  C   UNL     1      31.544 -23.795 -13.472  0.00  0.00    +0.279 C 
ATOM     35  H   UNL     1      29.545 -23.637 -13.904  0.00  0.00    +0.158 HD
ENDBRANCH  27  32
ENDBRANCH  21  27
ENDBRANCH  20  24
ENDBRANCH  19  20
ENDBRANCH   1  19
TORSDOF 9
ENDMDL
MODEL 9
REMARK VINA RESULT:     -11.3      5.935     11.219
REMARK  Name = 9826451
REMARK  9 active torsions:
REMARK  status: ('A' for Active; 'I' for Inactive)
REMARK    1  A    between atoms: C_1  and  N_2
REMARK    2  A    between atoms: C_1  and  C_19
REMARK    3  A    between atoms: C_8  and  O_10
REMARK    4  A    between atoms: O_10  and  C_11
REMARK    5  A    between atoms: C_14  and  O_17
REMARK    6  A    between atoms: C_19  and  O_20
REMARK    7  A    between atoms: O_20  and  C_24
REMARK    8  A    between atoms: C_21  and  C_27
REMARK    9  A    between atoms: C_27  and  C_32
REMARK                            x       y       z     vdW  Elec       q    Type
REMARK                         _______ _______ _______ _____ _____    ______ ____
ROOT
ATOM      1  C   UNL     1      31.986 -12.577 -21.384  0.00  0.00    +0.139 C 
ENDROOT
BRANCH   1   2
ATOM      2  N   UNL     1      32.776 -13.785 -21.365  0.00  0.00    -0.291 N 
ATOM      3  C   UNL     1      33.387 -14.201 -20.102  0.00  0.00    +0.113 C 
ATOM      4  N   UNL     1      32.399 -14.142 -23.676  0.00  0.00    -0.233 NA
ATOM      5  N   UNL     1      33.379 -16.055 -24.763  0.00  0.00    -0.214 NA
ATOM      6  C   UNL     1      32.973 -14.547 -22.524  0.00  0.00    +0.115 C 
ATOM      7  C   UNL     1      33.754 -15.680 -22.415  0.00  0.00    +0.146 C 
ATOM      8  C   UNL     1      33.924 -16.402 -23.579  0.00  0.00    +0.210 C 
ATOM      9  C   UNL     1      32.639 -14.930 -24.740  0.00  0.00    +0.254 C 
BRANCH   8  10
ATOM     10  O   UNL     1      34.686 -17.541 -23.554  0.00  0.00    -0.440 OA
BRANCH  10  11
ATOM     11  C   UNL     1      34.752 -18.233 -22.361  0.00  0.00    +0.147 C 
ATOM     12  C   UNL     1      35.925 -18.214 -21.607  0.00  0.00    +0.041 C 
ATOM     13  C   UNL     1      33.644 -18.952 -21.910  0.00  0.00    +0.041 C 
ATOM     14  C   UNL     1      34.884 -19.631 -19.951  0.00  0.00    +0.139 C 
ATOM     15  C   UNL     1      35.991 -18.913 -20.402  0.00  0.00    +0.040 C 
ATOM     16  C   UNL     1      33.710 -19.650 -20.705  0.00  0.00    +0.040 C 
BRANCH  14  17
ATOM     17  O   UNL     1      34.948 -20.313 -18.774  0.00  0.00    -0.471 OA
ATOM     18  C   UNL     1      34.162 -21.499 -18.667  0.00  0.00    +0.252 C 
ENDBRANCH  14  17
ENDBRANCH  10  11
ENDBRANCH   8  10
ENDBRANCH   1   2
BRANCH   1  19
ATOM     19  C   UNL     1      31.460 -12.277 -19.991  0.00  0.00    +0.227 C 
BRANCH  19  20
ATOM     20  O   UNL     1      30.296 -11.458 -20.088  0.00  0.00    -0.474 OA
BRANCH  20  24
ATOM     21  C   UNL     1      30.879  -7.353 -20.265  0.00  0.00    -0.021 C 
ATOM     22  C   UNL     1      30.603  -8.068 -21.430  0.00  0.00    -0.001 C 
ATOM     23  C   UNL     1      30.959  -8.017 -19.041  0.00  0.00    -0.001 C 
ATOM     24  C   UNL     1      30.488 -10.112 -20.147  0.00  0.00    +0.139 C 
ATOM     25  C   UNL     1      30.407  -9.448 -21.371  0.00  0.00    +0.037 C 
ATOM     26  C   UNL     1      30.764  -9.396 -18.982  0.00  0.00    +0.037 C 
BRANCH  21  27
ATOM     27  C   UNL     1      31.090  -5.862 -20.330  0.00  0.00    +0.047 C 
BRANCH  27  32
ATOM     28  S   UNL     1      31.439  -4.402 -22.639  0.00  0.00    -0.048 S 
ATOM     29  O   UNL     1      28.506  -4.348 -20.132  0.00  0.00    -0.274 OA
ATOM     30  O   UNL     1      30.998  -1.855 -23.115  0.00  0.00    -0.263 OA
ATOM     31  N   UNL     1      29.626  -2.943 -21.588  0.00  0.00    -0.246 N 
ATOM     32  C   UNL     1      30.315  -5.228 -21.471  0.00  0.00    +0.137 C 
ATOM     33  C   UNL     1      29.376  -4.152 -20.973  0.00  0.00    +0.239 C 
ATOM     34  C   UNL     1      30.651  -2.846 -22.492  0.00  0.00    +0.279 C 
ATOM     35  H   UNL     1      29.074  -2.155 -21.377  0.00  0.00    +0.158 HD
ENDBRANCH  27  32
ENDBRANCH  21  27
ENDBRANCH  20  24
ENDBRANCH  19  20
ENDBRANCH   1  19
TORSDOF 9
ENDMDL
