MODEL 1
REMARK VINA RESULT:     -12.0      0.000      0.000
REMARK  Name = 118598754
REMARK  1 active torsions:
REMARK  status: ('A' for Active; 'I' for Inactive)
REMARK    1  A    between atoms: C_15  and  N_19
REMARK                            x       y       z     vdW  Elec       q    Type
REMARK                         _______ _______ _______ _____ _____    ______ ____
ROOT
ATOM      1  O   UNL     1      31.107 -24.269 -12.357  0.00  0.00    -0.269 OA
ATOM      2  O   UNL     1      35.777 -22.908 -15.582  0.00  0.00    -0.268 OA
ATOM      3  N   UNL     1      33.917 -23.450 -14.300  0.00  0.00    -0.238 N 
ATOM      4  N   UNL     1      33.442 -24.271 -12.208  0.00  0.00    -0.288 N 
ATOM      5  C   UNL     1      34.575 -23.916 -13.053  0.00  0.00    +0.124 C 
ATOM      6  C   UNL     1      35.445 -25.162 -13.310  0.00  0.00    +0.038 C 
ATOM      7  C   UNL     1      35.388 -22.787 -12.391  0.00  0.00    +0.038 C 
ATOM      8  C   UNL     1      36.148 -23.260 -11.150  0.00  0.00    +0.003 C 
ATOM      9  C   UNL     1      36.205 -25.615 -12.062  0.00  0.00    +0.003 C 
ATOM     10  C   UNL     1      37.016 -24.477 -11.451  0.00  0.00    +0.000 C 
ATOM     11  C   UNL     1      32.541 -23.533 -14.171  0.00  0.00    +0.105 C 
ATOM     12  C   UNL     1      32.213 -24.063 -12.821  0.00  0.00    +0.260 C 
ATOM     13  C   UNL     1      34.558 -22.992 -15.445  0.00  0.00    +0.267 C 
ATOM     14  C   UNL     1      31.714 -23.172 -15.162  0.00  0.00    -0.002 C 
ATOM     15  C   UNL     1      33.645 -22.581 -16.571  0.00  0.00    +0.104 C 
ATOM     16  C   UNL     1      32.316 -22.683 -16.391  0.00  0.00    +0.016 C 
ATOM     17  C   UNL     1      30.215 -23.212 -15.152  0.00  0.00    +0.033 C 
ATOM     18  H   UNL     1      33.536 -24.622 -11.293  0.00  0.00    +0.151 HD
ENDROOT
BRANCH  15  19
ATOM     19  N   UNL     1      34.248 -22.127 -17.708  0.00  0.00    -0.298 N 
ATOM     20  N   UNL     1      32.418 -21.169 -18.862  0.00  0.00    -0.233 NA
ATOM     21  N   UNL     1      32.814 -19.458 -20.512  0.00  0.00    -0.234 NA
ATOM     22  C   UNL     1      33.751 -21.226 -18.655  0.00  0.00    +0.113 C 
ATOM     23  C   UNL     1      34.665 -20.443 -19.329  0.00  0.00    +0.121 C 
ATOM     24  C   UNL     1      34.134 -19.568 -20.256  0.00  0.00    +0.107 C 
ATOM     25  C   UNL     1      32.025 -20.275 -19.790  0.00  0.00    +0.252 C 
ATOM     26  H   UNL     1      35.151 -22.479 -17.883  0.00  0.00    +0.153 HD
ATOM     27  N   UNL     1      35.041 -18.748 -20.971  0.00  0.00    -0.346 N 
ATOM     28  H   UNL     1      34.705 -18.109 -21.641  0.00  0.00    +0.143 HD
ATOM     29  H   UNL     1      36.008 -18.815 -20.798  0.00  0.00    +0.143 HD
ENDBRANCH  15  19
TORSDOF 1
ENDMDL
MODEL 2
REMARK VINA RESULT:     -11.1     10.134     14.835
REMARK  Name = 118598754
REMARK  1 active torsions:
REMARK  status: ('A' for Active; 'I' for Inactive)
REMARK    1  A    between atoms: C_15  and  N_19
REMARK                            x       y       z     vdW  Elec       q    Type
REMARK                         _______ _______ _______ _____ _____    ______ ____
ROOT
ATOM      1  O   UNL     1      30.451  -8.323 -20.119  0.00  0.00    -0.269 OA
ATOM      2  O   UNL     1      33.697 -10.754 -24.318  0.00  0.00    -0.268 OA
ATOM      3  N   UNL     1      32.406  -9.788 -22.645  0.00  0.00    -0.238 N 
ATOM      4  N   UNL     1      31.747  -7.695 -21.963  0.00  0.00    -0.288 N 
ATOM      5  C   UNL     1      32.547  -8.351 -22.991  0.00  0.00    +0.124 C 
ATOM      6  C   UNL     1      34.014  -7.889 -22.885  0.00  0.00    +0.038 C 
ATOM      7  C   UNL     1      31.959  -8.047 -24.383  0.00  0.00    +0.038 C 
ATOM      8  C   UNL     1      32.167  -6.591 -24.803  0.00  0.00    +0.003 C 
ATOM      9  C   UNL     1      34.205  -6.435 -23.318  0.00  0.00    +0.003 C 
ATOM     10  C   UNL     1      33.633  -6.182 -24.710  0.00  0.00    +0.000 C 
ATOM     11  C   UNL     1      31.601  -9.931 -21.527  0.00  0.00    +0.105 C 
ATOM     12  C   UNL     1      31.164  -8.585 -21.070  0.00  0.00    +0.260 C 
ATOM     13  C   UNL     1      32.981 -10.856 -23.322  0.00  0.00    +0.267 C 
ATOM     14  C   UNL     1      31.317 -11.134 -21.009  0.00  0.00    -0.002 C 
ATOM     15  C   UNL     1      32.674 -12.217 -22.755  0.00  0.00    +0.104 C 
ATOM     16  C   UNL     1      31.887 -12.297 -21.667  0.00  0.00    +0.016 C 
ATOM     17  C   UNL     1      30.466 -11.426 -19.810  0.00  0.00    +0.033 C 
ATOM     18  H   UNL     1      31.631  -6.719 -21.907  0.00  0.00    +0.151 HD
ENDROOT
BRANCH  15  19
ATOM     19  N   UNL     1      33.228 -13.284 -23.401  0.00  0.00    -0.298 N 
ATOM     20  N   UNL     1      33.868 -14.655 -21.581  0.00  0.00    -0.233 NA
ATOM     21  N   UNL     1      34.132 -17.027 -21.912  0.00  0.00    -0.234 NA
ATOM     22  C   UNL     1      33.536 -14.548 -22.885  0.00  0.00    +0.113 C 
ATOM     23  C   UNL     1      33.481 -15.619 -23.753  0.00  0.00    +0.121 C 
ATOM     24  C   UNL     1      33.792 -16.848 -23.205  0.00  0.00    +0.107 C 
ATOM     25  C   UNL     1      34.150 -15.905 -21.167  0.00  0.00    +0.252 C 
ATOM     26  H   UNL     1      33.436 -13.147 -24.353  0.00  0.00    +0.153 HD
ATOM     27  N   UNL     1      33.750 -17.973 -24.064  0.00  0.00    -0.346 N 
ATOM     28  H   UNL     1      33.964 -18.868 -23.715  0.00  0.00    +0.143 HD
ATOM     29  H   UNL     1      33.505 -17.861 -25.012  0.00  0.00    +0.143 HD
ENDBRANCH  15  19
TORSDOF 1
ENDMDL
MODEL 3
REMARK VINA RESULT:     -10.3     11.787     16.195
REMARK  Name = 118598754
REMARK  1 active torsions:
REMARK  status: ('A' for Active; 'I' for Inactive)
REMARK    1  A    between atoms: C_15  and  N_19
REMARK                            x       y       z     vdW  Elec       q    Type
REMARK                         _______ _______ _______ _____ _____    ______ ____
ROOT
ATOM      1  O   UNL     1      34.210  -5.890 -24.671  0.00  0.00    -0.269 OA
ATOM      2  O   UNL     1      31.558 -10.029 -21.523  0.00  0.00    -0.268 OA
ATOM      3  N   UNL     1      32.613  -8.383 -22.777  0.00  0.00    -0.238 N 
ATOM      4  N   UNL     1      32.652  -6.091 -22.937  0.00  0.00    -0.288 N 
ATOM      5  C   UNL     1      32.016  -7.162 -22.178  0.00  0.00    +0.124 C 
ATOM      6  C   UNL     1      30.491  -7.119 -22.393  0.00  0.00    +0.038 C 
ATOM      7  C   UNL     1      32.380  -7.033 -20.686  0.00  0.00    +0.038 C 
ATOM      8  C   UNL     1      31.708  -5.830 -20.021  0.00  0.00    +0.003 C 
ATOM      9  C   UNL     1      29.835  -5.917 -21.713  0.00  0.00    +0.003 C 
ATOM     10  C   UNL     1      30.198  -5.839 -20.234  0.00  0.00    +0.000 C 
ATOM     11  C   UNL     1      33.503  -8.034 -23.779  0.00  0.00    +0.105 C 
ATOM     12  C   UNL     1      33.542  -6.553 -23.898  0.00  0.00    +0.260 C 
ATOM     13  C   UNL     1      32.342  -9.695 -22.410  0.00  0.00    +0.267 C 
ATOM     14  C   UNL     1      34.177  -8.957 -24.480  0.00  0.00    -0.002 C 
ATOM     15  C   UNL     1      33.090 -10.747 -23.186  0.00  0.00    +0.104 C 
ATOM     16  C   UNL     1      33.941 -10.352 -24.149  0.00  0.00    +0.016 C 
ATOM     17  C   UNL     1      35.163  -8.716 -25.584  0.00  0.00    +0.033 C 
ATOM     18  H   UNL     1      32.470  -5.136 -22.783  0.00  0.00    +0.151 HD
ENDROOT
BRANCH  15  19
ATOM     19  N   UNL     1      32.841 -12.045 -22.846  0.00  0.00    -0.298 N 
ATOM     20  N   UNL     1      32.380 -13.005 -24.959  0.00  0.00    -0.233 NA
ATOM     21  N   UNL     1      32.680 -15.375 -25.281  0.00  0.00    -0.234 NA
ATOM     22  C   UNL     1      32.783 -13.166 -23.680  0.00  0.00    +0.113 C 
ATOM     23  C   UNL     1      33.143 -14.382 -23.138  0.00  0.00    +0.121 C 
ATOM     24  C   UNL     1      33.072 -15.463 -23.993  0.00  0.00    +0.107 C 
ATOM     25  C   UNL     1      32.353 -14.135 -25.692  0.00  0.00    +0.252 C 
ATOM     26  H   UNL     1      32.683 -12.214 -21.889  0.00  0.00    +0.153 HD
ATOM     27  N   UNL     1      33.432 -16.731 -23.473  0.00  0.00    -0.346 N 
ATOM     28  H   UNL     1      33.396 -17.528 -24.049  0.00  0.00    +0.143 HD
ATOM     29  H   UNL     1      33.720 -16.815 -22.535  0.00  0.00    +0.143 HD
ENDBRANCH  15  19
TORSDOF 1
ENDMDL
MODEL 4
REMARK VINA RESULT:      -9.8      2.789      4.984
REMARK  Name = 118598754
REMARK  1 active torsions:
REMARK  status: ('A' for Active; 'I' for Inactive)
REMARK    1  A    between atoms: C_15  and  N_19
REMARK                            x       y       z     vdW  Elec       q    Type
REMARK                         _______ _______ _______ _____ _____    ______ ____
ROOT
ATOM      1  O   UNL     1      37.540 -21.842 -15.603  0.00  0.00    -0.269 OA
ATOM      2  O   UNL     1      32.651 -24.438 -13.753  0.00  0.00    -0.268 OA
ATOM      3  N   UNL     1      34.596 -23.403 -14.490  0.00  0.00    -0.238 N 
ATOM      4  N   UNL     1      36.776 -23.142 -13.814  0.00  0.00    -0.288 N 
ATOM      5  C   UNL     1      35.529 -23.772 -13.396  0.00  0.00    +0.124 C 
ATOM      6  C   UNL     1      35.074 -23.183 -12.046  0.00  0.00    +0.038 C 
ATOM      7  C   UNL     1      35.718 -25.299 -13.310  0.00  0.00    +0.038 C 
ATOM      8  C   UNL     1      36.608 -25.716 -12.137  0.00  0.00    +0.003 C 
ATOM      9  C   UNL     1      35.968 -23.618 -10.884  0.00  0.00    +0.003 C 
ATOM     10  C   UNL     1      36.109 -25.135 -10.819  0.00  0.00    +0.000 C 
ATOM     11  C   UNL     1      35.253 -22.636 -15.437  0.00  0.00    +0.105 C 
ATOM     12  C   UNL     1      36.668 -22.457 -15.018  0.00  0.00    +0.260 C 
ATOM     13  C   UNL     1      33.255 -23.757 -14.580  0.00  0.00    +0.267 C 
ATOM     14  C   UNL     1      34.630 -22.172 -16.530  0.00  0.00    -0.002 C 
ATOM     15  C   UNL     1      32.537 -23.245 -15.801  0.00  0.00    +0.104 C 
ATOM     16  C   UNL     1      33.224 -22.505 -16.689  0.00  0.00    +0.016 C 
ATOM     17  C   UNL     1      35.221 -21.338 -17.626  0.00  0.00    +0.033 C 
ATOM     18  H   UNL     1      37.612 -23.197 -13.297  0.00  0.00    +0.151 HD
ENDROOT
BRANCH  15  19
ATOM     19  N   UNL     1      31.218 -23.578 -15.914  0.00  0.00    -0.298 N 
ATOM     20  N   UNL     1      30.260 -22.307 -14.164  0.00  0.00    -0.233 NA
ATOM     21  N   UNL     1      27.926 -21.714 -14.261  0.00  0.00    -0.234 NA
ATOM     22  C   UNL     1      30.109 -22.943 -15.345  0.00  0.00    +0.113 C 
ATOM     23  C   UNL     1      28.916 -23.007 -16.034  0.00  0.00    +0.121 C 
ATOM     24  C   UNL     1      27.847 -22.368 -15.438  0.00  0.00    +0.107 C 
ATOM     25  C   UNL     1      29.144 -21.722 -13.686  0.00  0.00    +0.252 C 
ATOM     26  H   UNL     1      31.022 -24.367 -16.470  0.00  0.00    +0.153 HD
ATOM     27  N   UNL     1      26.602 -22.414 -16.114  0.00  0.00    -0.346 N 
ATOM     28  H   UNL     1      25.814 -21.971 -15.725  0.00  0.00    +0.143 HD
ATOM     29  H   UNL     1      26.525 -22.888 -16.974  0.00  0.00    +0.143 HD
ENDBRANCH  15  19
TORSDOF 1
ENDMDL
MODEL 5
REMARK VINA RESULT:      -9.2     11.511     16.436
REMARK  Name = 118598754
REMARK  1 active torsions:
REMARK  status: ('A' for Active; 'I' for Inactive)
REMARK    1  A    between atoms: C_15  and  N_19
REMARK                            x       y       z     vdW  Elec       q    Type
REMARK                         _______ _______ _______ _____ _____    ______ ____
ROOT
ATOM      1  O   UNL     1      30.380  -6.231 -21.312  0.00  0.00    -0.269 OA
ATOM      2  O   UNL     1      33.887  -9.424 -24.713  0.00  0.00    -0.268 OA
ATOM      3  N   UNL     1      32.492  -8.154 -23.358  0.00  0.00    -0.238 N 
ATOM      4  N   UNL     1      31.784  -5.977 -23.166  0.00  0.00    -0.288 N 
ATOM      5  C   UNL     1      32.649  -6.818 -23.986  0.00  0.00    +0.124 C 
ATOM      6  C   UNL     1      34.104  -6.320 -23.892  0.00  0.00    +0.038 C 
ATOM      7  C   UNL     1      32.146  -6.820 -25.443  0.00  0.00    +0.038 C 
ATOM      8  C   UNL     1      32.373  -5.479 -26.144  0.00  0.00    +0.003 C 
ATOM      9  C   UNL     1      34.315  -4.984 -24.606  0.00  0.00    +0.003 C 
ATOM     10  C   UNL     1      33.829  -5.035 -26.051  0.00  0.00    +0.000 C 
ATOM     11  C   UNL     1      31.622  -8.075 -22.284  0.00  0.00    +0.105 C 
ATOM     12  C   UNL     1      31.152  -6.672 -22.144  0.00  0.00    +0.260 C 
ATOM     13  C   UNL     1      33.113  -9.329 -23.763  0.00  0.00    +0.267 C 
ATOM     14  C   UNL     1      31.311  -9.149 -21.544  0.00  0.00    -0.002 C 
ATOM     15  C   UNL     1      32.777 -10.548 -22.943  0.00  0.00    +0.104 C 
ATOM     16  C   UNL     1      31.926 -10.414 -21.911  0.00  0.00    +0.016 C 
ATOM     17  C   UNL     1      30.389  -9.201 -20.363  0.00  0.00    +0.033 C 
ATOM     18  H   UNL     1      31.661  -5.012 -23.321  0.00  0.00    +0.151 HD
ENDROOT
BRANCH  15  19
ATOM     19  N   UNL     1      33.374 -11.716 -23.319  0.00  0.00    -0.298 N 
ATOM     20  N   UNL     1      33.576 -12.831 -21.242  0.00  0.00    -0.233 NA
ATOM     21  N   UNL     1      33.747 -15.235 -21.191  0.00  0.00    -0.234 NA
ATOM     22  C   UNL     1      33.500 -12.902 -22.587  0.00  0.00    +0.113 C 
ATOM     23  C   UNL     1      33.542 -14.085 -23.296  0.00  0.00    +0.121 C 
ATOM     24  C   UNL     1      33.667 -15.232 -22.537  0.00  0.00    +0.107 C 
ATOM     25  C   UNL     1      33.696 -14.018 -20.615  0.00  0.00    +0.252 C 
ATOM     26  H   UNL     1      33.765 -11.726 -24.222  0.00  0.00    +0.153 HD
ATOM     27  N   UNL     1      33.716 -16.467 -23.228  0.00  0.00    -0.346 N 
ATOM     28  H   UNL     1      33.805 -17.310 -22.726  0.00  0.00    +0.143 HD
ATOM     29  H   UNL     1      33.660 -16.485 -24.211  0.00  0.00    +0.143 HD
ENDBRANCH  15  19
TORSDOF 1
ENDMDL
