MODEL 1
REMARK VINA RESULT:     -12.6      0.000      0.000
REMARK  Name = 11282283
REMARK  4 active torsions:
REMARK  status: ('A' for Active; 'I' for Inactive)
REMARK    1  A    between atoms: N_3  and  C_21
REMARK    2  A    between atoms: C_21  and  N_22
REMARK    3  A    between atoms: N_22  and  C_24
REMARK    4  A    between atoms: C_24  and  C_27
REMARK                            x       y       z     vdW  Elec       q    Type
REMARK                         _______ _______ _______ _____ _____    ______ ____
ROOT
ATOM      1  O   UNL     1      33.029 -10.230 -22.901  0.00  0.00    -0.466 OA
ATOM      2  N   UNL     1      32.255 -12.714 -21.529  0.00  0.00    -0.290 N 
ATOM      3  N   UNL     1      33.478 -15.270 -22.037  0.00  0.00    -0.288 N 
ATOM      4  N   UNL     1      30.667 -11.351 -20.375  0.00  0.00    -0.230 NA
ATOM      5  N   UNL     1      30.474  -8.954 -20.805  0.00  0.00    -0.245 NA
ATOM      6  C   UNL     1      32.344 -13.727 -20.472  0.00  0.00    +0.113 C 
ATOM      7  C   UNL     1      32.804 -13.034 -22.851  0.00  0.00    +0.113 C 
ATOM      8  C   UNL     1      33.528 -14.661 -20.716  0.00  0.00    +0.114 C 
ATOM      9  C   UNL     1      32.790 -14.542 -23.092  0.00  0.00    +0.114 C 
ATOM     10  C   UNL     1      31.659 -11.478 -21.284  0.00  0.00    +0.152 C 
ATOM     11  C   UNL     1      32.062 -10.343 -21.955  0.00  0.00    +0.258 C 
ATOM     12  C   UNL     1      31.471  -9.111 -21.710  0.00  0.00    +0.106 C 
ATOM     13  C   UNL     1      32.118  -8.179 -22.562  0.00  0.00    +0.051 C 
ATOM     14  C   UNL     1      33.066  -8.916 -23.272  0.00  0.00    +0.141 C 
ATOM     15  C   UNL     1      30.143 -10.115 -20.194  0.00  0.00    +0.251 C 
ATOM     16  C   UNL     1      32.012  -6.801 -22.814  0.00  0.00    +0.004 C 
ATOM     17  C   UNL     1      33.923  -8.368 -24.224  0.00  0.00    +0.037 C 
ATOM     18  C   UNL     1      32.862  -6.224 -23.768  0.00  0.00    +0.000 C 
ATOM     19  C   UNL     1      33.799  -6.996 -24.459  0.00  0.00    +0.003 C 
ENDROOT
BRANCH   3  21
ATOM     20  S   UNL     1      34.038 -17.155 -23.804  0.00  0.00    -0.019 S 
ATOM     21  C   UNL     1      34.053 -16.476 -22.275  0.00  0.00    +0.135 C 
BRANCH  21  22
ATOM     22  N   UNL     1      34.650 -17.117 -21.219  0.00  0.00    -0.312 N 
ATOM     23  H   UNL     1      34.758 -16.603 -20.387  0.00  0.00    +0.149 HD
BRANCH  22  24
ATOM     24  C   UNL     1      35.133 -18.484 -21.214  0.00  0.00    +0.116 C 
BRANCH  24  27
ATOM     25  O   UNL     1      34.328 -22.057 -17.903  0.00  0.00    -0.435 OA
ATOM     26  O   UNL     1      31.937 -21.921 -18.166  0.00  0.00    -0.435 OA
ATOM     27  C   UNL     1      34.247 -19.391 -20.411  0.00  0.00    +0.001 C 
ATOM     28  C   UNL     1      34.818 -20.300 -19.526  0.00  0.00    +0.038 C 
ATOM     29  C   UNL     1      32.856 -19.306 -20.569  0.00  0.00    +0.001 C 
ATOM     30  C   UNL     1      33.962 -21.112 -18.810  0.00  0.00    +0.176 C 
ATOM     31  C   UNL     1      32.596 -21.034 -18.960  0.00  0.00    +0.176 C 
ATOM     32  C   UNL     1      32.011 -20.139 -19.834  0.00  0.00    +0.040 C 
ATOM     33  C   UNL     1      33.041 -22.565 -17.498  0.00  0.00    +0.429 C 
ENDBRANCH  24  27
ENDBRANCH  22  24
ENDBRANCH  21  22
ENDBRANCH   3  21
TORSDOF 4
ENDMDL
MODEL 2
REMARK VINA RESULT:     -12.4      0.656      1.237
REMARK  Name = 11282283
REMARK  4 active torsions:
REMARK  status: ('A' for Active; 'I' for Inactive)
REMARK    1  A    between atoms: N_3  and  C_21
REMARK    2  A    between atoms: C_21  and  N_22
REMARK    3  A    between atoms: N_22  and  C_24
REMARK    4  A    between atoms: C_24  and  C_27
REMARK                            x       y       z     vdW  Elec       q    Type
REMARK                         _______ _______ _______ _____ _____    ______ ____
ROOT
ATOM      1  O   UNL     1      33.016  -9.848 -22.903  0.00  0.00    -0.466 OA
ATOM      2  N   UNL     1      32.178 -12.362 -21.626  0.00  0.00    -0.290 N 
ATOM      3  N   UNL     1      33.336 -14.927 -22.231  0.00  0.00    -0.288 N 
ATOM      4  N   UNL     1      30.624 -11.003 -20.421  0.00  0.00    -0.230 NA
ATOM      5  N   UNL     1      30.493  -8.588 -20.758  0.00  0.00    -0.245 NA
ATOM      6  C   UNL     1      32.241 -13.416 -20.608  0.00  0.00    +0.113 C 
ATOM      7  C   UNL     1      32.720 -12.645 -22.959  0.00  0.00    +0.113 C 
ATOM      8  C   UNL     1      33.401 -14.370 -20.888  0.00  0.00    +0.114 C 
ATOM      9  C   UNL     1      32.667 -14.142 -23.257  0.00  0.00    +0.114 C 
ATOM     10  C   UNL     1      31.614 -11.121 -21.334  0.00  0.00    +0.152 C 
ATOM     11  C   UNL     1      32.046  -9.972 -21.961  0.00  0.00    +0.258 C 
ATOM     12  C   UNL     1      31.486  -8.736 -21.669  0.00  0.00    +0.106 C 
ATOM     13  C   UNL     1      32.157  -7.789 -22.485  0.00  0.00    +0.051 C 
ATOM     14  C   UNL     1      33.086  -8.522 -23.223  0.00  0.00    +0.141 C 
ATOM     15  C   UNL     1      30.132  -9.762 -20.193  0.00  0.00    +0.251 C 
ATOM     16  C   UNL     1      32.087  -6.400 -22.685  0.00  0.00    +0.004 C 
ATOM     17  C   UNL     1      33.958  -7.960 -24.155  0.00  0.00    +0.037 C 
ATOM     18  C   UNL     1      32.951  -5.808 -23.616  0.00  0.00    +0.000 C 
ATOM     19  C   UNL     1      33.869  -6.577 -24.337  0.00  0.00    +0.003 C 
ENDROOT
BRANCH   3  21
ATOM     20  S   UNL     1      33.794 -16.785 -24.055  0.00  0.00    -0.019 S 
ATOM     21  C   UNL     1      33.880 -16.137 -22.515  0.00  0.00    +0.135 C 
BRANCH  21  22
ATOM     22  N   UNL     1      34.507 -16.809 -21.496  0.00  0.00    -0.312 N 
ATOM     23  H   UNL     1      34.420 -16.431 -20.592  0.00  0.00    +0.149 HD
BRANCH  22  24
ATOM     24  C   UNL     1      35.283 -18.026 -21.628  0.00  0.00    +0.116 C 
BRANCH  24  27
ATOM     25  O   UNL     1      31.902 -20.695 -19.215  0.00  0.00    -0.435 OA
ATOM     26  O   UNL     1      33.575 -21.902 -17.969  0.00  0.00    -0.435 OA
ATOM     27  C   UNL     1      34.860 -19.073 -20.639  0.00  0.00    +0.001 C 
ATOM     28  C   UNL     1      33.505 -19.332 -20.453  0.00  0.00    +0.038 C 
ATOM     29  C   UNL     1      35.838 -19.771 -19.918  0.00  0.00    +0.001 C 
ATOM     30  C   UNL     1      33.165 -20.303 -19.534  0.00  0.00    +0.176 C 
ATOM     31  C   UNL     1      34.121 -20.993 -18.822  0.00  0.00    +0.176 C 
ATOM     32  C   UNL     1      35.469 -20.749 -18.992  0.00  0.00    +0.040 C 
ATOM     33  C   UNL     1      32.169 -21.708 -18.224  0.00  0.00    +0.429 C 
ENDBRANCH  24  27
ENDBRANCH  22  24
ENDBRANCH  21  22
ENDBRANCH   3  21
TORSDOF 4
ENDMDL
MODEL 3
REMARK VINA RESULT:     -12.0      1.786      2.872
REMARK  Name = 11282283
REMARK  4 active torsions:
REMARK  status: ('A' for Active; 'I' for Inactive)
REMARK    1  A    between atoms: N_3  and  C_21
REMARK    2  A    between atoms: C_21  and  N_22
REMARK    3  A    between atoms: N_22  and  C_24
REMARK    4  A    between atoms: C_24  and  C_27
REMARK                            x       y       z     vdW  Elec       q    Type
REMARK                         _______ _______ _______ _____ _____    ______ ____
ROOT
ATOM      1  O   UNL     1      31.908 -11.634 -21.076  0.00  0.00    -0.466 OA
ATOM      2  N   UNL     1      33.177 -13.359 -23.094  0.00  0.00    -0.290 N 
ATOM      3  N   UNL     1      33.656 -16.173 -22.720  0.00  0.00    -0.288 N 
ATOM      4  N   UNL     1      33.308 -11.376 -24.422  0.00  0.00    -0.230 NA
ATOM      5  N   UNL     1      32.468  -9.229 -23.617  0.00  0.00    -0.245 NA
ATOM      6  C   UNL     1      33.183 -14.278 -24.237  0.00  0.00    +0.113 C 
ATOM      7  C   UNL     1      33.421 -13.907 -21.755  0.00  0.00    +0.113 C 
ATOM      8  C   UNL     1      32.804 -15.690 -23.796  0.00  0.00    +0.114 C 
ATOM      9  C   UNL     1      34.256 -15.183 -21.838  0.00  0.00    +0.114 C 
ATOM     10  C   UNL     1      32.949 -11.996 -23.275  0.00  0.00    +0.152 C 
ATOM     11  C   UNL     1      32.348 -11.232 -22.296  0.00  0.00    +0.258 C 
ATOM     12  C   UNL     1      32.119  -9.876 -22.478  0.00  0.00    +0.106 C 
ATOM     13  C   UNL     1      31.496  -9.412 -21.290  0.00  0.00    +0.051 C 
ATOM     14  C   UNL     1      31.389 -10.530 -20.463  0.00  0.00    +0.141 C 
ATOM     15  C   UNL     1      33.049 -10.050 -24.520  0.00  0.00    +0.251 C 
ATOM     16  C   UNL     1      31.011  -8.180 -20.820  0.00  0.00    +0.004 C 
ATOM     17  C   UNL     1      30.827 -10.503 -19.187  0.00  0.00    +0.037 C 
ATOM     18  C   UNL     1      30.441  -8.124 -19.541  0.00  0.00    +0.000 C 
ATOM     19  C   UNL     1      30.352  -9.266 -18.741  0.00  0.00    +0.003 C 
ENDROOT
BRANCH   3  21
ATOM     20  S   UNL     1      33.434 -18.614 -23.710  0.00  0.00    -0.019 S 
ATOM     21  C   UNL     1      33.882 -17.499 -22.545  0.00  0.00    +0.135 C 
BRANCH  21  22
ATOM     22  N   UNL     1      34.493 -17.894 -21.382  0.00  0.00    -0.312 N 
ATOM     23  H   UNL     1      34.600 -17.212 -20.680  0.00  0.00    +0.149 HD
BRANCH  22  24
ATOM     24  C   UNL     1      34.993 -19.223 -21.090  0.00  0.00    +0.116 C 
BRANCH  24  27
ATOM     25  O   UNL     1      34.103 -22.409 -17.425  0.00  0.00    -0.435 OA
ATOM     26  O   UNL     1      31.720 -22.078 -17.560  0.00  0.00    -0.435 OA
ATOM     27  C   UNL     1      34.086 -19.973 -20.158  0.00  0.00    +0.001 C 
ATOM     28  C   UNL     1      34.634 -20.850 -19.227  0.00  0.00    +0.038 C 
ATOM     29  C   UNL     1      32.701 -19.775 -20.243  0.00  0.00    +0.001 C 
ATOM     30  C   UNL     1      33.760 -21.515 -18.392  0.00  0.00    +0.176 C 
ATOM     31  C   UNL     1      32.399 -21.326 -18.469  0.00  0.00    +0.176 C 
ATOM     32  C   UNL     1      31.837 -20.461 -19.386  0.00  0.00    +0.040 C 
ATOM     33  C   UNL     1      32.806 -22.760 -16.901  0.00  0.00    +0.429 C 
ENDBRANCH  24  27
ENDBRANCH  22  24
ENDBRANCH  21  22
ENDBRANCH   3  21
TORSDOF 4
ENDMDL
MODEL 4
REMARK VINA RESULT:     -11.4      1.146      1.694
REMARK  Name = 11282283
REMARK  4 active torsions:
REMARK  status: ('A' for Active; 'I' for Inactive)
REMARK    1  A    between atoms: N_3  and  C_21
REMARK    2  A    between atoms: C_21  and  N_22
REMARK    3  A    between atoms: N_22  and  C_24
REMARK    4  A    between atoms: C_24  and  C_27
REMARK                            x       y       z     vdW  Elec       q    Type
REMARK                         _______ _______ _______ _____ _____    ______ ____
ROOT
ATOM      1  O   UNL     1      32.315  -9.412 -21.954  0.00  0.00    -0.466 OA
ATOM      2  N   UNL     1      31.901 -12.137 -20.924  0.00  0.00    -0.290 N 
ATOM      3  N   UNL     1      33.131 -14.480 -22.058  0.00  0.00    -0.288 N 
ATOM      4  N   UNL     1      30.476 -11.099 -19.310  0.00  0.00    -0.230 NA
ATOM      5  N   UNL     1      30.106  -8.685 -19.282  0.00  0.00    -0.245 NA
ATOM      6  C   UNL     1      32.216 -13.299 -20.087  0.00  0.00    +0.113 C 
ATOM      7  C   UNL     1      32.227 -12.196 -22.353  0.00  0.00    +0.113 C 
ATOM      8  C   UNL     1      33.380 -14.091 -20.678  0.00  0.00    +0.114 C 
ATOM      9  C   UNL     1      32.239 -13.642 -22.845  0.00  0.00    +0.114 C 
ATOM     10  C   UNL     1      31.302 -11.004 -20.376  0.00  0.00    +0.152 C 
ATOM     11  C   UNL     1      31.532  -9.748 -20.897  0.00  0.00    +0.258 C 
ATOM     12  C   UNL     1      30.937  -8.619 -20.351  0.00  0.00    +0.106 C 
ATOM     13  C   UNL     1      31.386  -7.516 -21.122  0.00  0.00    +0.051 C 
ATOM     14  C   UNL     1      32.229  -8.056 -22.093  0.00  0.00    +0.141 C 
ATOM     15  C   UNL     1      29.936  -9.950 -18.836  0.00  0.00    +0.251 C 
ATOM     16  C   UNL     1      31.177  -6.127 -21.112  0.00  0.00    +0.004 C 
ATOM     17  C   UNL     1      32.884  -7.299 -23.063  0.00  0.00    +0.037 C 
ATOM     18  C   UNL     1      31.822  -5.341 -22.077  0.00  0.00    +0.000 C 
ATOM     19  C   UNL     1      32.660  -5.920 -23.034  0.00  0.00    +0.003 C 
ENDROOT
BRANCH   3  21
ATOM     20  S   UNL     1      33.803 -15.799 -24.248  0.00  0.00    -0.019 S 
ATOM     21  C   UNL     1      33.710 -15.585 -22.591  0.00  0.00    +0.135 C 
BRANCH  21  22
ATOM     22  N   UNL     1      34.218 -16.519 -21.724  0.00  0.00    -0.312 N 
ATOM     23  H   UNL     1      34.201 -16.296 -20.766  0.00  0.00    +0.149 HD
BRANCH  22  24
ATOM     24  C   UNL     1      34.777 -17.806 -22.089  0.00  0.00    +0.116 C 
BRANCH  24  27
ATOM     25  O   UNL     1      31.917 -20.690 -19.283  0.00  0.00    -0.435 OA
ATOM     26  O   UNL     1      33.807 -21.646 -18.135  0.00  0.00    -0.435 OA
ATOM     27  C   UNL     1      34.553 -18.839 -21.023  0.00  0.00    +0.001 C 
ATOM     28  C   UNL     1      33.255 -19.231 -20.712  0.00  0.00    +0.038 C 
ATOM     29  C   UNL     1      35.658 -19.391 -20.360  0.00  0.00    +0.001 C 
ATOM     30  C   UNL     1      33.099 -20.183 -19.726  0.00  0.00    +0.176 C 
ATOM     31  C   UNL     1      34.179 -20.730 -19.070  0.00  0.00    +0.176 C 
ATOM     32  C   UNL     1      35.474 -20.353 -19.365  0.00  0.00    +0.040 C 
ATOM     33  C   UNL     1      32.372 -21.616 -18.276  0.00  0.00    +0.429 C 
ENDBRANCH  24  27
ENDBRANCH  22  24
ENDBRANCH  21  22
ENDBRANCH   3  21
TORSDOF 4
ENDMDL
MODEL 5
REMARK VINA RESULT:     -11.2      2.145      3.566
REMARK  Name = 11282283
REMARK  4 active torsions:
REMARK  status: ('A' for Active; 'I' for Inactive)
REMARK    1  A    between atoms: N_3  and  C_21
REMARK    2  A    between atoms: C_21  and  N_22
REMARK    3  A    between atoms: N_22  and  C_24
REMARK    4  A    between atoms: C_24  and  C_27
REMARK                            x       y       z     vdW  Elec       q    Type
REMARK                         _______ _______ _______ _____ _____    ______ ____
ROOT
ATOM      1  O   UNL     1      31.914  -9.482 -21.543  0.00  0.00    -0.466 OA
ATOM      2  N   UNL     1      33.050 -11.015 -23.783  0.00  0.00    -0.290 N 
ATOM      3  N   UNL     1      32.891 -13.881 -24.003  0.00  0.00    -0.288 N 
ATOM      4  N   UNL     1      33.750  -8.891 -24.625  0.00  0.00    -0.230 NA
ATOM      5  N   UNL     1      33.271  -6.813 -23.435  0.00  0.00    -0.245 NA
ATOM      6  C   UNL     1      33.012 -11.666 -25.097  0.00  0.00    +0.113 C 
ATOM      7  C   UNL     1      33.004 -11.859 -22.583  0.00  0.00    +0.113 C 
ATOM      8  C   UNL     1      32.300 -13.015 -25.011  0.00  0.00    +0.114 C 
ATOM      9  C   UNL     1      33.564 -13.249 -22.878  0.00  0.00    +0.114 C 
ATOM     10  C   UNL     1      33.129  -9.628 -23.677  0.00  0.00    +0.152 C 
ATOM     11  C   UNL     1      32.578  -8.958 -22.605  0.00  0.00    +0.258 C 
ATOM     12  C   UNL     1      32.655  -7.576 -22.499  0.00  0.00    +0.106 C 
ATOM     13  C   UNL     1      31.994  -7.228 -21.293  0.00  0.00    +0.051 C 
ATOM     14  C   UNL     1      31.557  -8.434 -20.745  0.00  0.00    +0.141 C 
ATOM     15  C   UNL     1      33.782  -7.548 -24.448  0.00  0.00    +0.251 C 
ATOM     16  C   UNL     1      31.716  -6.036 -20.603  0.00  0.00    +0.004 C 
ATOM     17  C   UNL     1      30.855  -8.533 -19.544  0.00  0.00    +0.037 C 
ATOM     18  C   UNL     1      31.011  -6.107 -19.394  0.00  0.00    +0.000 C 
ATOM     19  C   UNL     1      30.590  -7.334 -18.876  0.00  0.00    +0.003 C 
ENDROOT
BRANCH   3  21
ATOM     20  S   UNL     1      31.827 -15.959 -25.243  0.00  0.00    -0.019 S 
ATOM     21  C   UNL     1      32.818 -15.232 -24.108  0.00  0.00    +0.135 C 
BRANCH  21  22
ATOM     22  N   UNL     1      33.586 -15.981 -23.253  0.00  0.00    -0.312 N 
ATOM     23  H   UNL     1      33.734 -15.617 -22.351  0.00  0.00    +0.149 HD
BRANCH  22  24
ATOM     24  C   UNL     1      34.199 -17.260 -23.555  0.00  0.00    +0.116 C 
BRANCH  24  27
ATOM     25  O   UNL     1      32.775 -20.363 -19.989  0.00  0.00    -0.435 OA
ATOM     26  O   UNL     1      34.947 -20.345 -18.946  0.00  0.00    -0.435 OA
ATOM     27  C   UNL     1      34.434 -18.076 -22.317  0.00  0.00    +0.001 C 
ATOM     28  C   UNL     1      33.394 -18.833 -21.788  0.00  0.00    +0.038 C 
ATOM     29  C   UNL     1      35.700 -18.060 -21.716  0.00  0.00    +0.001 C 
ATOM     30  C   UNL     1      33.659 -19.567 -20.650  0.00  0.00    +0.176 C 
ATOM     31  C   UNL     1      34.899 -19.557 -20.055  0.00  0.00    +0.176 C 
ATOM     32  C   UNL     1      35.943 -18.812 -20.565  0.00  0.00    +0.040 C 
ATOM     33  C   UNL     1      33.599 -20.853 -18.911  0.00  0.00    +0.429 C 
ENDBRANCH  24  27
ENDBRANCH  22  24
ENDBRANCH  21  22
ENDBRANCH   3  21
TORSDOF 4
ENDMDL
MODEL 6
REMARK VINA RESULT:     -11.2      3.587     11.040
REMARK  Name = 11282283
REMARK  4 active torsions:
REMARK  status: ('A' for Active; 'I' for Inactive)
REMARK    1  A    between atoms: N_3  and  C_21
REMARK    2  A    between atoms: C_21  and  N_22
REMARK    3  A    between atoms: N_22  and  C_24
REMARK    4  A    between atoms: C_24  and  C_27
REMARK                            x       y       z     vdW  Elec       q    Type
REMARK                         _______ _______ _______ _____ _____    ______ ____
ROOT
ATOM      1  O   UNL     1      33.382 -14.848 -21.611  0.00  0.00    -0.466 OA
ATOM      2  N   UNL     1      32.110 -12.375 -22.572  0.00  0.00    -0.290 N 
ATOM      3  N   UNL     1      31.354 -10.194 -20.853  0.00  0.00    -0.288 N 
ATOM      4  N   UNL     1      32.255 -13.374 -24.738  0.00  0.00    -0.230 NA
ATOM      5  N   UNL     1      33.226 -15.590 -25.072  0.00  0.00    -0.245 NA
ATOM      6  C   UNL     1      32.104 -10.995 -23.069  0.00  0.00    +0.113 C 
ATOM      7  C   UNL     1      31.723 -12.618 -21.178  0.00  0.00    +0.113 C 
ATOM      8  C   UNL     1      32.321 -10.007 -21.924  0.00  0.00    +0.114 C 
ATOM      9  C   UNL     1      30.784 -11.521 -20.679  0.00  0.00    +0.114 C 
ATOM     10  C   UNL     1      32.473 -13.431 -23.405  0.00  0.00    +0.152 C 
ATOM     11  C   UNL     1      33.069 -14.569 -22.903  0.00  0.00    +0.258 C 
ATOM     12  C   UNL     1      33.432 -15.621 -23.732  0.00  0.00    +0.106 C 
ATOM     13  C   UNL     1      34.008 -16.611 -22.896  0.00  0.00    +0.051 C 
ATOM     14  C   UNL     1      33.953 -16.088 -21.604  0.00  0.00    +0.141 C 
ATOM     15  C   UNL     1      32.639 -14.442 -25.478  0.00  0.00    +0.251 C 
ATOM     16  C   UNL     1      34.567 -17.887 -23.080  0.00  0.00    +0.004 C 
ATOM     17  C   UNL     1      34.423 -16.756 -20.474  0.00  0.00    +0.037 C 
ATOM     18  C   UNL     1      35.047 -18.581 -21.961  0.00  0.00    +0.000 C 
ATOM     19  C   UNL     1      34.975 -18.023 -20.682  0.00  0.00    +0.003 C 
ENDROOT
BRANCH   3  21
ATOM     20  S   UNL     1      30.572  -9.426 -18.446  0.00  0.00    -0.019 S 
ATOM     21  C   UNL     1      30.996  -9.164 -20.044  0.00  0.00    +0.135 C 
BRANCH  21  22
ATOM     22  N   UNL     1      30.997  -7.902 -20.580  0.00  0.00    -0.312 N 
ATOM     23  H   UNL     1      30.243  -7.665 -21.166  0.00  0.00    +0.149 HD
BRANCH  22  24
ATOM     24  C   UNL     1      32.007  -6.884 -20.363  0.00  0.00    +0.116 C 
BRANCH  24  27
ATOM     25  O   UNL     1      31.695  -3.829 -24.229  0.00  0.00    -0.435 OA
ATOM     26  O   UNL     1      33.755  -4.637 -25.182  0.00  0.00    -0.435 OA
ATOM     27  C   UNL     1      32.505  -6.303 -21.655  0.00  0.00    +0.001 C 
ATOM     28  C   UNL     1      31.769  -5.304 -22.286  0.00  0.00    +0.038 C 
ATOM     29  C   UNL     1      33.705  -6.778 -22.203  0.00  0.00    +0.001 C 
ATOM     30  C   UNL     1      32.268  -4.801 -23.470  0.00  0.00    +0.176 C 
ATOM     31  C   UNL     1      33.445  -5.262 -24.014  0.00  0.00    +0.176 C 
ATOM     32  C   UNL     1      34.188  -6.252 -23.403  0.00  0.00    +0.040 C 
ATOM     33  C   UNL     1      32.643  -3.729 -25.312  0.00  0.00    +0.429 C 
ENDBRANCH  24  27
ENDBRANCH  22  24
ENDBRANCH  21  22
ENDBRANCH   3  21
TORSDOF 4
ENDMDL
MODEL 7
REMARK VINA RESULT:     -10.9      3.992     11.286
REMARK  Name = 11282283
REMARK  4 active torsions:
REMARK  status: ('A' for Active; 'I' for Inactive)
REMARK    1  A    between atoms: N_3  and  C_21
REMARK    2  A    between atoms: C_21  and  N_22
REMARK    3  A    between atoms: N_22  and  C_24
REMARK    4  A    between atoms: C_24  and  C_27
REMARK                            x       y       z     vdW  Elec       q    Type
REMARK                         _______ _______ _______ _____ _____    ______ ____
ROOT
ATOM      1  O   UNL     1      33.409 -13.746 -22.048  0.00  0.00    -0.466 OA
ATOM      2  N   UNL     1      32.663 -11.237 -23.391  0.00  0.00    -0.290 N 
ATOM      3  N   UNL     1      32.422  -8.708 -22.036  0.00  0.00    -0.288 N 
ATOM      4  N   UNL     1      32.545 -12.563 -25.375  0.00  0.00    -0.230 NA
ATOM      5  N   UNL     1      33.021 -14.958 -25.354  0.00  0.00    -0.245 NA
ATOM      6  C   UNL     1      32.935  -9.979 -24.094  0.00  0.00    +0.113 C 
ATOM      7  C   UNL     1      32.266 -11.176 -21.980  0.00  0.00    +0.113 C 
ATOM      8  C   UNL     1      33.382  -8.896 -23.114  0.00  0.00    +0.114 C 
ATOM      9  C   UNL     1      31.590  -9.843 -21.666  0.00  0.00    +0.114 C 
ATOM     10  C   UNL     1      32.777 -12.461 -24.047  0.00  0.00    +0.152 C 
ATOM     11  C   UNL     1      33.132 -13.608 -23.370  0.00  0.00    +0.258 C 
ATOM     12  C   UNL     1      33.247 -14.827 -24.024  0.00  0.00    +0.106 C 
ATOM     13  C   UNL     1      33.621 -15.777 -23.039  0.00  0.00    +0.051 C 
ATOM     14  C   UNL     1      33.707 -15.063 -21.844  0.00  0.00    +0.141 C 
ATOM     15  C   UNL     1      32.679 -13.788 -25.938  0.00  0.00    +0.251 C 
ATOM     16  C   UNL     1      33.895 -17.155 -23.019  0.00  0.00    +0.004 C 
ATOM     17  C   UNL     1      34.052 -15.634 -20.620  0.00  0.00    +0.037 C 
ATOM     18  C   UNL     1      34.244 -17.755 -21.801  0.00  0.00    +0.000 C 
ATOM     19  C   UNL     1      34.320 -17.006 -20.625  0.00  0.00    +0.003 C 
ENDROOT
BRANCH   3  21
ATOM     20  S   UNL     1      31.428  -7.372 -19.983  0.00  0.00    -0.019 S 
ATOM     21  C   UNL     1      32.308  -7.516 -21.399  0.00  0.00    +0.135 C 
BRANCH  21  22
ATOM     22  N   UNL     1      32.941  -6.433 -21.955  0.00  0.00    -0.312 N 
ATOM     23  H   UNL     1      33.918  -6.382 -21.847  0.00  0.00    +0.149 HD
BRANCH  22  24
ATOM     24  C   UNL     1      32.304  -5.356 -22.688  0.00  0.00    +0.116 C 
BRANCH  24  27
ATOM     25  O   UNL     1      31.024  -5.994 -27.414  0.00  0.00    -0.435 OA
ATOM     26  O   UNL     1      33.277  -5.643 -28.192  0.00  0.00    -0.435 OA
ATOM     27  C   UNL     1      32.600  -5.426 -24.158  0.00  0.00    +0.001 C 
ATOM     28  C   UNL     1      31.568  -5.693 -25.053  0.00  0.00    +0.038 C 
ATOM     29  C   UNL     1      33.913  -5.220 -24.603  0.00  0.00    +0.001 C 
ATOM     30  C   UNL     1      31.889  -5.746 -26.394  0.00  0.00    +0.176 C 
ATOM     31  C   UNL     1      33.176  -5.545 -26.838  0.00  0.00    +0.176 C 
ATOM     32  C   UNL     1      34.212  -5.279 -25.966  0.00  0.00    +0.040 C 
ATOM     33  C   UNL     1      31.909  -5.926 -28.550  0.00  0.00    +0.429 C 
ENDBRANCH  24  27
ENDBRANCH  22  24
ENDBRANCH  21  22
ENDBRANCH   3  21
TORSDOF 4
ENDMDL
MODEL 8
REMARK VINA RESULT:     -10.7      4.848     12.310
REMARK  Name = 11282283
REMARK  4 active torsions:
REMARK  status: ('A' for Active; 'I' for Inactive)
REMARK    1  A    between atoms: N_3  and  C_21
REMARK    2  A    between atoms: C_21  and  N_22
REMARK    3  A    between atoms: N_22  and  C_24
REMARK    4  A    between atoms: C_24  and  C_27
REMARK                            x       y       z     vdW  Elec       q    Type
REMARK                         _______ _______ _______ _____ _____    ______ ____
ROOT
ATOM      1  O   UNL     1      32.207 -22.574 -15.553  0.00  0.00    -0.466 OA
ATOM      2  N   UNL     1      34.775 -22.007 -16.873  0.00  0.00    -0.290 N 
ATOM      3  N   UNL     1      35.047 -20.313 -19.184  0.00  0.00    -0.288 N 
ATOM      4  N   UNL     1      35.723 -23.429 -15.202  0.00  0.00    -0.230 NA
ATOM      5  N   UNL     1      34.350 -24.491 -13.484  0.00  0.00    -0.245 NA
ATOM      6  C   UNL     1      36.006 -21.244 -17.104  0.00  0.00    +0.113 C 
ATOM      7  C   UNL     1      33.685 -21.887 -17.847  0.00  0.00    +0.113 C 
ATOM      8  C   UNL     1      35.720 -19.995 -17.934  0.00  0.00    +0.114 C 
ATOM      9  C   UNL     1      34.230 -21.517 -19.225  0.00  0.00    +0.114 C 
ATOM     10  C   UNL     1      34.645 -22.830 -15.755  0.00  0.00    +0.152 C 
ATOM     11  C   UNL     1      33.416 -23.061 -15.174  0.00  0.00    +0.258 C 
ATOM     12  C   UNL     1      33.286 -23.879 -14.060  0.00  0.00    +0.106 C 
ATOM     13  C   UNL     1      31.906 -23.895 -13.733  0.00  0.00    +0.051 C 
ATOM     14  C   UNL     1      31.288 -23.078 -14.679  0.00  0.00    +0.141 C 
ATOM     15  C   UNL     1      35.512 -24.211 -14.116  0.00  0.00    +0.251 C 
ATOM     16  C   UNL     1      31.110 -24.503 -12.748  0.00  0.00    +0.004 C 
ATOM     17  C   UNL     1      29.917 -22.824 -14.711  0.00  0.00    +0.037 C 
ATOM     18  C   UNL     1      29.728 -24.266 -12.757  0.00  0.00    +0.000 C 
ATOM     19  C   UNL     1      29.146 -23.440 -13.722  0.00  0.00    +0.003 C 
ENDROOT
BRANCH   3  21
ATOM     20  S   UNL     1      36.609 -18.709 -20.590  0.00  0.00    -0.019 S 
ATOM     21  C   UNL     1      35.177 -19.515 -20.274  0.00  0.00    +0.135 C 
BRANCH  21  22
ATOM     22  N   UNL     1      34.094 -19.393 -21.108  0.00  0.00    -0.312 N 
ATOM     23  H   UNL     1      33.204 -19.515 -20.705  0.00  0.00    +0.149 HD
BRANCH  22  24
ATOM     24  C   UNL     1      34.139 -19.100 -22.527  0.00  0.00    +0.116 C 
BRANCH  24  27
ATOM     25  O   UNL     1      32.615 -15.379 -25.392  0.00  0.00    -0.435 OA
ATOM     26  O   UNL     1      33.097 -13.728 -23.704  0.00  0.00    -0.435 OA
ATOM     27  C   UNL     1      33.871 -17.650 -22.809  0.00  0.00    +0.001 C 
ATOM     28  C   UNL     1      33.348 -17.278 -24.044  0.00  0.00    +0.038 C 
ATOM     29  C   UNL     1      34.154 -16.696 -21.822  0.00  0.00    +0.001 C 
ATOM     30  C   UNL     1      33.118 -15.934 -24.256  0.00  0.00    +0.176 C 
ATOM     31  C   UNL     1      33.394 -14.991 -23.292  0.00  0.00    +0.176 C 
ATOM     32  C   UNL     1      33.914 -15.341 -22.062  0.00  0.00    +0.040 C 
ATOM     33  C   UNL     1      32.604 -13.982 -25.035  0.00  0.00    +0.429 C 
ENDBRANCH  24  27
ENDBRANCH  22  24
ENDBRANCH  21  22
ENDBRANCH   3  21
TORSDOF 4
ENDMDL
MODEL 9
REMARK VINA RESULT:     -10.0      8.227     13.909
REMARK  Name = 11282283
REMARK  4 active torsions:
REMARK  status: ('A' for Active; 'I' for Inactive)
REMARK    1  A    between atoms: N_3  and  C_21
REMARK    2  A    between atoms: C_21  and  N_22
REMARK    3  A    between atoms: N_22  and  C_24
REMARK    4  A    between atoms: C_24  and  C_27
REMARK                            x       y       z     vdW  Elec       q    Type
REMARK                         _______ _______ _______ _____ _____    ______ ____
ROOT
ATOM      1  O   UNL     1      36.108 -24.434 -13.820  0.00  0.00    -0.466 OA
ATOM      2  N   UNL     1      33.376 -23.608 -13.104  0.00  0.00    -0.290 N 
ATOM      3  N   UNL     1      31.382 -22.833 -15.031  0.00  0.00    -0.288 N 
ATOM      4  N   UNL     1      34.065 -23.981 -10.847  0.00  0.00    -0.230 NA
ATOM      5  N   UNL     1      36.319 -24.744 -10.298  0.00  0.00    -0.245 NA
ATOM      6  C   UNL     1      31.951 -23.831 -12.840  0.00  0.00    +0.113 C 
ATOM      7  C   UNL     1      33.762 -22.981 -14.374  0.00  0.00    +0.113 C 
ATOM      8  C   UNL     1      31.175 -23.972 -14.149  0.00  0.00    +0.114 C 
ATOM      9  C   UNL     1      32.634 -22.101 -14.907  0.00  0.00    +0.114 C 
ATOM     10  C   UNL     1      34.341 -23.980 -12.170  0.00  0.00    +0.152 C 
ATOM     11  C   UNL     1      35.608 -24.361 -12.560  0.00  0.00    +0.258 C 
ATOM     12  C   UNL     1      36.568 -24.733 -11.630  0.00  0.00    +0.106 C 
ATOM     13  C   UNL     1      37.736 -25.057 -12.368  0.00  0.00    +0.051 C 
ATOM     14  C   UNL     1      37.401 -24.858 -13.707  0.00  0.00    +0.141 C 
ATOM     15  C   UNL     1      35.057 -24.358 -10.004  0.00  0.00    +0.251 C 
ATOM     16  C   UNL     1      39.035 -25.496 -12.059  0.00  0.00    +0.004 C 
ATOM     17  C   UNL     1      38.279 -25.067 -14.768  0.00  0.00    +0.037 C 
ATOM     18  C   UNL     1      39.939 -25.714 -13.107  0.00  0.00    +0.000 C 
ATOM     19  C   UNL     1      39.566 -25.503 -14.437  0.00  0.00    +0.003 C 
ENDROOT
BRANCH   3  21
ATOM     20  S   UNL     1      28.815 -22.473 -15.546  0.00  0.00    -0.019 S 
ATOM     21  C   UNL     1      30.441 -22.468 -15.938  0.00  0.00    +0.135 C 
BRANCH  21  22
ATOM     22  N   UNL     1      30.870 -22.093 -17.186  0.00  0.00    -0.312 N 
ATOM     23  H   UNL     1      30.293 -21.476 -17.690  0.00  0.00    +0.149 HD
BRANCH  22  24
ATOM     24  C   UNL     1      32.097 -22.520 -17.830  0.00  0.00    +0.116 C 
BRANCH  24  27
ATOM     25  O   UNL     1      35.890 -19.868 -19.551  0.00  0.00    -0.435 OA
ATOM     26  O   UNL     1      34.460 -18.495 -20.919  0.00  0.00    -0.435 OA
ATOM     27  C   UNL     1      32.698 -21.431 -18.671  0.00  0.00    +0.001 C 
ATOM     28  C   UNL     1      34.074 -21.229 -18.650  0.00  0.00    +0.038 C 
ATOM     29  C   UNL     1      31.859 -20.636 -19.465  0.00  0.00    +0.001 C 
ATOM     30  C   UNL     1      34.580 -20.217 -19.440  0.00  0.00    +0.176 C 
ATOM     31  C   UNL     1      33.763 -19.433 -20.222  0.00  0.00    +0.176 C 
ATOM     32  C   UNL     1      32.395 -19.618 -20.256  0.00  0.00    +0.040 C 
ATOM     33  C   UNL     1      35.807 -18.777 -20.490  0.00  0.00    +0.429 C 
ENDBRANCH  24  27
ENDBRANCH  22  24
ENDBRANCH  21  22
ENDBRANCH   3  21
TORSDOF 4
ENDMDL
