MODEL 1
REMARK VINA RESULT:     -11.9      0.000      0.000
REMARK  Name = 10250490
REMARK  6 active torsions:
REMARK  status: ('A' for Active; 'I' for Inactive)
REMARK    1  A    between atoms: N_2  and  C_18
REMARK    2  A    between atoms: C_3  and  C_6
REMARK    3  A    between atoms: C_5  and  N_12
REMARK    4  A    between atoms: C_18  and  C_19
REMARK    5  A    between atoms: C_19  and  N_21
REMARK    6  A    between atoms: C_22  and  C_26
REMARK                            x       y       z     vdW  Elec       q    Type
REMARK                         _______ _______ _______ _____ _____    ______ ____
ROOT
ATOM      1  O   UNL     1      33.031 -23.365 -17.197  0.00  0.00    -0.270 OA
ATOM      2  N   UNL     1      34.754 -22.208 -16.165  0.00  0.00    -0.299 N 
ATOM      3  C   UNL     1      33.823 -22.407 -17.190  0.00  0.00    +0.246 C 
ATOM      4  H   UNL     1      35.352 -21.427 -16.223  0.00  0.00    +0.150 HD
ENDROOT
BRANCH   3   6
ATOM      5  C   UNL     1      33.841 -19.605 -20.379  0.00  0.00    +0.058 C 
ATOM      6  C   UNL     1      33.830 -21.448 -18.283  0.00  0.00    +0.053 C 
ATOM      7  C   UNL     1      35.045 -20.058 -19.840  0.00  0.00    +0.015 C 
ATOM      8  C   UNL     1      32.630 -20.076 -19.870  0.00  0.00    +0.015 C 
ATOM      9  C   UNL     1      35.040 -20.979 -18.793  0.00  0.00    +0.006 C 
ATOM     10  C   UNL     1      32.624 -20.996 -18.822  0.00  0.00    +0.006 C 
BRANCH   5  12
ATOM     11  O   UNL     1      34.457 -16.791 -20.125  0.00  0.00    -0.269 OA
ATOM     12  N   UNL     1      33.847 -18.647 -21.467  0.00  0.00    -0.233 N 
ATOM     13  C   UNL     1      34.207 -17.297 -21.219  0.00  0.00    +0.257 C 
ATOM     14  C   UNL     1      33.480 -19.037 -22.757  0.00  0.00    +0.072 C 
ATOM     15  C   UNL     1      34.234 -16.386 -22.405  0.00  0.00    +0.059 C 
ATOM     16  C   UNL     1      33.480 -18.195 -23.796  0.00  0.00    +0.017 C 
ATOM     17  C   UNL     1      33.876 -16.831 -23.612  0.00  0.00    +0.006 C 
ENDBRANCH   5  12
ENDBRANCH   3   6
BRANCH   2  18
ATOM     18  C   UNL     1      34.887 -23.086 -15.024  0.00  0.00    +0.111 C 
BRANCH  18  19
ATOM     19  C   UNL     1      33.960 -22.692 -13.886  0.00  0.00    +0.111 C 
BRANCH  19  21
ATOM     20  O   UNL     1      32.086 -24.203 -12.322  0.00  0.00    -0.270 OA
ATOM     21  N   UNL     1      32.580 -22.942 -14.205  0.00  0.00    -0.299 N 
ATOM     22  C   UNL     1      31.744 -23.689 -13.384  0.00  0.00    +0.252 C 
ATOM     23  H   UNL     1      32.213 -22.568 -15.039  0.00  0.00    +0.150 HD
BRANCH  22  26
ATOM     24 CL   UNL     1      27.052 -23.146 -16.155  0.00  0.00    -0.075 Cl
ATOM     25  S   UNL     1      29.815 -22.867 -15.103  0.00  0.00    -0.071 S 
ATOM     26  C   UNL     1      30.352 -23.877 -13.867  0.00  0.00    +0.084 C 
ATOM     27  C   UNL     1      29.460 -24.776 -13.421  0.00  0.00    +0.012 C 
ATOM     28  C   UNL     1      28.233 -24.644 -14.134  0.00  0.00    +0.019 C 
ATOM     29  C   UNL     1      28.289 -23.644 -15.079  0.00  0.00    +0.087 C 
ENDBRANCH  22  26
ENDBRANCH  19  21
ENDBRANCH  18  19
ENDBRANCH   2  18
TORSDOF 6
ENDMDL
MODEL 2
REMARK VINA RESULT:     -11.6      2.969      3.913
REMARK  Name = 10250490
REMARK  6 active torsions:
REMARK  status: ('A' for Active; 'I' for Inactive)
REMARK    1  A    between atoms: N_2  and  C_18
REMARK    2  A    between atoms: C_3  and  C_6
REMARK    3  A    between atoms: C_5  and  N_12
REMARK    4  A    between atoms: C_18  and  C_19
REMARK    5  A    between atoms: C_19  and  N_21
REMARK    6  A    between atoms: C_22  and  C_26
REMARK                            x       y       z     vdW  Elec       q    Type
REMARK                         _______ _______ _______ _____ _____    ______ ____
ROOT
ATOM      1  O   UNL     1      33.748 -22.955 -16.789  0.00  0.00    -0.270 OA
ATOM      2  N   UNL     1      31.486 -22.450 -16.813  0.00  0.00    -0.299 N 
ATOM      3  C   UNL     1      32.799 -22.321 -17.280  0.00  0.00    +0.246 C 
ATOM      4  H   UNL     1      30.781 -21.918 -17.249  0.00  0.00    +0.150 HD
ENDROOT
BRANCH   3   6
ATOM      5  C   UNL     1      33.450 -19.578 -20.454  0.00  0.00    +0.058 C 
ATOM      6  C   UNL     1      33.023 -21.382 -18.368  0.00  0.00    +0.053 C 
ATOM      7  C   UNL     1      34.534 -20.205 -19.839  0.00  0.00    +0.015 C 
ATOM      8  C   UNL     1      32.151 -19.854 -20.025  0.00  0.00    +0.015 C 
ATOM      9  C   UNL     1      34.320 -21.107 -18.797  0.00  0.00    +0.006 C 
ATOM     10  C   UNL     1      31.937 -20.755 -18.982  0.00  0.00    +0.006 C 
BRANCH   5  12
ATOM     11  O   UNL     1      34.472 -16.890 -20.153  0.00  0.00    -0.269 OA
ATOM     12  N   UNL     1      33.673 -18.640 -21.537  0.00  0.00    -0.233 N 
ATOM     13  C   UNL     1      34.219 -17.360 -21.262  0.00  0.00    +0.257 C 
ATOM     14  C   UNL     1      33.333 -18.979 -22.848  0.00  0.00    +0.072 C 
ATOM     15  C   UNL     1      34.461 -16.472 -22.442  0.00  0.00    +0.059 C 
ATOM     16  C   UNL     1      33.528 -18.154 -23.884  0.00  0.00    +0.017 C 
ATOM     17  C   UNL     1      34.117 -16.866 -23.671  0.00  0.00    +0.006 C 
ENDBRANCH   5  12
ENDBRANCH   3   6
BRANCH   2  18
ATOM     18  C   UNL     1      31.108 -23.323 -15.725  0.00  0.00    +0.111 C 
BRANCH  18  19
ATOM     19  C   UNL     1      31.287 -22.661 -14.369  0.00  0.00    +0.111 C 
BRANCH  19  21
ATOM     20  O   UNL     1      31.868 -24.510 -12.251  0.00  0.00    -0.270 OA
ATOM     21  N   UNL     1      32.579 -22.938 -13.801  0.00  0.00    -0.299 N 
ATOM     22  C   UNL     1      32.766 -23.853 -12.773  0.00  0.00    +0.252 C 
ATOM     23  H   UNL     1      33.363 -22.458 -14.156  0.00  0.00    +0.150 HD
BRANCH  22  26
ATOM     24 CL   UNL     1      38.114 -24.991 -12.479  0.00  0.00    -0.075 Cl
ATOM     25  S   UNL     1      35.297 -24.638 -13.348  0.00  0.00    -0.071 S 
ATOM     26  C   UNL     1      34.158 -24.006 -12.279  0.00  0.00    +0.084 C 
ATOM     27  C   UNL     1      34.618 -23.693 -11.057  0.00  0.00    +0.012 C 
ATOM     28  C   UNL     1      36.010 -23.986 -10.967  0.00  0.00    +0.019 C 
ATOM     29  C   UNL     1      36.506 -24.504 -12.143  0.00  0.00    +0.087 C 
ENDBRANCH  22  26
ENDBRANCH  19  21
ENDBRANCH  18  19
ENDBRANCH   2  18
TORSDOF 6
ENDMDL
MODEL 3
REMARK VINA RESULT:     -10.8      3.405      4.612
REMARK  Name = 10250490
REMARK  6 active torsions:
REMARK  status: ('A' for Active; 'I' for Inactive)
REMARK    1  A    between atoms: N_2  and  C_18
REMARK    2  A    between atoms: C_3  and  C_6
REMARK    3  A    between atoms: C_5  and  N_12
REMARK    4  A    between atoms: C_18  and  C_19
REMARK    5  A    between atoms: C_19  and  N_21
REMARK    6  A    between atoms: C_22  and  C_26
REMARK                            x       y       z     vdW  Elec       q    Type
REMARK                         _______ _______ _______ _____ _____    ______ ____
ROOT
ATOM      1  O   UNL     1      32.903 -23.706 -17.950  0.00  0.00    -0.270 OA
ATOM      2  N   UNL     1      31.713 -22.231 -16.615  0.00  0.00    -0.299 N 
ATOM      3  C   UNL     1      32.493 -22.553 -17.732  0.00  0.00    +0.246 C 
ATOM      4  H   UNL     1      31.421 -21.297 -16.503  0.00  0.00    +0.150 HD
ENDROOT
BRANCH   3   6
ATOM      5  C   UNL     1      33.489 -19.380 -20.369  0.00  0.00    +0.058 C 
ATOM      6  C   UNL     1      32.834 -21.465 -18.635  0.00  0.00    +0.053 C 
ATOM      7  C   UNL     1      32.152 -19.663 -20.091  0.00  0.00    +0.015 C 
ATOM      8  C   UNL     1      34.499 -20.140 -19.779  0.00  0.00    +0.015 C 
ATOM      9  C   UNL     1      31.824 -20.705 -19.224  0.00  0.00    +0.006 C 
ATOM     10  C   UNL     1      34.171 -21.183 -18.912  0.00  0.00    +0.006 C 
BRANCH   5  12
ATOM     11  O   UNL     1      33.764 -19.618 -23.238  0.00  0.00    -0.269 OA
ATOM     12  N   UNL     1      33.829 -18.297 -21.271  0.00  0.00    -0.233 N 
ATOM     13  C   UNL     1      33.894 -18.535 -22.669  0.00  0.00    +0.257 C 
ATOM     14  C   UNL     1      34.116 -17.024 -20.774  0.00  0.00    +0.072 C 
ATOM     15  C   UNL     1      34.204 -17.352 -23.531  0.00  0.00    +0.059 C 
ATOM     16  C   UNL     1      34.424 -15.989 -21.564  0.00  0.00    +0.017 C 
ATOM     17  C   UNL     1      34.461 -16.161 -22.985  0.00  0.00    +0.006 C 
ENDBRANCH   5  12
ENDBRANCH   3   6
BRANCH   2  18
ATOM     18  C   UNL     1      31.312 -23.195 -15.616  0.00  0.00    +0.111 C 
BRANCH  18  19
ATOM     19  C   UNL     1      31.980 -22.943 -14.274  0.00  0.00    +0.111 C 
BRANCH  19  21
ATOM     20  O   UNL     1      34.673 -22.334 -15.061  0.00  0.00    -0.270 OA
ATOM     21  N   UNL     1      33.138 -23.773 -14.084  0.00  0.00    -0.299 N 
ATOM     22  C   UNL     1      34.409 -23.394 -14.500  0.00  0.00    +0.252 C 
ATOM     23  H   UNL     1      33.026 -24.646 -13.641  0.00  0.00    +0.150 HD
BRANCH  22  26
ATOM     24 CL   UNL     1      39.312 -25.631 -13.530  0.00  0.00    -0.075 Cl
ATOM     25  S   UNL     1      37.052 -23.771 -14.031  0.00  0.00    -0.071 S 
ATOM     26  C   UNL     1      35.497 -24.376 -14.254  0.00  0.00    +0.084 C 
ATOM     27  C   UNL     1      35.376 -25.711 -14.189  0.00  0.00    +0.012 C 
ATOM     28  C   UNL     1      36.647 -26.306 -13.938  0.00  0.00    +0.019 C 
ATOM     29  C   UNL     1      37.646 -25.364 -13.829  0.00  0.00    +0.087 C 
ENDBRANCH  22  26
ENDBRANCH  19  21
ENDBRANCH  18  19
ENDBRANCH   2  18
TORSDOF 6
ENDMDL
MODEL 4
REMARK VINA RESULT:     -10.8      6.600     12.167
REMARK  Name = 10250490
REMARK  6 active torsions:
REMARK  status: ('A' for Active; 'I' for Inactive)
REMARK    1  A    between atoms: N_2  and  C_18
REMARK    2  A    between atoms: C_3  and  C_6
REMARK    3  A    between atoms: C_5  and  N_12
REMARK    4  A    between atoms: C_18  and  C_19
REMARK    5  A    between atoms: C_19  and  N_21
REMARK    6  A    between atoms: C_22  and  C_26
REMARK                            x       y       z     vdW  Elec       q    Type
REMARK                         _______ _______ _______ _____ _____    ______ ____
ROOT
ATOM      1  O   UNL     1      34.135 -15.666 -24.935  0.00  0.00    -0.270 OA
ATOM      2  N   UNL     1      32.789 -14.477 -23.470  0.00  0.00    -0.299 N 
ATOM      3  C   UNL     1      33.576 -15.576 -23.828  0.00  0.00    +0.246 C 
ATOM      4  H   UNL     1      32.375 -14.470 -22.576  0.00  0.00    +0.150 HD
ENDROOT
BRANCH   3   6
ATOM      5  C   UNL     1      33.946 -18.696 -20.973  0.00  0.00    +0.058 C 
ATOM      6  C   UNL     1      33.703 -16.645 -22.849  0.00  0.00    +0.053 C 
ATOM      7  C   UNL     1      34.240 -17.381 -20.612  0.00  0.00    +0.015 C 
ATOM      8  C   UNL     1      33.530 -18.985 -22.273  0.00  0.00    +0.015 C 
ATOM      9  C   UNL     1      34.118 -16.356 -21.550  0.00  0.00    +0.006 C 
ATOM     10  C   UNL     1      33.409 -17.960 -23.211  0.00  0.00    +0.006 C 
BRANCH   5  12
ATOM     11  O   UNL     1      31.745 -20.145 -19.781  0.00  0.00    -0.269 OA
ATOM     12  N   UNL     1      34.074 -19.762 -19.998  0.00  0.00    -0.233 N 
ATOM     13  C   UNL     1      32.915 -20.424 -19.518  0.00  0.00    +0.257 C 
ATOM     14  C   UNL     1      35.330 -20.128 -19.510  0.00  0.00    +0.072 C 
ATOM     15  C   UNL     1      33.140 -21.543 -18.551  0.00  0.00    +0.059 C 
ATOM     16  C   UNL     1      35.504 -21.110 -18.619  0.00  0.00    +0.017 C 
ATOM     17  C   UNL     1      34.373 -21.842 -18.132  0.00  0.00    +0.006 C 
ENDBRANCH   5  12
ENDBRANCH   3   6
BRANCH   2  18
ATOM     18  C   UNL     1      32.548 -13.349 -24.340  0.00  0.00    +0.111 C 
BRANCH  18  19
ATOM     19  C   UNL     1      33.704 -12.362 -24.335  0.00  0.00    +0.111 C 
BRANCH  19  21
ATOM     20  O   UNL     1      34.856  -9.779 -24.825  0.00  0.00    -0.270 OA
ATOM     21  N   UNL     1      33.358 -11.130 -23.680  0.00  0.00    -0.299 N 
ATOM     22  C   UNL     1      33.973  -9.921 -23.984  0.00  0.00    +0.252 C 
ATOM     23  H   UNL     1      32.657 -11.144 -22.988  0.00  0.00    +0.150 HD
BRANCH  22  26
ATOM     24 CL   UNL     1      31.000  -6.552 -20.853  0.00  0.00    -0.075 Cl
ATOM     25  S   UNL     1      32.016  -8.841 -22.450  0.00  0.00    -0.071 S 
ATOM     26  C   UNL     1      33.520  -8.743 -23.200  0.00  0.00    +0.084 C 
ATOM     27  C   UNL     1      34.187  -7.592 -23.021  0.00  0.00    +0.012 C 
ATOM     28  C   UNL     1      33.422  -6.705 -22.208  0.00  0.00    +0.019 C 
ATOM     29  C   UNL     1      32.220  -7.259 -21.827  0.00  0.00    +0.087 C 
ENDBRANCH  22  26
ENDBRANCH  19  21
ENDBRANCH  18  19
ENDBRANCH   2  18
TORSDOF 6
ENDMDL
MODEL 5
REMARK VINA RESULT:     -10.7      7.022     12.160
REMARK  Name = 10250490
REMARK  6 active torsions:
REMARK  status: ('A' for Active; 'I' for Inactive)
REMARK    1  A    between atoms: N_2  and  C_18
REMARK    2  A    between atoms: C_3  and  C_6
REMARK    3  A    between atoms: C_5  and  N_12
REMARK    4  A    between atoms: C_18  and  C_19
REMARK    5  A    between atoms: C_19  and  N_21
REMARK    6  A    between atoms: C_22  and  C_26
REMARK                            x       y       z     vdW  Elec       q    Type
REMARK                         _______ _______ _______ _____ _____    ______ ____
ROOT
ATOM      1  O   UNL     1      32.760 -14.831 -25.704  0.00  0.00    -0.270 OA
ATOM      2  N   UNL     1      33.081 -13.251 -24.038  0.00  0.00    -0.299 N 
ATOM      3  C   UNL     1      33.071 -14.561 -24.531  0.00  0.00    +0.246 C 
ATOM      4  H   UNL     1      33.338 -13.108 -23.099  0.00  0.00    +0.150 HD
ENDROOT
BRANCH   3   6
ATOM      5  C   UNL     1      34.094 -17.650 -21.806  0.00  0.00    +0.058 C 
ATOM      6  C   UNL     1      33.422 -15.620 -23.598  0.00  0.00    +0.053 C 
ATOM      7  C   UNL     1      33.688 -17.968 -23.102  0.00  0.00    +0.015 C 
ATOM      8  C   UNL     1      34.164 -16.315 -21.406  0.00  0.00    +0.015 C 
ATOM      9  C   UNL     1      33.352 -16.953 -23.998  0.00  0.00    +0.006 C 
ATOM     10  C   UNL     1      33.828 -15.300 -22.302  0.00  0.00    +0.006 C 
BRANCH   5  12
ATOM     11  O   UNL     1      36.779 -18.323 -20.968  0.00  0.00    -0.269 OA
ATOM     12  N   UNL     1      34.441 -18.706 -20.875  0.00  0.00    -0.233 N 
ATOM     13  C   UNL     1      35.798 -18.911 -20.512  0.00  0.00    +0.257 C 
ATOM     14  C   UNL     1      33.452 -19.539 -20.347  0.00  0.00    +0.072 C 
ATOM     15  C   UNL     1      36.063 -19.989 -19.510  0.00  0.00    +0.059 C 
ATOM     16  C   UNL     1      33.719 -20.519 -19.477  0.00  0.00    +0.017 C 
ATOM     17  C   UNL     1      35.065 -20.744 -19.043  0.00  0.00    +0.006 C 
ENDBRANCH   5  12
ENDBRANCH   3   6
BRANCH   2  18
ATOM     18  C   UNL     1      32.734 -12.095 -24.834  0.00  0.00    +0.111 C 
BRANCH  18  19
ATOM     19  C   UNL     1      33.551 -10.871 -24.454  0.00  0.00    +0.111 C 
BRANCH  19  21
ATOM     20  O   UNL     1      32.013  -8.451 -24.327  0.00  0.00    -0.270 OA
ATOM     21  N   UNL     1      33.048 -10.235 -23.267  0.00  0.00    -0.299 N 
ATOM     22  C   UNL     1      32.309  -9.059 -23.302  0.00  0.00    +0.252 C 
ATOM     23  H   UNL     1      33.235 -10.650 -22.393  0.00  0.00    +0.150 HD
BRANCH  22  26
ATOM     24 CL   UNL     1      31.721  -5.815 -18.929  0.00  0.00    -0.075 Cl
ATOM     25  S   UNL     1      32.496  -7.011 -21.535  0.00  0.00    -0.071 S 
ATOM     26  C   UNL     1      31.884  -8.514 -21.987  0.00  0.00    +0.084 C 
ATOM     27  C   UNL     1      31.056  -9.095 -21.105  0.00  0.00    +0.012 C 
ATOM     28  C   UNL     1      30.895  -8.260 -19.961  0.00  0.00    +0.019 C 
ATOM     29  C   UNL     1      31.623  -7.095 -20.064  0.00  0.00    +0.087 C 
ENDBRANCH  22  26
ENDBRANCH  19  21
ENDBRANCH  18  19
ENDBRANCH   2  18
TORSDOF 6
ENDMDL
MODEL 6
REMARK VINA RESULT:     -10.6      7.176     12.648
REMARK  Name = 10250490
REMARK  6 active torsions:
REMARK  status: ('A' for Active; 'I' for Inactive)
REMARK    1  A    between atoms: N_2  and  C_18
REMARK    2  A    between atoms: C_3  and  C_6
REMARK    3  A    between atoms: C_5  and  N_12
REMARK    4  A    between atoms: C_18  and  C_19
REMARK    5  A    between atoms: C_19  and  N_21
REMARK    6  A    between atoms: C_22  and  C_26
REMARK                            x       y       z     vdW  Elec       q    Type
REMARK                         _______ _______ _______ _____ _____    ______ ____
ROOT
ATOM      1  O   UNL     1      33.082 -14.891 -25.525  0.00  0.00    -0.270 OA
ATOM      2  N   UNL     1      32.934 -13.404 -23.753  0.00  0.00    -0.299 N 
ATOM      3  C   UNL     1      33.166 -14.668 -24.305  0.00  0.00    +0.246 C 
ATOM      4  H   UNL     1      33.018 -13.297 -22.778  0.00  0.00    +0.150 HD
ENDROOT
BRANCH   3   6
ATOM      5  C   UNL     1      34.117 -17.801 -21.602  0.00  0.00    +0.058 C 
ATOM      6  C   UNL     1      33.492 -15.742 -23.379  0.00  0.00    +0.053 C 
ATOM      7  C   UNL     1      33.749 -18.098 -22.915  0.00  0.00    +0.015 C 
ATOM      8  C   UNL     1      34.173 -16.472 -21.179  0.00  0.00    +0.015 C 
ATOM      9  C   UNL     1      33.437 -17.069 -23.803  0.00  0.00    +0.006 C 
ATOM     10  C   UNL     1      33.860 -15.443 -22.067  0.00  0.00    +0.006 C 
BRANCH   5  12
ATOM     11  O   UNL     1      36.782 -18.509 -20.730  0.00  0.00    -0.269 OA
ATOM     12  N   UNL     1      34.440 -18.871 -20.679  0.00  0.00    -0.233 N 
ATOM     13  C   UNL     1      35.788 -19.093 -20.297  0.00  0.00    +0.257 C 
ATOM     14  C   UNL     1      33.435 -19.701 -20.178  0.00  0.00    +0.072 C 
ATOM     15  C   UNL     1      36.028 -20.186 -19.305  0.00  0.00    +0.059 C 
ATOM     16  C   UNL     1      33.679 -20.695 -19.316  0.00  0.00    +0.017 C 
ATOM     17  C   UNL     1      35.016 -20.937 -18.863  0.00  0.00    +0.006 C 
ENDBRANCH   5  12
ENDBRANCH   3   6
BRANCH   2  18
ATOM     18  C   UNL     1      32.578 -12.243 -24.537  0.00  0.00    +0.111 C 
BRANCH  18  19
ATOM     19  C   UNL     1      33.588 -11.118 -24.390  0.00  0.00    +0.111 C 
BRANCH  19  21
ATOM     20  O   UNL     1      34.929  -8.853 -23.244  0.00  0.00    -0.270 OA
ATOM     21  N   UNL     1      32.976  -9.900 -23.929  0.00  0.00    -0.299 N 
ATOM     22  C   UNL     1      33.709  -8.852 -23.386  0.00  0.00    +0.252 C 
ATOM     23  H   UNL     1      31.999  -9.807 -24.002  0.00  0.00    +0.150 HD
BRANCH  22  26
ATOM     24 CL   UNL     1      29.729  -5.685 -21.357  0.00  0.00    -0.075 Cl
ATOM     25  S   UNL     1      31.393  -7.958 -22.297  0.00  0.00    -0.071 S 
ATOM     26  C   UNL     1      32.926  -7.674 -22.934  0.00  0.00    +0.084 C 
ATOM     27  C   UNL     1      33.309  -6.388 -22.977  0.00  0.00    +0.012 C 
ATOM     28  C   UNL     1      32.281  -5.553 -22.452  0.00  0.00    +0.019 C 
ATOM     29  C   UNL     1      31.182  -6.277 -22.045  0.00  0.00    +0.087 C 
ENDBRANCH  22  26
ENDBRANCH  19  21
ENDBRANCH  18  19
ENDBRANCH   2  18
TORSDOF 6
ENDMDL
MODEL 7
REMARK VINA RESULT:     -10.4      4.357     10.017
REMARK  Name = 10250490
REMARK  6 active torsions:
REMARK  status: ('A' for Active; 'I' for Inactive)
REMARK    1  A    between atoms: N_2  and  C_18
REMARK    2  A    between atoms: C_3  and  C_6
REMARK    3  A    between atoms: C_5  and  N_12
REMARK    4  A    between atoms: C_18  and  C_19
REMARK    5  A    between atoms: C_19  and  N_21
REMARK    6  A    between atoms: C_22  and  C_26
REMARK                            x       y       z     vdW  Elec       q    Type
REMARK                         _______ _______ _______ _____ _____    ______ ____
ROOT
ATOM      1  O   UNL     1      31.948 -21.882 -18.806  0.00  0.00    -0.270 OA
ATOM      2  N   UNL     1      33.754 -20.460 -19.106  0.00  0.00    -0.299 N 
ATOM      3  C   UNL     1      33.059 -21.470 -18.431  0.00  0.00    +0.246 C 
ATOM      4  H   UNL     1      34.631 -20.182 -18.755  0.00  0.00    +0.150 HD
ENDROOT
BRANCH   3   6
ATOM      5  C   UNL     1      34.887 -23.064 -14.947  0.00  0.00    +0.058 C 
ATOM      6  C   UNL     1      33.685 -22.017 -17.238  0.00  0.00    +0.053 C 
ATOM      7  C   UNL     1      33.548 -23.345 -15.224  0.00  0.00    +0.015 C 
ATOM      8  C   UNL     1      35.624 -22.260 -15.817  0.00  0.00    +0.015 C 
ATOM      9  C   UNL     1      32.948 -22.822 -16.370  0.00  0.00    +0.006 C 
ATOM     10  C   UNL     1      35.023 -21.736 -16.962  0.00  0.00    +0.006 C 
BRANCH   5  12
ATOM     11  O   UNL     1      35.755 -25.803 -14.616  0.00  0.00    -0.269 OA
ATOM     12  N   UNL     1      35.510 -23.607 -13.756  0.00  0.00    -0.233 N 
ATOM     13  C   UNL     1      35.929 -24.963 -13.733  0.00  0.00    +0.257 C 
ATOM     14  C   UNL     1      35.681 -22.812 -12.621  0.00  0.00    +0.072 C 
ATOM     15  C   UNL     1      36.606 -25.429 -12.483  0.00  0.00    +0.059 C 
ATOM     16  C   UNL     1      36.260 -23.262 -11.502  0.00  0.00    +0.017 C 
ATOM     17  C   UNL     1      36.741 -24.609 -11.437  0.00  0.00    +0.006 C 
ENDBRANCH   5  12
ENDBRANCH   3   6
BRANCH   2  18
ATOM     18  C   UNL     1      33.254 -19.802 -20.292  0.00  0.00    +0.111 C 
BRANCH  18  19
ATOM     19  C   UNL     1      34.374 -19.370 -21.224  0.00  0.00    +0.111 C 
BRANCH  19  21
ATOM     20  O   UNL     1      34.544 -16.694 -20.198  0.00  0.00    -0.270 OA
ATOM     21  N   UNL     1      34.051 -18.158 -21.928  0.00  0.00    -0.299 N 
ATOM     22  C   UNL     1      34.165 -16.901 -21.348  0.00  0.00    +0.252 C 
ATOM     23  H   UNL     1      33.737 -18.223 -22.859  0.00  0.00    +0.150 HD
BRANCH  22  26
ATOM     24 CL   UNL     1      32.698 -13.833 -25.640  0.00  0.00    -0.075 Cl
ATOM     25  S   UNL     1      33.496 -16.051 -23.834  0.00  0.00    -0.071 S 
ATOM     26  C   UNL     1      33.768 -15.750 -22.199  0.00  0.00    +0.084 C 
ATOM     27  C   UNL     1      33.600 -14.478 -21.806  0.00  0.00    +0.012 C 
ATOM     28  C   UNL     1      33.219 -13.668 -22.915  0.00  0.00    +0.019 C 
ATOM     29  C   UNL     1      33.125 -14.397 -24.080  0.00  0.00    +0.087 C 
ENDBRANCH  22  26
ENDBRANCH  19  21
ENDBRANCH  18  19
ENDBRANCH   2  18
TORSDOF 6
ENDMDL
MODEL 8
REMARK VINA RESULT:     -10.1      6.707     12.420
REMARK  Name = 10250490
REMARK  6 active torsions:
REMARK  status: ('A' for Active; 'I' for Inactive)
REMARK    1  A    between atoms: N_2  and  C_18
REMARK    2  A    between atoms: C_3  and  C_6
REMARK    3  A    between atoms: C_5  and  N_12
REMARK    4  A    between atoms: C_18  and  C_19
REMARK    5  A    between atoms: C_19  and  N_21
REMARK    6  A    between atoms: C_22  and  C_26
REMARK                            x       y       z     vdW  Elec       q    Type
REMARK                         _______ _______ _______ _____ _____    ______ ____
ROOT
ATOM      1  O   UNL     1      33.660 -12.836 -22.795  0.00  0.00    -0.270 OA
ATOM      2  N   UNL     1      32.624 -14.065 -24.465  0.00  0.00    -0.299 N 
ATOM      3  C   UNL     1      33.306 -13.937 -23.250  0.00  0.00    +0.246 C 
ATOM      4  H   UNL     1      32.373 -14.968 -24.767  0.00  0.00    +0.150 HD
ENDROOT
BRANCH   3   6
ATOM      5  C   UNL     1      34.205 -17.520 -21.158  0.00  0.00    +0.058 C 
ATOM      6  C   UNL     1      33.615 -15.165 -22.534  0.00  0.00    +0.053 C 
ATOM      7  C   UNL     1      34.069 -17.537 -22.547  0.00  0.00    +0.015 C 
ATOM      8  C   UNL     1      34.047 -16.323 -20.458  0.00  0.00    +0.015 C 
ATOM      9  C   UNL     1      33.774 -16.360 -23.234  0.00  0.00    +0.006 C 
ATOM     10  C   UNL     1      33.751 -15.146 -21.146  0.00  0.00    +0.006 C 
BRANCH   5  12
ATOM     11  O   UNL     1      36.857 -18.408 -20.422  0.00  0.00    -0.269 OA
ATOM     12  N   UNL     1      34.511 -18.744 -20.444  0.00  0.00    -0.233 N 
ATOM     13  C   UNL     1      35.855 -19.048 -20.105  0.00  0.00    +0.257 C 
ATOM     14  C   UNL     1      33.494 -19.638 -20.105  0.00  0.00    +0.072 C 
ATOM     15  C   UNL     1      36.076 -20.307 -19.327  0.00  0.00    +0.059 C 
ATOM     16  C   UNL     1      33.721 -20.775 -19.438  0.00  0.00    +0.017 C 
ATOM     17  C   UNL     1      35.053 -21.113 -19.032  0.00  0.00    +0.006 C 
ENDBRANCH   5  12
ENDBRANCH   3   6
BRANCH   2  18
ATOM     18  C   UNL     1      32.267 -12.943 -25.303  0.00  0.00    +0.111 C 
BRANCH  18  19
ATOM     19  C   UNL     1      33.380 -11.912 -25.388  0.00  0.00    +0.111 C 
BRANCH  19  21
ATOM     20  O   UNL     1      35.178  -9.738 -24.860  0.00  0.00    -0.270 OA
ATOM     21  N   UNL     1      33.126 -10.774 -24.547  0.00  0.00    -0.299 N 
ATOM     22  C   UNL     1      34.061  -9.765 -24.349  0.00  0.00    +0.252 C 
ATOM     23  H   UNL     1      32.255 -10.707 -24.093  0.00  0.00    +0.150 HD
BRANCH  22  26
ATOM     24 CL   UNL     1      31.244  -6.695 -20.796  0.00  0.00    -0.075 Cl
ATOM     25  S   UNL     1      32.167  -8.817 -22.657  0.00  0.00    -0.071 S 
ATOM     26  C   UNL     1      33.656  -8.670 -23.430  0.00  0.00    +0.084 C 
ATOM     27  C   UNL     1      34.354  -7.560 -23.144  0.00  0.00    +0.012 C 
ATOM     28  C   UNL     1      33.630  -6.751 -22.220  0.00  0.00    +0.019 C 
ATOM     29  C   UNL     1      32.424  -7.317 -21.871  0.00  0.00    +0.087 C 
ENDBRANCH  22  26
ENDBRANCH  19  21
ENDBRANCH  18  19
ENDBRANCH   2  18
TORSDOF 6
ENDMDL
MODEL 9
REMARK VINA RESULT:      -9.9      5.909     10.593
REMARK  Name = 10250490
REMARK  6 active torsions:
REMARK  status: ('A' for Active; 'I' for Inactive)
REMARK    1  A    between atoms: N_2  and  C_18
REMARK    2  A    between atoms: C_3  and  C_6
REMARK    3  A    between atoms: C_5  and  N_12
REMARK    4  A    between atoms: C_18  and  C_19
REMARK    5  A    between atoms: C_19  and  N_21
REMARK    6  A    between atoms: C_22  and  C_26
REMARK                            x       y       z     vdW  Elec       q    Type
REMARK                         _______ _______ _______ _____ _____    ______ ____
ROOT
ATOM      1  O   UNL     1      33.998 -15.750 -24.737  0.00  0.00    -0.270 OA
ATOM      2  N   UNL     1      33.812 -14.271 -22.962  0.00  0.00    -0.299 N 
ATOM      3  C   UNL     1      33.925 -15.552 -23.512  0.00  0.00    +0.246 C 
ATOM      4  H   UNL     1      33.759 -14.186 -21.982  0.00  0.00    +0.150 HD
ENDROOT
BRANCH   3   6
ATOM      5  C   UNL     1      33.943 -18.819 -20.802  0.00  0.00    +0.058 C 
ATOM      6  C   UNL     1      33.931 -16.671 -22.583  0.00  0.00    +0.053 C 
ATOM      7  C   UNL     1      34.260 -17.537 -20.352  0.00  0.00    +0.015 C 
ATOM      8  C   UNL     1      33.620 -19.026 -22.143  0.00  0.00    +0.015 C 
ATOM      9  C   UNL     1      34.253 -16.463 -21.243  0.00  0.00    +0.006 C 
ATOM     10  C   UNL     1      33.614 -17.953 -23.034  0.00  0.00    +0.006 C 
BRANCH   5  12
ATOM     11  O   UNL     1      31.593 -20.145 -19.761  0.00  0.00    -0.269 OA
ATOM     12  N   UNL     1      33.952 -19.935 -19.876  0.00  0.00    -0.233 N 
ATOM     13  C   UNL     1      32.727 -20.526 -19.470  0.00  0.00    +0.257 C 
ATOM     14  C   UNL     1      35.156 -20.420 -19.362  0.00  0.00    +0.072 C 
ATOM     15  C   UNL     1      32.828 -21.702 -18.551  0.00  0.00    +0.059 C 
ATOM     16  C   UNL     1      35.218 -21.453 -18.514  0.00  0.00    +0.017 C 
ATOM     17  C   UNL     1      34.017 -22.115 -18.104  0.00  0.00    +0.006 C 
ENDBRANCH   5  12
ENDBRANCH   3   6
BRANCH   2  18
ATOM     18  C   UNL     1      33.769 -13.062 -23.754  0.00  0.00    +0.111 C 
BRANCH  18  19
ATOM     19  C   UNL     1      32.372 -12.467 -23.818  0.00  0.00    +0.111 C 
BRANCH  19  21
ATOM     20  O   UNL     1      31.190 -13.179 -21.301  0.00  0.00    -0.270 OA
ATOM     21  N   UNL     1      32.110 -11.586 -22.713  0.00  0.00    -0.299 N 
ATOM     22  C   UNL     1      31.532 -12.021 -21.527  0.00  0.00    +0.252 C 
ATOM     23  H   UNL     1      32.351 -10.635 -22.801  0.00  0.00    +0.150 HD
BRANCH  22  26
ATOM     24 CL   UNL     1      30.803  -7.206 -19.024  0.00  0.00    -0.075 Cl
ATOM     25  S   UNL     1      31.253  -9.377 -20.999  0.00  0.00    -0.071 S 
ATOM     26  C   UNL     1      31.303 -10.981 -20.491  0.00  0.00    +0.084 C 
ATOM     27  C   UNL     1      31.130 -11.181 -19.175  0.00  0.00    +0.012 C 
ATOM     28  C   UNL     1      30.940  -9.934 -18.511  0.00  0.00    +0.019 C 
ATOM     29  C   UNL     1      30.984  -8.871 -19.386  0.00  0.00    +0.087 C 
ENDBRANCH  22  26
ENDBRANCH  19  21
ENDBRANCH  18  19
ENDBRANCH   2  18
TORSDOF 6
ENDMDL
