MODEL 1
REMARK VINA RESULT:     -11.6      0.000      0.000
REMARK  Name = 118513932
REMARK  2 active torsions:
REMARK  status: ('A' for Active; 'I' for Inactive)
REMARK    1  A    between atoms: C_4  and  N_24
REMARK    2  A    between atoms: C_10  and  C_15
REMARK                            x       y       z     vdW  Elec       q    Type
REMARK                         _______ _______ _______ _____ _____    ______ ____
ROOT
ATOM      1  O   UNL     1      33.041 -12.586 -26.023  0.00  0.00    -0.274 OA
ATOM      2  N   UNL     1      33.201 -13.016 -23.717  0.00  0.00    -0.209 N 
ATOM      3  N   UNL     1      32.868 -11.213 -22.188  0.00  0.00    -0.389 NA
ATOM      4  C   UNL     1      33.690 -15.213 -22.867  0.00  0.00    +0.063 C 
ATOM      5  C   UNL     1      33.480 -14.367 -23.891  0.00  0.00    +0.089 C 
ATOM      6  C   UNL     1      33.620 -14.680 -21.523  0.00  0.00    +0.020 C 
ATOM      7  C   UNL     1      33.355 -13.390 -21.290  0.00  0.00    +0.050 C 
ATOM      8  C   UNL     1      33.124 -12.463 -22.431  0.00  0.00    +0.193 C 
ATOM      9  C   UNL     1      32.999 -12.218 -24.850  0.00  0.00    +0.242 C 
ATOM     10  C   UNL     1      32.665 -10.410 -23.275  0.00  0.00    +0.139 C 
ATOM     11  C   UNL     1      32.707 -10.795 -24.554  0.00  0.00    +0.146 C 
ENDROOT
BRANCH  10  15
ATOM     12  N   UNL     1      31.191  -7.294 -22.207  0.00  0.00    -0.178 N 
ATOM     13  N   UNL     1      31.318  -8.638 -22.353  0.00  0.00    -0.173 NA
ATOM     14  N   UNL     1      31.611  -5.111 -22.359  0.00  0.00    -0.392 NA
ATOM     15  C   UNL     1      32.375  -8.995 -23.026  0.00  0.00    +0.124 C 
ATOM     16  C   UNL     1      33.378  -8.047 -23.599  0.00  0.00    +0.023 C 
ATOM     17  C   UNL     1      33.195  -6.725 -23.420  0.00  0.00    +0.025 C 
ATOM     18  C   UNL     1      32.042  -6.314 -22.686  0.00  0.00    +0.198 C 
ATOM     19  C   UNL     1      30.174  -6.658 -21.546  0.00  0.00    +0.173 C 
ATOM     20  C   UNL     1      30.455  -5.318 -21.653  0.00  0.00    +0.111 C 
ATOM     21  C   UNL     1      34.193  -5.750 -23.989  0.00  0.00    +0.035 C 
ATOM     22  C   UNL     1      29.689  -4.181 -21.121  0.00  0.00    +0.063 C 
ENDBRANCH  10  15
BRANCH   4  24
ATOM     23  N   UNL     1      33.875 -19.407 -22.983  0.00  0.00    +0.389 N 
ATOM     24  N   UNL     1      33.965 -16.541 -23.022  0.00  0.00    -0.311 N 
ATOM     25  C   UNL     1      34.313 -18.626 -21.797  0.00  0.00    -0.027 C 
ATOM     26  C   UNL     1      34.932 -19.379 -20.641  0.00  0.00    -0.020 C 
ATOM     27  C   UNL     1      33.554 -18.804 -20.499  0.00  0.00    -0.020 C 
ATOM     28  C   UNL     1      34.872 -17.255 -22.118  0.00  0.00    +0.071 C 
ATOM     29  C   UNL     1      32.918 -18.631 -23.773  0.00  0.00    -0.060 C 
ATOM     30  C   UNL     1      33.520 -17.292 -24.200  0.00  0.00    +0.067 C 
ATOM     31  H   UNL     1      33.434 -20.272 -22.674  0.00  0.00    -0.084 HD
ATOM     32  H   UNL     1      34.689 -19.619 -23.561  0.00  0.00    -0.084 HD
ENDBRANCH   4  24
TORSDOF 2
ENDMDL
MODEL 2
REMARK VINA RESULT:     -11.5      6.452     11.416
REMARK  Name = 118513932
REMARK  2 active torsions:
REMARK  status: ('A' for Active; 'I' for Inactive)
REMARK    1  A    between atoms: C_4  and  N_24
REMARK    2  A    between atoms: C_10  and  C_15
REMARK                            x       y       z     vdW  Elec       q    Type
REMARK                         _______ _______ _______ _____ _____    ______ ____
ROOT
ATOM      1  O   UNL     1      31.538 -22.379 -17.744  0.00  0.00    -0.274 OA
ATOM      2  N   UNL     1      33.789 -21.970 -17.203  0.00  0.00    -0.209 N 
ATOM      3  N   UNL     1      35.035 -20.445 -18.554  0.00  0.00    -0.389 NA
ATOM      4  C   UNL     1      34.860 -23.043 -15.335  0.00  0.00    +0.063 C 
ATOM      5  C   UNL     1      33.783 -22.831 -16.111  0.00  0.00    +0.089 C 
ATOM      6  C   UNL     1      36.080 -22.334 -15.662  0.00  0.00    +0.020 C 
ATOM      7  C   UNL     1      36.150 -21.493 -16.699  0.00  0.00    +0.050 C 
ATOM      8  C   UNL     1      34.950 -21.266 -17.550  0.00  0.00    +0.193 C 
ATOM      9  C   UNL     1      32.613 -21.819 -17.949  0.00  0.00    +0.242 C 
ATOM     10  C   UNL     1      33.903 -20.278 -19.300  0.00  0.00    +0.139 C 
ATOM     11  C   UNL     1      32.727 -20.879 -19.089  0.00  0.00    +0.146 C 
ENDROOT
BRANCH  10  15
ATOM     12  N   UNL     1      34.045 -17.351 -21.406  0.00  0.00    -0.178 N 
ATOM     13  N   UNL     1      33.974 -18.066 -20.255  0.00  0.00    -0.173 NA
ATOM     14  N   UNL     1      34.168 -16.862 -23.576  0.00  0.00    -0.392 NA
ATOM     15  C   UNL     1      33.972 -19.357 -20.438  0.00  0.00    +0.124 C 
ATOM     16  C   UNL     1      34.039 -20.026 -21.773  0.00  0.00    +0.023 C 
ATOM     17  C   UNL     1      34.107 -19.259 -22.877  0.00  0.00    +0.025 C 
ATOM     18  C   UNL     1      34.110 -17.843 -22.697  0.00  0.00    +0.198 C 
ATOM     19  C   UNL     1      34.062 -15.984 -21.494  0.00  0.00    +0.173 C 
ATOM     20  C   UNL     1      34.139 -15.708 -22.837  0.00  0.00    +0.111 C 
ATOM     21  C   UNL     1      34.175 -19.911 -24.234  0.00  0.00    +0.035 C 
ATOM     22  C   UNL     1      34.188 -14.395 -23.497  0.00  0.00    +0.063 C 
ENDBRANCH  10  15
BRANCH   4  24
ATOM     23  N   UNL     1      35.124 -25.023 -11.640  0.00  0.00    +0.389 N 
ATOM     24  N   UNL     1      34.870 -23.884 -14.260  0.00  0.00    -0.311 N 
ATOM     25  C   UNL     1      36.304 -24.827 -12.522  0.00  0.00    -0.027 C 
ATOM     26  C   UNL     1      37.616 -25.453 -12.102  0.00  0.00    -0.020 C 
ATOM     27  C   UNL     1      37.443 -23.965 -12.018  0.00  0.00    -0.020 C 
ATOM     28  C   UNL     1      35.986 -24.800 -14.003  0.00  0.00    +0.071 C 
ATOM     29  C   UNL     1      34.105 -24.013 -11.931  0.00  0.00    -0.060 C 
ATOM     30  C   UNL     1      33.694 -24.059 -13.403  0.00  0.00    +0.067 C 
ATOM     31  H   UNL     1      35.413 -24.940 -10.666  0.00  0.00    -0.084 HD
ATOM     32  H   UNL     1      34.733 -25.949 -11.809  0.00  0.00    -0.084 HD
ENDBRANCH   4  24
TORSDOF 2
ENDMDL
MODEL 3
REMARK VINA RESULT:     -10.7      2.167     10.329
REMARK  Name = 118513932
REMARK  2 active torsions:
REMARK  status: ('A' for Active; 'I' for Inactive)
REMARK    1  A    between atoms: C_4  and  N_24
REMARK    2  A    between atoms: C_10  and  C_15
REMARK                            x       y       z     vdW  Elec       q    Type
REMARK                         _______ _______ _______ _____ _____    ______ ____
ROOT
ATOM      1  O   UNL     1      29.930 -10.253 -19.575  0.00  0.00    -0.274 OA
ATOM      2  N   UNL     1      31.249  -9.257 -21.247  0.00  0.00    -0.209 N 
ATOM      3  N   UNL     1      32.584 -10.661 -22.643  0.00  0.00    -0.389 NA
ATOM      4  C   UNL     1      31.289  -6.876 -21.582  0.00  0.00    +0.063 C 
ATOM      5  C   UNL     1      30.846  -7.965 -20.930  0.00  0.00    +0.089 C 
ATOM      6  C   UNL     1      32.231  -7.070 -22.664  0.00  0.00    +0.020 C 
ATOM      7  C   UNL     1      32.658  -8.287 -23.017  0.00  0.00    +0.050 C 
ATOM      8  C   UNL     1      32.160  -9.486 -22.288  0.00  0.00    +0.193 C 
ATOM      9  C   UNL     1      30.730 -10.326 -20.506  0.00  0.00    +0.242 C 
ATOM     10  C   UNL     1      32.093 -11.724 -21.938  0.00  0.00    +0.139 C 
ATOM     11  C   UNL     1      31.224 -11.660 -20.925  0.00  0.00    +0.146 C 
ENDROOT
BRANCH  10  15
ATOM     12  N   UNL     1      33.579 -15.013 -21.980  0.00  0.00    -0.178 N 
ATOM     13  N   UNL     1      33.222 -13.803 -21.478  0.00  0.00    -0.173 NA
ATOM     14  N   UNL     1      33.811 -16.720 -23.392  0.00  0.00    -0.392 NA
ATOM     15  C   UNL     1      32.557 -13.061 -22.319  0.00  0.00    +0.124 C 
ATOM     16  C   UNL     1      32.201 -13.467 -23.712  0.00  0.00    +0.023 C 
ATOM     17  C   UNL     1      32.585 -14.680 -24.151  0.00  0.00    +0.025 C 
ATOM     18  C   UNL     1      33.315 -15.507 -23.244  0.00  0.00    +0.198 C 
ATOM     19  C   UNL     1      34.281 -15.977 -21.307  0.00  0.00    +0.173 C 
ATOM     20  C   UNL     1      34.410 -17.017 -22.196  0.00  0.00    +0.111 C 
ATOM     21  C   UNL     1      32.238 -15.111 -25.552  0.00  0.00    +0.035 C 
ATOM     22  C   UNL     1      35.079 -18.311 -21.994  0.00  0.00    +0.063 C 
ENDBRANCH  10  15
BRANCH   4  24
ATOM     23  N   UNL     1      29.480  -3.119 -21.074  0.00  0.00    +0.389 N 
ATOM     24  N   UNL     1      30.901  -5.601 -21.283  0.00  0.00    -0.311 N 
ATOM     25  C   UNL     1      30.282  -3.457 -22.278  0.00  0.00    -0.027 C 
ATOM     26  C   UNL     1      30.525  -2.367 -23.298  0.00  0.00    -0.020 C 
ATOM     27  C   UNL     1      29.585  -3.490 -23.621  0.00  0.00    -0.020 C 
ATOM     28  C   UNL     1      31.405  -4.443 -22.029  0.00  0.00    +0.071 C 
ATOM     29  C   UNL     1      28.966  -4.340 -20.451  0.00  0.00    -0.060 C 
ATOM     30  C   UNL     1      30.107  -5.292 -20.091  0.00  0.00    +0.067 C 
ATOM     31  H   UNL     1      28.698  -2.524 -21.345  0.00  0.00    -0.084 HD
ATOM     32  H   UNL     1      30.074  -2.629 -20.405  0.00  0.00    -0.084 HD
ENDBRANCH   4  24
TORSDOF 2
ENDMDL
MODEL 4
REMARK VINA RESULT:     -10.6      1.809     10.116
REMARK  Name = 118513932
REMARK  2 active torsions:
REMARK  status: ('A' for Active; 'I' for Inactive)
REMARK    1  A    between atoms: C_4  and  N_24
REMARK    2  A    between atoms: C_10  and  C_15
REMARK                            x       y       z     vdW  Elec       q    Type
REMARK                         _______ _______ _______ _____ _____    ______ ____
ROOT
ATOM      1  O   UNL     1      33.899  -8.623 -24.455  0.00  0.00    -0.274 OA
ATOM      2  N   UNL     1      32.414  -8.987 -22.670  0.00  0.00    -0.209 N 
ATOM      3  N   UNL     1      31.950 -11.232 -22.004  0.00  0.00    -0.389 NA
ATOM      4  C   UNL     1      31.357  -7.166 -21.508  0.00  0.00    +0.063 C 
ATOM      5  C   UNL     1      32.180  -7.632 -22.462  0.00  0.00    +0.089 C 
ATOM      6  C   UNL     1      30.686  -8.130 -20.662  0.00  0.00    +0.020 C 
ATOM      7  C   UNL     1      30.868  -9.446 -20.811  0.00  0.00    +0.050 C 
ATOM      8  C   UNL     1      31.783  -9.951 -21.871  0.00  0.00    +0.193 C 
ATOM      9  C   UNL     1      33.291  -9.371 -23.693  0.00  0.00    +0.242 C 
ATOM     10  C   UNL     1      32.800 -11.637 -22.993  0.00  0.00    +0.139 C 
ATOM     11  C   UNL     1      33.469 -10.836 -23.829  0.00  0.00    +0.146 C 
ENDROOT
BRANCH  10  15
ATOM     12  N   UNL     1      33.819 -15.078 -22.610  0.00  0.00    -0.178 N 
ATOM     13  N   UNL     1      33.727 -13.755 -22.316  0.00  0.00    -0.173 NA
ATOM     14  N   UNL     1      33.543 -17.025 -23.655  0.00  0.00    -0.392 NA
ATOM     15  C   UNL     1      33.005 -13.078 -23.163  0.00  0.00    +0.124 C 
ATOM     16  C   UNL     1      32.326 -13.663 -24.359  0.00  0.00    +0.023 C 
ATOM     17  C   UNL     1      32.456 -14.982 -24.595  0.00  0.00    +0.025 C 
ATOM     18  C   UNL     1      33.244 -15.741 -23.678  0.00  0.00    +0.198 C 
ATOM     19  C   UNL     1      34.515 -16.007 -21.883  0.00  0.00    +0.173 C 
ATOM     20  C   UNL     1      34.330 -17.196 -22.545  0.00  0.00    +0.111 C 
ATOM     21  C   UNL     1      31.781 -15.595 -25.795  0.00  0.00    +0.035 C 
ATOM     22  C   UNL     1      34.856 -18.525 -22.199  0.00  0.00    +0.063 C 
ENDBRANCH  10  15
BRANCH   4  24
ATOM     23  N   UNL     1      29.973  -3.211 -21.214  0.00  0.00    +0.389 N 
ATOM     24  N   UNL     1      31.118  -5.839 -21.291  0.00  0.00    -0.311 N 
ATOM     25  C   UNL     1      30.677  -3.718 -22.420  0.00  0.00    -0.027 C 
ATOM     26  C   UNL     1      30.981  -2.736 -23.529  0.00  0.00    -0.020 C 
ATOM     27  C   UNL     1      29.916  -3.772 -23.728  0.00  0.00    -0.020 C 
ATOM     28  C   UNL     1      31.703  -4.798 -22.142  0.00  0.00    +0.071 C 
ATOM     29  C   UNL     1      29.366  -4.323 -20.480  0.00  0.00    -0.060 C 
ATOM     30  C   UNL     1      30.418  -5.363 -20.094  0.00  0.00    +0.067 C 
ATOM     31  H   UNL     1      29.244  -2.557 -21.498  0.00  0.00    -0.084 HD
ATOM     32  H   UNL     1      30.646  -2.740 -20.608  0.00  0.00    -0.084 HD
ENDBRANCH   4  24
TORSDOF 2
ENDMDL
MODEL 5
REMARK VINA RESULT:     -10.5      1.740     10.004
REMARK  Name = 118513932
REMARK  2 active torsions:
REMARK  status: ('A' for Active; 'I' for Inactive)
REMARK    1  A    between atoms: C_4  and  N_24
REMARK    2  A    between atoms: C_10  and  C_15
REMARK                            x       y       z     vdW  Elec       q    Type
REMARK                         _______ _______ _______ _____ _____    ______ ____
ROOT
ATOM      1  O   UNL     1      30.589 -11.200 -20.145  0.00  0.00    -0.274 OA
ATOM      2  N   UNL     1      31.906 -10.671 -22.018  0.00  0.00    -0.209 N 
ATOM      3  N   UNL     1      33.296 -12.368 -22.960  0.00  0.00    -0.389 NA
ATOM      4  C   UNL     1      31.889  -8.476 -23.002  0.00  0.00    +0.063 C 
ATOM      5  C   UNL     1      31.465  -9.353 -22.076  0.00  0.00    +0.089 C 
ATOM      6  C   UNL     1      32.851  -8.936 -23.981  0.00  0.00    +0.020 C 
ATOM      7  C   UNL     1      33.314 -10.190 -23.979  0.00  0.00    +0.050 C 
ATOM      8  C   UNL     1      32.837 -11.153 -22.949  0.00  0.00    +0.193 C 
ATOM      9  C   UNL     1      31.403 -11.506 -21.013  0.00  0.00    +0.242 C 
ATOM     10  C   UNL     1      32.823 -13.207 -21.991  0.00  0.00    +0.139 C 
ATOM     11  C   UNL     1      31.937 -12.889 -21.042  0.00  0.00    +0.146 C 
ENDROOT
BRANCH  10  15
ATOM     12  N   UNL     1      34.224 -16.396 -21.045  0.00  0.00    -0.178 N 
ATOM     13  N   UNL     1      33.799 -15.115 -20.890  0.00  0.00    -0.173 NA
ATOM     14  N   UNL     1      34.694 -18.357 -21.991  0.00  0.00    -0.392 NA
ATOM     15  C   UNL     1      33.326 -14.584 -21.982  0.00  0.00    +0.124 C 
ATOM     16  C   UNL     1      33.242 -15.282 -23.301  0.00  0.00    +0.023 C 
ATOM     17  C   UNL     1      33.680 -16.552 -23.388  0.00  0.00    +0.025 C 
ATOM     18  C   UNL     1      34.202 -17.152 -22.203  0.00  0.00    +0.198 C 
ATOM     19  C   UNL     1      34.761 -17.180 -20.060  0.00  0.00    +0.173 C 
ATOM     20  C   UNL     1      35.042 -18.381 -20.665  0.00  0.00    +0.111 C 
ATOM     21  C   UNL     1      33.606 -17.277 -24.707  0.00  0.00    +0.035 C 
ATOM     22  C   UNL     1      35.632 -19.587 -20.068  0.00  0.00    +0.063 C 
ENDBRANCH  10  15
BRANCH   4  24
ATOM     23  N   UNL     1      31.150  -4.350 -22.729  0.00  0.00    +0.389 N 
ATOM     24  N   UNL     1      31.465  -7.180 -23.072  0.00  0.00    -0.311 N 
ATOM     25  C   UNL     1      30.625  -5.318 -21.731  0.00  0.00    -0.027 C 
ATOM     26  C   UNL     1      29.717  -4.792 -20.642  0.00  0.00    -0.020 C 
ATOM     27  C   UNL     1      31.115  -5.214 -20.302  0.00  0.00    -0.020 C 
ATOM     28  C   UNL     1      30.324  -6.695 -22.287  0.00  0.00    +0.071 C 
ATOM     29  C   UNL     1      32.328  -4.904 -23.399  0.00  0.00    -0.060 C 
ATOM     30  C   UNL     1      31.999  -6.242 -24.063  0.00  0.00    +0.067 C 
ATOM     31  H   UNL     1      31.407  -3.484 -22.256  0.00  0.00    -0.084 HD
ATOM     32  H   UNL     1      30.427  -4.165 -23.424  0.00  0.00    -0.084 HD
ENDBRANCH   4  24
TORSDOF 2
ENDMDL
MODEL 6
REMARK VINA RESULT:     -10.3      1.947      2.688
REMARK  Name = 118513932
REMARK  2 active torsions:
REMARK  status: ('A' for Active; 'I' for Inactive)
REMARK    1  A    between atoms: C_4  and  N_24
REMARK    2  A    between atoms: C_10  and  C_15
REMARK                            x       y       z     vdW  Elec       q    Type
REMARK                         _______ _______ _______ _____ _____    ______ ____
ROOT
ATOM      1  O   UNL     1      31.239 -13.457 -19.617  0.00  0.00    -0.274 OA
ATOM      2  N   UNL     1      32.324 -13.085 -21.668  0.00  0.00    -0.209 N 
ATOM      3  N   UNL     1      32.342 -10.875 -22.573  0.00  0.00    -0.389 NA
ATOM      4  C   UNL     1      33.410 -14.863 -22.870  0.00  0.00    +0.063 C 
ATOM      5  C   UNL     1      32.708 -14.413 -21.815  0.00  0.00    +0.089 C 
ATOM      6  C   UNL     1      33.779 -13.910 -23.895  0.00  0.00    +0.020 C 
ATOM      7  C   UNL     1      33.440 -12.619 -23.812  0.00  0.00    +0.050 C 
ATOM      8  C   UNL     1      32.663 -12.132 -22.639  0.00  0.00    +0.193 C 
ATOM      9  C   UNL     1      31.593 -12.716 -20.531  0.00  0.00    +0.242 C 
ATOM     10  C   UNL     1      31.628 -10.486 -21.474  0.00  0.00    +0.139 C 
ATOM     11  C   UNL     1      31.236 -11.279 -20.472  0.00  0.00    +0.146 C 
ENDROOT
BRANCH  10  15
ATOM     12  N   UNL     1      30.683  -7.078 -22.191  0.00  0.00    -0.178 N 
ATOM     13  N   UNL     1      31.020  -8.368 -22.448  0.00  0.00    -0.173 NA
ATOM     14  N   UNL     1      30.224  -5.205 -21.075  0.00  0.00    -0.392 NA
ATOM     15  C   UNL     1      31.253  -9.073 -21.376  0.00  0.00    +0.124 C 
ATOM     16  C   UNL     1      31.168  -8.549 -19.979  0.00  0.00    +0.023 C 
ATOM     17  C   UNL     1      30.829  -7.260 -19.792  0.00  0.00    +0.025 C 
ATOM     18  C   UNL     1      30.570  -6.472 -20.952  0.00  0.00    +0.198 C 
ATOM     19  C   UNL     1      30.389  -6.129 -23.134  0.00  0.00    +0.173 C 
ATOM     20  C   UNL     1      30.111  -4.987 -22.424  0.00  0.00    +0.111 C 
ATOM     21  C   UNL     1      30.738  -6.710 -18.392  0.00  0.00    +0.035 C 
ATOM     22  C   UNL     1      29.733  -3.662 -22.939  0.00  0.00    +0.063 C 
ENDBRANCH  10  15
BRANCH   4  24
ATOM     23  N   UNL     1      33.948 -19.027 -22.989  0.00  0.00    +0.389 N 
ATOM     24  N   UNL     1      33.794 -16.163 -23.028  0.00  0.00    -0.311 N 
ATOM     25  C   UNL     1      34.330 -18.211 -21.808  0.00  0.00    -0.027 C 
ATOM     26  C   UNL     1      35.022 -18.908 -20.657  0.00  0.00    -0.020 C 
ATOM     27  C   UNL     1      33.602 -18.452 -20.501  0.00  0.00    -0.020 C 
ATOM     28  C   UNL     1      34.768 -16.798 -22.134  0.00  0.00    +0.071 C 
ATOM     29  C   UNL     1      32.920 -18.335 -23.769  0.00  0.00    -0.060 C 
ATOM     30  C   UNL     1      33.403 -16.950 -24.202  0.00  0.00    +0.067 C 
ATOM     31  H   UNL     1      33.585 -19.926 -22.675  0.00  0.00    -0.084 HD
ATOM     32  H   UNL     1      34.771 -19.170 -23.575  0.00  0.00    -0.084 HD
ENDBRANCH   4  24
TORSDOF 2
ENDMDL
MODEL 7
REMARK VINA RESULT:      -9.9      1.403      9.913
REMARK  Name = 118513932
REMARK  2 active torsions:
REMARK  status: ('A' for Active; 'I' for Inactive)
REMARK    1  A    between atoms: C_4  and  N_24
REMARK    2  A    between atoms: C_10  and  C_15
REMARK                            x       y       z     vdW  Elec       q    Type
REMARK                         _______ _______ _______ _____ _____    ______ ____
ROOT
ATOM      1  O   UNL     1      33.836 -11.169 -24.936  0.00  0.00    -0.274 OA
ATOM      2  N   UNL     1      32.631 -11.068 -22.921  0.00  0.00    -0.209 N 
ATOM      3  N   UNL     1      32.432 -13.049 -21.602  0.00  0.00    -0.389 NA
ATOM      4  C   UNL     1      31.599  -9.033 -22.160  0.00  0.00    +0.063 C 
ATOM      5  C   UNL     1      32.323  -9.719 -23.061  0.00  0.00    +0.089 C 
ATOM      6  C   UNL     1      31.121  -9.742 -20.992  0.00  0.00    +0.020 C 
ATOM      7  C   UNL     1      31.383 -11.039 -20.800  0.00  0.00    +0.050 C 
ATOM      8  C   UNL     1      32.187 -11.789 -21.803  0.00  0.00    +0.193 C 
ATOM      9  C   UNL     1      33.392 -11.693 -23.917  0.00  0.00    +0.242 C 
ATOM     10  C   UNL     1      33.174 -13.685 -22.557  0.00  0.00    +0.139 C 
ATOM     11  C   UNL     1      33.664 -13.129 -23.670  0.00  0.00    +0.146 C 
ENDROOT
BRANCH  10  15
ATOM     12  N   UNL     1      34.293 -16.857 -21.248  0.00  0.00    -0.178 N 
ATOM     13  N   UNL     1      34.103 -15.513 -21.291  0.00  0.00    -0.173 NA
ATOM     14  N   UNL     1      34.241 -19.009 -21.820  0.00  0.00    -0.392 NA
ATOM     15  C   UNL     1      33.464 -15.107 -22.352  0.00  0.00    +0.124 C 
ATOM     16  C   UNL     1      32.970 -16.003 -23.442  0.00  0.00    +0.023 C 
ATOM     17  C   UNL     1      33.190 -17.327 -23.339  0.00  0.00    +0.025 C 
ATOM     18  C   UNL     1      33.889 -17.791 -22.184  0.00  0.00    +0.198 C 
ATOM     19  C   UNL     1      34.932 -17.538 -20.246  0.00  0.00    +0.173 C 
ATOM     20  C   UNL     1      34.887 -18.858 -20.621  0.00  0.00    +0.111 C 
ATOM     21  C   UNL     1      32.702 -18.250 -24.425  0.00  0.00    +0.035 C 
ATOM     22  C   UNL     1      35.426 -20.027 -19.909  0.00  0.00    +0.063 C 
ENDBRANCH  10  15
BRANCH   4  24
ATOM     23  N   UNL     1      31.276  -4.845 -22.129  0.00  0.00    +0.389 N 
ATOM     24  N   UNL     1      31.290  -7.709 -22.283  0.00  0.00    -0.311 N 
ATOM     25  C   UNL     1      30.785  -5.687 -21.008  0.00  0.00    -0.027 C 
ATOM     26  C   UNL     1      30.061  -5.002 -19.870  0.00  0.00    -0.020 C 
ATOM     27  C   UNL     1      31.445  -5.537 -19.653  0.00  0.00    -0.020 C 
ATOM     28  C   UNL     1      30.297  -7.061 -21.420  0.00  0.00    +0.071 C 
ATOM     29  C   UNL     1      32.313  -5.557 -22.878  0.00  0.00    -0.060 C 
ATOM     30  C   UNL     1      31.789  -6.897 -23.397  0.00  0.00    +0.067 C 
ATOM     31  H   UNL     1      31.664  -3.979 -21.756  0.00  0.00    -0.084 HD
ATOM     32  H   UNL     1      30.498  -4.636 -22.754  0.00  0.00    -0.084 HD
ENDBRANCH   4  24
TORSDOF 2
ENDMDL
MODEL 8
REMARK VINA RESULT:      -9.9      1.875     10.047
REMARK  Name = 118513932
REMARK  2 active torsions:
REMARK  status: ('A' for Active; 'I' for Inactive)
REMARK    1  A    between atoms: C_4  and  N_24
REMARK    2  A    between atoms: C_10  and  C_15
REMARK                            x       y       z     vdW  Elec       q    Type
REMARK                         _______ _______ _______ _____ _____    ______ ____
ROOT
ATOM      1  O   UNL     1      30.668 -11.049 -20.411  0.00  0.00    -0.274 OA
ATOM      2  N   UNL     1      32.111 -10.596 -22.210  0.00  0.00    -0.209 N 
ATOM      3  N   UNL     1      33.466 -12.364 -23.068  0.00  0.00    -0.389 NA
ATOM      4  C   UNL     1      32.256  -8.408 -23.200  0.00  0.00    +0.063 C 
ATOM      5  C   UNL     1      31.739  -9.259 -22.296  0.00  0.00    +0.089 C 
ATOM      6  C   UNL     1      33.248  -8.920 -24.122  0.00  0.00    +0.020 C 
ATOM      7  C   UNL     1      33.648 -10.195 -24.090  0.00  0.00    +0.050 C 
ATOM      8  C   UNL     1      33.067 -11.128 -23.085  0.00  0.00    +0.193 C 
ATOM      9  C   UNL     1      31.513 -11.400 -21.231  0.00  0.00    +0.242 C 
ATOM     10  C   UNL     1      32.900 -13.173 -22.123  0.00  0.00    +0.139 C 
ATOM     11  C   UNL     1      31.980 -12.807 -21.226  0.00  0.00    +0.146 C 
ENDROOT
BRANCH  10  15
ATOM     12  N   UNL     1      34.175 -16.395 -21.113  0.00  0.00    -0.178 N 
ATOM     13  N   UNL     1      33.821 -15.090 -20.990  0.00  0.00    -0.173 NA
ATOM     14  N   UNL     1      34.511 -18.409 -22.002  0.00  0.00    -0.392 NA
ATOM     15  C   UNL     1      33.334 -14.573 -22.083  0.00  0.00    +0.124 C 
ATOM     16  C   UNL     1      33.166 -15.311 -23.371  0.00  0.00    +0.023 C 
ATOM     17  C   UNL     1      33.537 -16.604 -23.427  0.00  0.00    +0.025 C 
ATOM     18  C   UNL     1      34.072 -17.189 -22.241  0.00  0.00    +0.198 C 
ATOM     19  C   UNL     1      34.709 -17.171 -20.119  0.00  0.00    +0.173 C 
ATOM     20  C   UNL     1      34.907 -18.405 -20.690  0.00  0.00    +0.111 C 
ATOM     21  C   UNL     1      33.377 -17.370 -24.716  0.00  0.00    +0.035 C 
ATOM     22  C   UNL     1      35.459 -19.618 -20.070  0.00  0.00    +0.063 C 
ENDBRANCH  10  15
BRANCH   4  24
ATOM     23  N   UNL     1      30.969  -4.540 -24.212  0.00  0.00    +0.389 N 
ATOM     24  N   UNL     1      31.901  -7.094 -23.297  0.00  0.00    -0.311 N 
ATOM     25  C   UNL     1      32.333  -5.033 -24.536  0.00  0.00    -0.027 C 
ATOM     26  C   UNL     1      33.307  -4.063 -25.166  0.00  0.00    -0.020 C 
ATOM     27  C   UNL     1      32.721  -5.167 -25.994  0.00  0.00    -0.020 C 
ATOM     28  C   UNL     1      32.889  -6.040 -23.550  0.00  0.00    +0.071 C 
ATOM     29  C   UNL     1      30.050  -5.668 -24.053  0.00  0.00    -0.060 C 
ATOM     30  C   UNL     1      30.547  -6.631 -22.974  0.00  0.00    +0.067 C 
ATOM     31  H   UNL     1      30.639  -3.940 -24.966  0.00  0.00    -0.084 HD
ATOM     32  H   UNL     1      31.005  -4.013 -23.339  0.00  0.00    -0.084 HD
ENDBRANCH   4  24
TORSDOF 2
ENDMDL
MODEL 9
REMARK VINA RESULT:      -9.9      1.893     10.266
REMARK  Name = 118513932
REMARK  2 active torsions:
REMARK  status: ('A' for Active; 'I' for Inactive)
REMARK    1  A    between atoms: C_4  and  N_24
REMARK    2  A    between atoms: C_10  and  C_15
REMARK                            x       y       z     vdW  Elec       q    Type
REMARK                         _______ _______ _______ _____ _____    ______ ____
ROOT
ATOM      1  O   UNL     1      34.193  -8.566 -24.894  0.00  0.00    -0.274 OA
ATOM      2  N   UNL     1      32.553  -8.553 -23.210  0.00  0.00    -0.209 N 
ATOM      3  N   UNL     1      32.009 -10.608 -22.122  0.00  0.00    -0.389 NA
ATOM      4  C   UNL     1      31.416  -6.535 -22.561  0.00  0.00    +0.063 C 
ATOM      5  C   UNL     1      32.316  -7.187 -23.318  0.00  0.00    +0.089 C 
ATOM      6  C   UNL     1      30.664  -7.302 -21.591  0.00  0.00    +0.020 C 
ATOM      7  C   UNL     1      30.845  -8.618 -21.439  0.00  0.00    +0.050 C 
ATOM      8  C   UNL     1      31.845  -9.329 -22.282  0.00  0.00    +0.193 C 
ATOM      9  C   UNL     1      33.512  -9.139 -24.046  0.00  0.00    +0.242 C 
ATOM     10  C   UNL     1      32.939 -11.207 -22.924  0.00  0.00    +0.139 C 
ATOM     11  C   UNL     1      33.687 -10.597 -23.850  0.00  0.00    +0.146 C 
ENDROOT
BRANCH  10  15
ATOM     12  N   UNL     1      33.374 -14.745 -23.486  0.00  0.00    -0.178 N 
ATOM     13  N   UNL     1      33.176 -13.439 -23.800  0.00  0.00    -0.173 NA
ATOM     14  N   UNL     1      33.706 -16.595 -22.290  0.00  0.00    -0.392 NA
ATOM     15  C   UNL     1      33.143 -12.650 -22.764  0.00  0.00    +0.124 C 
ATOM     16  C   UNL     1      33.304 -13.098 -21.347  0.00  0.00    +0.023 C 
ATOM     17  C   UNL     1      33.497 -14.408 -21.103  0.00  0.00    +0.025 C 
ATOM     18  C   UNL     1      33.536 -15.289 -22.225  0.00  0.00    +0.198 C 
ATOM     19  C   UNL     1      33.449 -15.777 -24.384  0.00  0.00    +0.173 C 
ATOM     20  C   UNL     1      33.654 -16.903 -23.625  0.00  0.00    +0.111 C 
ATOM     21  C   UNL     1      33.661 -14.885 -19.682  0.00  0.00    +0.035 C 
ATOM     22  C   UNL     1      33.810 -18.293 -24.079  0.00  0.00    +0.063 C 
ENDBRANCH  10  15
BRANCH   4  24
ATOM     23  N   UNL     1      29.939  -2.619 -22.914  0.00  0.00    +0.389 N 
ATOM     24  N   UNL     1      31.173  -5.195 -22.655  0.00  0.00    -0.311 N 
ATOM     25  C   UNL     1      30.210  -3.474 -24.098  0.00  0.00    -0.027 C 
ATOM     26  C   UNL     1      30.034  -2.863 -25.470  0.00  0.00    -0.020 C 
ATOM     27  C   UNL     1      29.045  -3.877 -24.976  0.00  0.00    -0.020 C 
ATOM     28  C   UNL     1      31.344  -4.463 -23.914  0.00  0.00    +0.071 C 
ATOM     29  C   UNL     1      29.711  -3.452 -21.731  0.00  0.00    -0.060 C 
ATOM     30  C   UNL     1      30.905  -4.371 -21.472  0.00  0.00    +0.067 C 
ATOM     31  H   UNL     1      29.112  -2.050 -23.090  0.00  0.00    -0.084 HD
ATOM     32  H   UNL     1      30.746  -2.017 -22.746  0.00  0.00    -0.084 HD
ENDBRANCH   4  24
TORSDOF 2
ENDMDL
