MODEL 1
REMARK VINA RESULT:     -12.4      0.000      0.000
REMARK  Name = 3815
REMARK  0 active torsions:
REMARK  status: ('A' for Active; 'I' for Inactive)
REMARK                            x       y       z     vdW  Elec       q    Type
REMARK                         _______ _______ _______ _____ _____    ______ ____
ROOT
ATOM      1  O   UNL     1      36.615 -22.327 -15.680  0.00  0.00    -0.270 OA
ATOM      2  N   UNL     1      30.120 -22.803 -16.454  0.00  0.00    -0.352 N 
ATOM      3  N   UNL     1      31.833 -21.522 -18.242  0.00  0.00    -0.352 N 
ATOM      4  N   UNL     1      35.552 -23.486 -13.938  0.00  0.00    -0.297 N 
ATOM      5  C   UNL     1      33.415 -23.333 -14.729  0.00  0.00    +0.003 A 
ATOM      6  C   UNL     1      32.063 -23.330 -15.069  0.00  0.00    +0.016 A 
ATOM      7  C   UNL     1      33.703 -22.106 -16.776  0.00  0.00    +0.022 A 
ATOM      8  C   UNL     1      31.452 -22.746 -16.225  0.00  0.00    +0.072 A 
ATOM      9  C   UNL     1      34.260 -22.687 -15.637  0.00  0.00    +0.053 A 
ATOM     10  C   UNL     1      32.311 -22.104 -17.120  0.00  0.00    +0.073 A 
ATOM     11  C   UNL     1      34.201 -23.882 -13.586  0.00  0.00    +0.117 C 
ATOM     12  C   UNL     1      30.810 -23.837 -14.499  0.00  0.00    +0.017 A 
ATOM     13  C   UNL     1      34.129 -21.353 -17.967  0.00  0.00    +0.017 A 
ATOM     14  C   UNL     1      29.693 -23.510 -15.337  0.00  0.00    +0.057 A 
ATOM     15  C   UNL     1      33.004 -21.031 -18.800  0.00  0.00    +0.057 A 
ATOM     16  C   UNL     1      35.626 -22.781 -15.137  0.00  0.00    +0.246 C 
ATOM     17  C   UNL     1      30.550 -24.561 -13.312  0.00  0.00    +0.001 C 
ATOM     18  C   UNL     1      35.402 -20.917 -18.408  0.00  0.00    +0.001 C 
ATOM     19  C   UNL     1      28.387 -23.891 -15.001  0.00  0.00    +0.017 C 
ATOM     20  C   UNL     1      33.152 -20.315 -19.997  0.00  0.00    +0.017 C 
ATOM     21  C   UNL     1      29.243 -24.936 -12.986  0.00  0.00    +0.000 C 
ATOM     22  C   UNL     1      35.538 -20.202 -19.602  0.00  0.00    +0.000 C 
ATOM     23  C   UNL     1      28.181 -24.605 -13.818  0.00  0.00    +0.001 C 
ATOM     24  C   UNL     1      34.429 -19.907 -20.384  0.00  0.00    +0.001 C 
ATOM     25  H   UNL     1      29.596 -22.442 -17.205  0.00  0.00    +0.166 HD
ATOM     26  H   UNL     1      30.908 -21.463 -18.573  0.00  0.00    +0.166 HD
ATOM     27  H   UNL     1      36.338 -23.695 -13.384  0.00  0.00    +0.150 HD
ENDROOT
TORSDOF 0
ENDMDL
MODEL 2
REMARK VINA RESULT:     -12.3      0.917      5.951
REMARK  Name = 3815
REMARK  0 active torsions:
REMARK  status: ('A' for Active; 'I' for Inactive)
REMARK                            x       y       z     vdW  Elec       q    Type
REMARK                         _______ _______ _______ _____ _____    ______ ____
ROOT
ATOM      1  O   UNL     1      34.205 -24.274 -12.832  0.00  0.00    -0.270 OA
ATOM      2  N   UNL     1      31.777 -21.449 -18.229  0.00  0.00    -0.352 N 
ATOM      3  N   UNL     1      30.240 -22.746 -16.299  0.00  0.00    -0.352 N 
ATOM      4  N   UNL     1      35.849 -23.295 -14.191  0.00  0.00    -0.297 N 
ATOM      5  C   UNL     1      34.465 -22.513 -15.829  0.00  0.00    +0.003 A 
ATOM      6  C   UNL     1      33.765 -21.973 -16.908  0.00  0.00    +0.016 A 
ATOM      7  C   UNL     1      32.298 -23.215 -15.061  0.00  0.00    +0.022 A 
ATOM      8  C   UNL     1      32.352 -22.009 -17.140  0.00  0.00    +0.072 A 
ATOM      9  C   UNL     1      33.679 -23.160 -14.871  0.00  0.00    +0.053 A 
ATOM     10  C   UNL     1      31.583 -22.659 -16.172  0.00  0.00    +0.073 A 
ATOM     11  C   UNL     1      35.905 -22.565 -15.444  0.00  0.00    +0.117 C 
ATOM     12  C   UNL     1      34.081 -21.230 -18.132  0.00  0.00    +0.017 A 
ATOM     13  C   UNL     1      31.100 -23.746 -14.391  0.00  0.00    +0.017 A 
ATOM     14  C   UNL     1      32.893 -20.940 -18.881  0.00  0.00    +0.057 A 
ATOM     15  C   UNL     1      29.915 -23.450 -15.149  0.00  0.00    +0.057 A 
ATOM     16  C   UNL     1      34.557 -23.662 -13.821  0.00  0.00    +0.246 C 
ATOM     17  C   UNL     1      35.316 -20.780 -18.658  0.00  0.00    +0.001 C 
ATOM     18  C   UNL     1      30.928 -24.464 -13.183  0.00  0.00    +0.001 C 
ATOM     19  C   UNL     1      32.943 -20.235 -20.092  0.00  0.00    +0.017 C 
ATOM     20  C   UNL     1      28.643 -23.853 -14.717  0.00  0.00    +0.017 C 
ATOM     21  C   UNL     1      35.353 -20.078 -19.867  0.00  0.00    +0.000 C 
ATOM     22  C   UNL     1      29.654 -24.861 -12.763  0.00  0.00    +0.000 C 
ATOM     23  C   UNL     1      34.185 -19.812 -20.570  0.00  0.00    +0.001 C 
ATOM     24  C   UNL     1      28.530 -24.559 -13.520  0.00  0.00    +0.001 C 
ATOM     25  H   UNL     1      30.829 -21.412 -18.490  0.00  0.00    +0.166 HD
ATOM     26  H   UNL     1      29.653 -22.404 -17.011  0.00  0.00    +0.166 HD
ATOM     27  H   UNL     1      36.646 -23.509 -13.654  0.00  0.00    +0.150 HD
ENDROOT
TORSDOF 0
ENDMDL
MODEL 3
REMARK VINA RESULT:     -12.2      2.209      4.724
REMARK  Name = 3815
REMARK  0 active torsions:
REMARK  status: ('A' for Active; 'I' for Inactive)
REMARK                            x       y       z     vdW  Elec       q    Type
REMARK                         _______ _______ _______ _____ _____    ______ ____
ROOT
ATOM      1  O   UNL     1      30.151 -22.408 -16.309  0.00  0.00    -0.270 OA
ATOM      2  N   UNL     1      36.529 -23.164 -14.985  0.00  0.00    -0.352 N 
ATOM      3  N   UNL     1      35.528 -21.840 -17.224  0.00  0.00    -0.352 N 
ATOM      4  N   UNL     1      30.556 -23.589 -14.321  0.00  0.00    -0.297 N 
ATOM      5  C   UNL     1      32.837 -23.534 -14.394  0.00  0.00    +0.003 A 
ATOM      6  C   UNL     1      34.226 -23.590 -14.286  0.00  0.00    +0.016 A 
ATOM      7  C   UNL     1      33.266 -22.324 -16.426  0.00  0.00    +0.022 A 
ATOM      8  C   UNL     1      35.196 -23.049 -15.190  0.00  0.00    +0.072 A 
ATOM      9  C   UNL     1      32.352 -22.865 -15.522  0.00  0.00    +0.053 A 
ATOM     10  C   UNL     1      34.694 -22.385 -16.312  0.00  0.00    +0.073 A 
ATOM     11  C   UNL     1      31.707 -24.036 -13.559  0.00  0.00    +0.117 C 
ATOM     12  C   UNL     1      35.211 -24.142 -13.350  0.00  0.00    +0.017 A 
ATOM     13  C   UNL     1      33.272 -21.574 -17.692  0.00  0.00    +0.017 A 
ATOM     14  C   UNL     1      36.549 -23.874 -13.791  0.00  0.00    +0.057 A 
ATOM     15  C   UNL     1      34.616 -21.310 -18.126  0.00  0.00    +0.057 A 
ATOM     16  C   UNL     1      30.895 -22.897 -15.482  0.00  0.00    +0.246 C 
ATOM     17  C   UNL     1      35.050 -24.861 -12.142  0.00  0.00    +0.001 C 
ATOM     18  C   UNL     1      32.225 -21.091 -18.514  0.00  0.00    +0.001 C 
ATOM     19  C   UNL     1      37.664 -24.304 -13.058  0.00  0.00    +0.017 C 
ATOM     20  C   UNL     1      34.886 -20.607 -19.309  0.00  0.00    +0.017 C 
ATOM     21  C   UNL     1      36.169 -25.285 -11.418  0.00  0.00    +0.000 C 
ATOM     22  C   UNL     1      32.505 -20.392 -19.692  0.00  0.00    +0.000 C 
ATOM     23  C   UNL     1      37.453 -25.010 -11.871  0.00  0.00    +0.001 C 
ATOM     24  C   UNL     1      33.817 -20.155 -20.082  0.00  0.00    +0.001 C 
ATOM     25  H   UNL     1      37.279 -22.836 -15.531  0.00  0.00    +0.166 HD
ATOM     26  H   UNL     1      36.511 -21.822 -17.245  0.00  0.00    +0.166 HD
ATOM     27  H   UNL     1      29.626 -23.757 -14.045  0.00  0.00    +0.150 HD
ENDROOT
TORSDOF 0
ENDMDL
MODEL 4
REMARK VINA RESULT:     -12.1      2.206      6.314
REMARK  Name = 3815
REMARK  0 active torsions:
REMARK  status: ('A' for Active; 'I' for Inactive)
REMARK                            x       y       z     vdW  Elec       q    Type
REMARK                         _______ _______ _______ _____ _____    ______ ____
ROOT
ATOM      1  O   UNL     1      31.818 -24.653 -12.450  0.00  0.00    -0.270 OA
ATOM      2  N   UNL     1      35.468 -21.908 -17.156  0.00  0.00    -0.352 N 
ATOM      3  N   UNL     1      36.499 -23.205 -14.913  0.00  0.00    -0.352 N 
ATOM      4  N   UNL     1      30.547 -23.666 -14.157  0.00  0.00    -0.297 N 
ATOM      5  C   UNL     1      32.284 -22.917 -15.437  0.00  0.00    +0.003 A 
ATOM      6  C   UNL     1      33.222 -22.398 -16.328  0.00  0.00    +0.016 A 
ATOM      7  C   UNL     1      34.204 -23.638 -14.183  0.00  0.00    +0.022 A 
ATOM      8  C   UNL     1      34.649 -22.451 -16.226  0.00  0.00    +0.072 A 
ATOM      9  C   UNL     1      32.817 -23.565 -14.319  0.00  0.00    +0.053 A 
ATOM     10  C   UNL     1      35.164 -23.101 -15.102  0.00  0.00    +0.073 A 
ATOM     11  C   UNL     1      30.793 -22.947 -15.394  0.00  0.00    +0.117 C 
ATOM     12  C   UNL     1      33.207 -21.661 -17.596  0.00  0.00    +0.017 A 
ATOM     13  C   UNL     1      35.207 -24.174 -13.249  0.00  0.00    +0.017 A 
ATOM     14  C   UNL     1      34.540 -21.391 -18.051  0.00  0.00    +0.057 A 
ATOM     15  C   UNL     1      36.538 -23.899 -13.713  0.00  0.00    +0.057 A 
ATOM     16  C   UNL     1      31.713 -24.045 -13.497  0.00  0.00    +0.246 C 
ATOM     17  C   UNL     1      32.134 -21.200 -18.396  0.00  0.00    +0.001 C 
ATOM     18  C   UNL     1      35.084 -24.882 -12.029  0.00  0.00    +0.001 C 
ATOM     19  C   UNL     1      34.782 -20.698 -19.245  0.00  0.00    +0.017 C 
ATOM     20  C   UNL     1      37.671 -24.310 -12.995  0.00  0.00    +0.017 C 
ATOM     21  C   UNL     1      32.387 -20.509 -19.585  0.00  0.00    +0.000 C 
ATOM     22  C   UNL     1      36.220 -25.287 -11.320  0.00  0.00    +0.000 C 
ATOM     23  C   UNL     1      33.691 -20.263 -20.000  0.00  0.00    +0.001 C 
ATOM     24  C   UNL     1      37.494 -25.004 -11.798  0.00  0.00    +0.001 C 
ATOM     25  H   UNL     1      36.452 -21.884 -17.189  0.00  0.00    +0.166 HD
ATOM     26  H   UNL     1      37.239 -22.878 -15.473  0.00  0.00    +0.166 HD
ATOM     27  H   UNL     1      29.644 -23.866 -13.819  0.00  0.00    +0.150 HD
ENDROOT
TORSDOF 0
ENDMDL
MODEL 5
REMARK VINA RESULT:     -10.8      1.848      4.692
REMARK  Name = 3815
REMARK  0 active torsions:
REMARK  status: ('A' for Active; 'I' for Inactive)
REMARK                            x       y       z     vdW  Elec       q    Type
REMARK                         _______ _______ _______ _____ _____    ______ ____
ROOT
ATOM      1  O   UNL     1      35.875 -22.036 -17.003  0.00  0.00    -0.270 OA
ATOM      2  N   UNL     1      30.922 -24.382 -13.401  0.00  0.00    -0.352 N 
ATOM      3  N   UNL     1      33.618 -24.660 -12.749  0.00  0.00    -0.352 N 
ATOM      4  N   UNL     1      33.761 -21.580 -17.916  0.00  0.00    -0.297 N 
ATOM      5  C   UNL     1      32.506 -22.593 -16.300  0.00  0.00    +0.003 A 
ATOM      6  C   UNL     1      31.599 -23.160 -15.406  0.00  0.00    +0.016 A 
ATOM      7  C   UNL     1      34.177 -23.425 -14.786  0.00  0.00    +0.022 A 
ATOM      8  C   UNL     1      31.889 -23.869 -14.197  0.00  0.00    +0.072 A 
ATOM      9  C   UNL     1      33.853 -22.740 -15.957  0.00  0.00    +0.053 A 
ATOM     10  C   UNL     1      33.240 -24.008 -13.870  0.00  0.00    +0.073 A 
ATOM     11  C   UNL     1      32.373 -21.837 -17.579  0.00  0.00    +0.117 C 
ATOM     12  C   UNL     1      30.142 -23.291 -15.289  0.00  0.00    +0.017 A 
ATOM     13  C   UNL     1      35.369 -23.831 -14.024  0.00  0.00    +0.017 A 
ATOM     14  C   UNL     1      29.783 -24.012 -14.103  0.00  0.00    +0.057 A 
ATOM     15  C   UNL     1      34.998 -24.552 -12.838  0.00  0.00    +0.057 A 
ATOM     16  C   UNL     1      34.661 -22.096 -16.986  0.00  0.00    +0.246 C 
ATOM     17  C   UNL     1      29.094 -22.837 -16.125  0.00  0.00    +0.001 C 
ATOM     18  C   UNL     1      36.753 -23.638 -14.253  0.00  0.00    +0.001 C 
ATOM     19  C   UNL     1      28.443 -24.262 -13.775  0.00  0.00    +0.017 C 
ATOM     20  C   UNL     1      35.959 -25.047 -11.943  0.00  0.00    +0.017 C 
ATOM     21  C   UNL     1      27.762 -23.092 -15.788  0.00  0.00    +0.000 C 
ATOM     22  C   UNL     1      37.702 -24.136 -13.355  0.00  0.00    +0.000 C 
ATOM     23  C   UNL     1      27.444 -23.794 -14.631  0.00  0.00    +0.001 C 
ATOM     24  C   UNL     1      37.309 -24.830 -12.218  0.00  0.00    +0.001 C 
ATOM     25  H   UNL     1      31.003 -24.882 -12.557  0.00  0.00    +0.166 HD
ATOM     26  H   UNL     1      33.067 -25.093 -12.058  0.00  0.00    +0.166 HD
ATOM     27  H   UNL     1      34.040 -21.088 -18.722  0.00  0.00    +0.150 HD
ENDROOT
TORSDOF 0
ENDMDL
MODEL 6
REMARK VINA RESULT:      -9.5     13.122     16.952
REMARK  Name = 3815
REMARK  0 active torsions:
REMARK  status: ('A' for Active; 'I' for Inactive)
REMARK                            x       y       z     vdW  Elec       q    Type
REMARK                         _______ _______ _______ _____ _____    ______ ____
ROOT
ATOM      1  O   UNL     1      30.588  -7.782 -18.400  0.00  0.00    -0.270 OA
ATOM      2  N   UNL     1      32.950  -8.082 -24.511  0.00  0.00    -0.352 N 
ATOM      3  N   UNL     1      32.342 -10.305 -22.942  0.00  0.00    -0.352 N 
ATOM      4  N   UNL     1      30.963  -5.672 -19.358  0.00  0.00    -0.297 N 
ATOM      5  C   UNL     1      31.743  -6.390 -21.381  0.00  0.00    +0.003 A 
ATOM      6  C   UNL     1      32.235  -6.658 -22.657  0.00  0.00    +0.016 A 
ATOM      7  C   UNL     1      31.652  -8.782 -21.155  0.00  0.00    +0.022 A 
ATOM      8  C   UNL     1      32.465  -7.939 -23.255  0.00  0.00    +0.072 A 
ATOM      9  C   UNL     1      31.442  -7.516 -20.608  0.00  0.00    +0.053 A 
ATOM     10  C   UNL     1      32.160  -9.052 -22.469  0.00  0.00    +0.073 A 
ATOM     11  C   UNL     1      31.450  -5.142 -20.618  0.00  0.00    +0.117 C 
ATOM     12  C   UNL     1      32.686  -5.887 -23.820  0.00  0.00    +0.017 A 
ATOM     13  C   UNL     1      31.508 -10.198 -20.781  0.00  0.00    +0.017 A 
ATOM     14  C   UNL     1      33.097  -6.753 -24.886  0.00  0.00    +0.057 A 
ATOM     15  C   UNL     1      31.922 -11.057 -21.855  0.00  0.00    +0.057 A 
ATOM     16  C   UNL     1      30.944  -7.064 -19.315  0.00  0.00    +0.246 C 
ATOM     17  C   UNL     1      32.773  -4.491 -24.037  0.00  0.00    +0.001 C 
ATOM     18  C   UNL     1      31.049 -10.823 -19.597  0.00  0.00    +0.001 C 
ATOM     19  C   UNL     1      33.569  -6.244 -26.105  0.00  0.00    +0.017 C 
ATOM     20  C   UNL     1      31.878 -12.455 -21.742  0.00  0.00    +0.017 C 
ATOM     21  C   UNL     1      33.244  -3.995 -25.257  0.00  0.00    +0.000 C 
ATOM     22  C   UNL     1      31.010 -12.218 -19.494  0.00  0.00    +0.000 C 
ATOM     23  C   UNL     1      33.636  -4.859 -26.272  0.00  0.00    +0.001 C 
ATOM     24  C   UNL     1      31.418 -13.020 -20.552  0.00  0.00    +0.001 C 
ATOM     25  H   UNL     1      33.145  -8.902 -25.019  0.00  0.00    +0.166 HD
ATOM     26  H   UNL     1      32.679 -10.603 -23.818  0.00  0.00    +0.166 HD
ATOM     27  H   UNL     1      30.674  -5.104 -18.608  0.00  0.00    +0.150 HD
ENDROOT
TORSDOF 0
ENDMDL
