MODEL 1
REMARK VINA RESULT:     -11.0      0.000      0.000
REMARK  Name = 15984937
REMARK  6 active torsions:
REMARK  status: ('A' for Active; 'I' for Inactive)
REMARK    1  A    between atoms: C_1  and  C_9
REMARK    2  A    between atoms: C_1  and  C_20
REMARK    3  A    between atoms: C_4  and  N_10
REMARK    4  A    between atoms: N_10  and  C_13
REMARK    5  A    between atoms: C_19  and  C_25
REMARK    6  A    between atoms: C_25  and  N_26
REMARK                            x       y       z     vdW  Elec       q    Type
REMARK                         _______ _______ _______ _____ _____    ______ ____
ROOT
ATOM      1  C   UNL     1      35.092 -18.796 -20.709  0.00  0.00    +0.112 C 
ENDROOT
BRANCH   1   9
ATOM      2  O   UNL     1      34.449 -19.639 -22.828  0.00  0.00    -0.275 OA
ATOM      3  N   UNL     1      33.868 -17.436 -22.370  0.00  0.00    -0.279 N 
ATOM      4  C   UNL     1      33.837 -14.777 -23.549  0.00  0.00    +0.072 C 
ATOM      5  C   UNL     1      34.464 -15.052 -22.179  0.00  0.00    +0.041 C 
ATOM      6  C   UNL     1      33.784 -16.047 -24.406  0.00  0.00    +0.041 C 
ATOM      7  C   UNL     1      33.846 -16.267 -21.484  0.00  0.00    +0.095 C 
ATOM      8  C   UNL     1      33.197 -17.242 -23.655  0.00  0.00    +0.095 C 
ATOM      9  C   UNL     1      34.443 -18.670 -22.064  0.00  0.00    +0.230 C 
BRANCH   4  10
ATOM     10  N   UNL     1      32.507 -14.224 -23.383  0.00  0.00    -0.334 N 
ATOM     11  H   UNL     1      31.743 -14.732 -23.744  0.00  0.00    +0.147 HD
BRANCH  10  13
ATOM     12  F   UNL     1      30.481 -11.740 -19.813  0.00  0.00    -0.204 F 
ATOM     13  C   UNL     1      32.252 -13.023 -22.748  0.00  0.00    +0.047 C 
ATOM     14  C   UNL     1      31.477 -12.975 -21.571  0.00  0.00    +0.044 C 
ATOM     15  C   UNL     1      32.758 -11.811 -23.258  0.00  0.00    +0.014 C 
ATOM     16  C   UNL     1      31.219 -11.763 -20.932  0.00  0.00    +0.141 C 
ATOM     17  C   UNL     1      32.499 -10.599 -22.618  0.00  0.00    +0.004 C 
ATOM     18  C   UNL     1      31.730 -10.575 -21.454  0.00  0.00    +0.030 C 
ENDBRANCH  10  13
ENDBRANCH   4  10
ENDBRANCH   1   9
BRANCH   1  20
ATOM     19  C   UNL     1      33.148 -21.816 -18.381  0.00  0.00    -0.043 C 
ATOM     20  C   UNL     1      34.412 -19.852 -19.896  0.00  0.00    -0.013 C 
ATOM     21  C   UNL     1      34.541 -21.752 -18.417  0.00  0.00    -0.007 C 
ATOM     22  C   UNL     1      32.389 -20.896 -19.103  0.00  0.00    -0.007 C 
ATOM     23  C   UNL     1      35.175 -20.768 -19.175  0.00  0.00    -0.004 C 
ATOM     24  C   UNL     1      33.022 -19.912 -19.863  0.00  0.00    -0.004 C 
BRANCH  19  25
ATOM     25  C   UNL     1      32.471 -22.869 -17.570  0.00  0.00    -0.050 C 
BRANCH  25  26
ATOM     26  N   UNL     1      32.438 -22.539 -16.146  0.00  0.00    +0.387 N 
ATOM     27  N   UNL     1      32.041 -23.187 -13.359  0.00  0.00    +0.382 N 
ATOM     28  C   UNL     1      33.388 -22.989 -13.905  0.00  0.00    -0.083 C 
ATOM     29  C   UNL     1      33.422 -23.338 -15.403  0.00  0.00    -0.099 C 
ATOM     30  C   UNL     1      31.092 -22.743 -15.596  0.00  0.00    -0.101 C 
ATOM     31  C   UNL     1      31.057 -22.404 -14.105  0.00  0.00    -0.105 C 
ATOM     32  C   UNL     1      34.374 -23.859 -13.127  0.00  0.00    -0.026 C 
ATOM     33  H   UNL     1      32.680 -21.554 -16.044  0.00  0.00    -0.079 HD
ATOM     34  H   UNL     1      32.029 -22.894 -12.382  0.00  0.00    -0.085 HD
ATOM     35  H   UNL     1      31.798 -24.174 -13.437  0.00  0.00    -0.085 HD
ENDBRANCH  25  26
ENDBRANCH  19  25
ENDBRANCH   1  20
TORSDOF 6
ENDMDL
MODEL 2
REMARK VINA RESULT:     -11.0      4.815      8.884
REMARK  Name = 15984937
REMARK  6 active torsions:
REMARK  status: ('A' for Active; 'I' for Inactive)
REMARK    1  A    between atoms: C_1  and  C_9
REMARK    2  A    between atoms: C_1  and  C_20
REMARK    3  A    between atoms: C_4  and  N_10
REMARK    4  A    between atoms: N_10  and  C_13
REMARK    5  A    between atoms: C_19  and  C_25
REMARK    6  A    between atoms: C_25  and  N_26
REMARK                            x       y       z     vdW  Elec       q    Type
REMARK                         _______ _______ _______ _____ _____    ______ ____
ROOT
ATOM      1  C   UNL     1      30.160 -11.312 -20.339  0.00  0.00    +0.112 C 
ENDROOT
BRANCH   1   9
ATOM      2  O   UNL     1      30.760 -10.350 -18.258  0.00  0.00    -0.275 OA
ATOM      3  N   UNL     1      31.216  -9.086 -20.155  0.00  0.00    -0.279 N 
ATOM      4  C   UNL     1      31.022  -6.384 -21.214  0.00  0.00    +0.072 C 
ATOM      5  C   UNL     1      30.476  -7.598 -21.975  0.00  0.00    +0.041 C 
ATOM      6  C   UNL     1      31.118  -6.662 -19.710  0.00  0.00    +0.041 C 
ATOM      7  C   UNL     1      31.202  -8.894 -21.609  0.00  0.00    +0.095 C 
ATOM      8  C   UNL     1      31.815  -7.987 -19.398  0.00  0.00    +0.095 C 
ATOM      9  C   UNL     1      30.738 -10.212 -19.485  0.00  0.00    +0.230 C 
BRANCH   4  10
ATOM     10  N   UNL     1      32.319  -6.012 -21.743  0.00  0.00    -0.334 N 
ATOM     11  H   UNL     1      33.123  -6.297 -21.250  0.00  0.00    +0.147 HD
BRANCH  10  13
ATOM     12  F   UNL     1      34.812  -5.006 -25.717  0.00  0.00    -0.204 F 
ATOM     13  C   UNL     1      32.490  -5.276 -22.902  0.00  0.00    +0.047 C 
ATOM     14  C   UNL     1      33.588  -5.510 -23.754  0.00  0.00    +0.044 C 
ATOM     15  C   UNL     1      31.573  -4.270 -23.265  0.00  0.00    +0.014 C 
ATOM     16  C   UNL     1      33.761  -4.767 -24.921  0.00  0.00    +0.141 C 
ATOM     17  C   UNL     1      31.746  -3.527 -24.432  0.00  0.00    +0.004 C 
ATOM     18  C   UNL     1      32.841  -3.776 -25.260  0.00  0.00    +0.030 C 
ENDBRANCH  10  13
ENDBRANCH   4  10
ENDBRANCH   1   9
BRANCH   1  20
ATOM     19  C   UNL     1      33.209 -14.088 -21.488  0.00  0.00    -0.043 C 
ATOM     20  C   UNL     1      31.226 -12.282 -20.740  0.00  0.00    -0.013 C 
ATOM     21  C   UNL     1      32.651 -14.154 -20.211  0.00  0.00    -0.007 C 
ATOM     22  C   UNL     1      32.773 -13.118 -22.390  0.00  0.00    -0.007 C 
ATOM     23  C   UNL     1      31.658 -13.250 -19.836  0.00  0.00    -0.004 C 
ATOM     24  C   UNL     1      31.780 -12.213 -22.016  0.00  0.00    -0.004 C 
BRANCH  19  25
ATOM     25  C   UNL     1      34.271 -15.055 -21.888  0.00  0.00    -0.050 C 
BRANCH  25  26
ATOM     26  N   UNL     1      33.760 -16.418 -22.028  0.00  0.00    +0.387 N 
ATOM     27  N   UNL     1      34.057 -19.239 -22.573  0.00  0.00    +0.382 N 
ATOM     28  C   UNL     1      33.860 -18.750 -21.204  0.00  0.00    -0.083 C 
ATOM     29  C   UNL     1      34.400 -17.317 -21.058  0.00  0.00    -0.099 C 
ATOM     30  C   UNL     1      33.962 -16.912 -23.396  0.00  0.00    -0.101 C 
ATOM     31  C   UNL     1      33.433 -18.339 -23.542  0.00  0.00    -0.105 C 
ATOM     32  C   UNL     1      34.566 -19.693 -20.231  0.00  0.00    -0.026 C 
ATOM     33  H   UNL     1      32.758 -16.400 -21.838  0.00  0.00    -0.079 HD
ATOM     34  H   UNL     1      33.640 -20.165 -22.661  0.00  0.00    -0.085 HD
ATOM     35  H   UNL     1      35.058 -19.280 -22.765  0.00  0.00    -0.085 HD
ENDBRANCH  25  26
ENDBRANCH  19  25
ENDBRANCH   1  20
TORSDOF 6
ENDMDL
MODEL 3
REMARK VINA RESULT:     -10.7      2.485      4.098
REMARK  Name = 15984937
REMARK  6 active torsions:
REMARK  status: ('A' for Active; 'I' for Inactive)
REMARK    1  A    between atoms: C_1  and  C_9
REMARK    2  A    between atoms: C_1  and  C_20
REMARK    3  A    between atoms: C_4  and  N_10
REMARK    4  A    between atoms: N_10  and  C_13
REMARK    5  A    between atoms: C_19  and  C_25
REMARK    6  A    between atoms: C_25  and  N_26
REMARK                            x       y       z     vdW  Elec       q    Type
REMARK                         _______ _______ _______ _____ _____    ______ ____
ROOT
ATOM      1  C   UNL     1      35.304 -21.217 -18.847  0.00  0.00    +0.112 C 
ENDROOT
BRANCH   1   9
ATOM      2  O   UNL     1      33.006 -21.040 -19.395  0.00  0.00    -0.275 OA
ATOM      3  N   UNL     1      34.395 -19.359 -20.199  0.00  0.00    -0.279 N 
ATOM      4  C   UNL     1      34.963 -17.796 -22.585  0.00  0.00    +0.072 C 
ATOM      5  C   UNL     1      36.062 -18.540 -21.820  0.00  0.00    +0.041 C 
ATOM      6  C   UNL     1      33.584 -18.412 -22.327  0.00  0.00    +0.041 C 
ATOM      7  C   UNL     1      35.717 -18.738 -20.343  0.00  0.00    +0.095 C 
ATOM      8  C   UNL     1      33.302 -18.627 -20.839  0.00  0.00    +0.095 C 
ATOM      9  C   UNL     1      34.128 -20.537 -19.501  0.00  0.00    +0.230 C 
BRANCH   4  10
ATOM     10  N   UNL     1      34.967 -16.393 -22.217  0.00  0.00    -0.334 N 
ATOM     11  H   UNL     1      35.619 -16.091 -21.543  0.00  0.00    +0.147 HD
BRANCH  10  13
ATOM     12  F   UNL     1      32.388 -14.742 -25.910  0.00  0.00    -0.204 F 
ATOM     13  C   UNL     1      34.104 -15.458 -22.758  0.00  0.00    +0.047 C 
ATOM     14  C   UNL     1      33.664 -15.565 -24.093  0.00  0.00    +0.044 C 
ATOM     15  C   UNL     1      33.640 -14.370 -21.993  0.00  0.00    +0.014 C 
ATOM     16  C   UNL     1      32.795 -14.621 -24.639  0.00  0.00    +0.141 C 
ATOM     17  C   UNL     1      32.771 -13.426 -22.539  0.00  0.00    +0.004 C 
ATOM     18  C   UNL     1      32.349 -13.552 -23.863  0.00  0.00    +0.030 C 
ENDBRANCH  10  13
ENDBRANCH   4  10
ENDBRANCH   1   9
BRANCH   1  20
ATOM     19  C   UNL     1      34.256 -22.619 -14.941  0.00  0.00    -0.043 C 
ATOM     20  C   UNL     1      34.938 -21.706 -17.482  0.00  0.00    -0.013 C 
ATOM     21  C   UNL     1      33.361 -22.770 -16.000  0.00  0.00    -0.007 C 
ATOM     22  C   UNL     1      35.493 -22.010 -15.155  0.00  0.00    -0.007 C 
ATOM     23  C   UNL     1      33.702 -22.314 -17.273  0.00  0.00    -0.004 C 
ATOM     24  C   UNL     1      35.834 -21.552 -16.428  0.00  0.00    -0.004 C 
BRANCH  19  25
ATOM     25  C   UNL     1      33.891 -23.106 -13.580  0.00  0.00    -0.050 C 
BRANCH  25  26
ATOM     26  N   UNL     1      35.038 -23.136 -12.673  0.00  0.00    +0.387 N 
ATOM     27  N   UNL     1      36.766 -24.416 -10.744  0.00  0.00    +0.382 N 
ATOM     28  C   UNL     1      37.204 -24.201 -12.127  0.00  0.00    -0.083 C 
ATOM     29  C   UNL     1      35.998 -24.172 -13.080  0.00  0.00    -0.099 C 
ATOM     30  C   UNL     1      34.601 -23.358 -11.289  0.00  0.00    -0.101 C 
ATOM     31  C   UNL     1      35.799 -23.395 -10.340  0.00  0.00    -0.105 C 
ATOM     32  C   UNL     1      38.174 -25.314 -12.521  0.00  0.00    -0.026 C 
ATOM     33  H   UNL     1      35.503 -22.230 -12.721  0.00  0.00    -0.079 HD
ATOM     34  H   UNL     1      37.575 -24.373 -10.125  0.00  0.00    -0.085 HD
ATOM     35  H   UNL     1      36.318 -25.330 -10.682  0.00  0.00    -0.085 HD
ENDBRANCH  25  26
ENDBRANCH  19  25
ENDBRANCH   1  20
TORSDOF 6
ENDMDL
MODEL 4
REMARK VINA RESULT:     -10.7      2.219      3.855
REMARK  Name = 15984937
REMARK  6 active torsions:
REMARK  status: ('A' for Active; 'I' for Inactive)
REMARK    1  A    between atoms: C_1  and  C_9
REMARK    2  A    between atoms: C_1  and  C_20
REMARK    3  A    between atoms: C_4  and  N_10
REMARK    4  A    between atoms: N_10  and  C_13
REMARK    5  A    between atoms: C_19  and  C_25
REMARK    6  A    between atoms: C_25  and  N_26
REMARK                            x       y       z     vdW  Elec       q    Type
REMARK                         _______ _______ _______ _____ _____    ______ ____
ROOT
ATOM      1  C   UNL     1      35.351 -21.170 -18.807  0.00  0.00    +0.112 C 
ENDROOT
BRANCH   1   9
ATOM      2  O   UNL     1      33.060 -21.102 -19.407  0.00  0.00    -0.275 OA
ATOM      3  N   UNL     1      34.392 -19.373 -20.205  0.00  0.00    -0.279 N 
ATOM      4  C   UNL     1      34.944 -17.818 -22.600  0.00  0.00    +0.072 C 
ATOM      5  C   UNL     1      36.057 -18.503 -21.800  0.00  0.00    +0.041 C 
ATOM      6  C   UNL     1      33.587 -18.490 -22.362  0.00  0.00    +0.041 C 
ATOM      7  C   UNL     1      35.688 -18.696 -20.328  0.00  0.00    +0.095 C 
ATOM      8  C   UNL     1      33.282 -18.698 -20.879  0.00  0.00    +0.095 C 
ATOM      9  C   UNL     1      34.161 -20.552 -19.495  0.00  0.00    +0.230 C 
BRANCH   4  10
ATOM     10  N   UNL     1      34.878 -16.412 -22.251  0.00  0.00    -0.334 N 
ATOM     11  H   UNL     1      35.452 -16.086 -21.519  0.00  0.00    +0.147 HD
BRANCH  10  13
ATOM     12  F   UNL     1      32.284 -12.376 -22.193  0.00  0.00    -0.204 F 
ATOM     13  C   UNL     1      34.053 -15.504 -22.889  0.00  0.00    +0.047 C 
ATOM     14  C   UNL     1      33.567 -14.367 -22.212  0.00  0.00    +0.044 C 
ATOM     15  C   UNL     1      33.673 -15.687 -24.233  0.00  0.00    +0.014 C 
ATOM     16  C   UNL     1      32.734 -13.451 -22.855  0.00  0.00    +0.141 C 
ATOM     17  C   UNL     1      32.840 -14.772 -24.875  0.00  0.00    +0.004 C 
ATOM     18  C   UNL     1      32.370 -13.654 -24.186  0.00  0.00    +0.030 C 
ENDBRANCH  10  13
ENDBRANCH   4  10
ENDBRANCH   1   9
BRANCH   1  20
ATOM     19  C   UNL     1      34.268 -22.604 -14.922  0.00  0.00    -0.043 C 
ATOM     20  C   UNL     1      34.973 -21.672 -17.449  0.00  0.00    -0.013 C 
ATOM     21  C   UNL     1      35.503 -21.986 -15.118  0.00  0.00    -0.007 C 
ATOM     22  C   UNL     1      33.386 -22.755 -15.992  0.00  0.00    -0.007 C 
ATOM     23  C   UNL     1      35.856 -21.519 -16.383  0.00  0.00    -0.004 C 
ATOM     24  C   UNL     1      33.739 -22.289 -17.258  0.00  0.00    -0.004 C 
BRANCH  19  25
ATOM     25  C   UNL     1      33.891 -23.105 -13.569  0.00  0.00    -0.050 C 
BRANCH  25  26
ATOM     26  N   UNL     1      35.031 -23.151 -12.655  0.00  0.00    +0.387 N 
ATOM     27  N   UNL     1      36.759 -24.471 -10.754  0.00  0.00    +0.382 N 
ATOM     28  C   UNL     1      37.206 -24.207 -12.126  0.00  0.00    -0.083 C 
ATOM     29  C   UNL     1      36.006 -24.161 -13.087  0.00  0.00    -0.099 C 
ATOM     30  C   UNL     1      34.586 -23.421 -11.282  0.00  0.00    -0.101 C 
ATOM     31  C   UNL     1      35.778 -23.475 -10.325  0.00  0.00    -0.105 C 
ATOM     32  C   UNL     1      38.191 -25.295 -12.547  0.00  0.00    -0.026 C 
ATOM     33  H   UNL     1      35.485 -22.238 -12.670  0.00  0.00    -0.079 HD
ATOM     34  H   UNL     1      37.563 -24.439 -10.127  0.00  0.00    -0.085 HD
ATOM     35  H   UNL     1      36.322 -25.392 -10.724  0.00  0.00    -0.085 HD
ENDBRANCH  25  26
ENDBRANCH  19  25
ENDBRANCH   1  20
TORSDOF 6
ENDMDL
MODEL 5
REMARK VINA RESULT:     -10.5      3.620     11.458
REMARK  Name = 15984937
REMARK  6 active torsions:
REMARK  status: ('A' for Active; 'I' for Inactive)
REMARK    1  A    between atoms: C_1  and  C_9
REMARK    2  A    between atoms: C_1  and  C_20
REMARK    3  A    between atoms: C_4  and  N_10
REMARK    4  A    between atoms: N_10  and  C_13
REMARK    5  A    between atoms: C_19  and  C_25
REMARK    6  A    between atoms: C_25  and  N_26
REMARK                            x       y       z     vdW  Elec       q    Type
REMARK                         _______ _______ _______ _____ _____    ______ ____
ROOT
ATOM      1  C   UNL     1      35.028 -20.643 -18.682  0.00  0.00    +0.112 C 
ENDROOT
BRANCH   1   9
ATOM      2  O   UNL     1      32.796 -21.319 -19.103  0.00  0.00    -0.275 OA
ATOM      3  N   UNL     1      33.818 -22.231 -17.225  0.00  0.00    -0.279 N 
ATOM      4  C   UNL     1      33.346 -22.833 -14.419  0.00  0.00    +0.072 C 
ATOM      5  C   UNL     1      34.574 -22.045 -14.887  0.00  0.00    +0.041 C 
ATOM      6  C   UNL     1      32.201 -22.741 -15.434  0.00  0.00    +0.041 C 
ATOM      7  C   UNL     1      34.969 -22.376 -16.327  0.00  0.00    +0.095 C 
ATOM      8  C   UNL     1      32.654 -23.040 -16.864  0.00  0.00    +0.095 C 
ATOM      9  C   UNL     1      33.778 -21.424 -18.363  0.00  0.00    +0.230 C 
BRANCH   4  10
ATOM     10  N   UNL     1      33.705 -24.218 -14.187  0.00  0.00    -0.334 N 
ATOM     11  H   UNL     1      33.151 -24.919 -14.602  0.00  0.00    +0.147 HD
BRANCH  10  13
ATOM     12  F   UNL     1      38.047 -26.219 -13.790  0.00  0.00    -0.204 F 
ATOM     13  C   UNL     1      34.782 -24.609 -13.413  0.00  0.00    +0.047 C 
ATOM     14  C   UNL     1      35.904 -25.233 -13.996  0.00  0.00    +0.044 C 
ATOM     15  C   UNL     1      34.791 -24.397 -12.021  0.00  0.00    +0.014 C 
ATOM     16  C   UNL     1      36.990 -25.629 -13.215  0.00  0.00    +0.141 C 
ATOM     17  C   UNL     1      35.877 -24.793 -11.240  0.00  0.00    +0.004 C 
ATOM     18  C   UNL     1      36.977 -25.409 -11.839  0.00  0.00    +0.030 C 
ENDBRANCH  10  13
ENDBRANCH   4  10
ENDBRANCH   1   9
BRANCH   1  20
ATOM     19  C   UNL     1      34.456 -18.249 -22.184  0.00  0.00    -0.043 C 
ATOM     20  C   UNL     1      34.828 -19.806 -19.906  0.00  0.00    -0.013 C 
ATOM     21  C   UNL     1      35.705 -18.291 -21.565  0.00  0.00    -0.007 C 
ATOM     22  C   UNL     1      33.394 -18.987 -21.663  0.00  0.00    -0.007 C 
ATOM     23  C   UNL     1      35.892 -19.071 -20.423  0.00  0.00    -0.004 C 
ATOM     24  C   UNL     1      33.580 -19.766 -20.521  0.00  0.00    -0.004 C 
BRANCH  19  25
ATOM     25  C   UNL     1      34.257 -17.415 -23.404  0.00  0.00    -0.050 C 
BRANCH  25  26
ATOM     26  N   UNL     1      33.500 -16.195 -23.126  0.00  0.00    +0.387 N 
ATOM     27  N   UNL     1      33.182 -13.326 -23.020  0.00  0.00    +0.382 N 
ATOM     28  C   UNL     1      32.519 -14.123 -24.058  0.00  0.00    -0.083 C 
ATOM     29  C   UNL     1      33.318 -15.404 -24.351  0.00  0.00    -0.099 C 
ATOM     30  C   UNL     1      34.166 -15.393 -22.092  0.00  0.00    -0.101 C 
ATOM     31  C   UNL     1      33.377 -14.115 -21.805  0.00  0.00    -0.105 C 
ATOM     32  C   UNL     1      32.377 -13.276 -25.322  0.00  0.00    -0.026 C 
ATOM     33  H   UNL     1      32.580 -16.467 -22.779  0.00  0.00    -0.079 HD
ATOM     34  H   UNL     1      32.606 -12.514 -22.803  0.00  0.00    -0.085 HD
ATOM     35  H   UNL     1      34.095 -13.032 -23.368  0.00  0.00    -0.085 HD
ENDBRANCH  25  26
ENDBRANCH  19  25
ENDBRANCH   1  20
TORSDOF 6
ENDMDL
MODEL 6
REMARK VINA RESULT:     -10.3      2.824     10.640
REMARK  Name = 15984937
REMARK  6 active torsions:
REMARK  status: ('A' for Active; 'I' for Inactive)
REMARK    1  A    between atoms: C_1  and  C_9
REMARK    2  A    between atoms: C_1  and  C_20
REMARK    3  A    between atoms: C_4  and  N_10
REMARK    4  A    between atoms: N_10  and  C_13
REMARK    5  A    between atoms: C_19  and  C_25
REMARK    6  A    between atoms: C_25  and  N_26
REMARK                            x       y       z     vdW  Elec       q    Type
REMARK                         _______ _______ _______ _____ _____    ______ ____
ROOT
ATOM      1  C   UNL     1      34.511 -21.715 -18.620  0.00  0.00    +0.112 C 
ENDROOT
BRANCH   1   9
ATOM      2  O   UNL     1      36.196 -20.811 -17.222  0.00  0.00    -0.275 OA
ATOM      3  N   UNL     1      34.461 -21.933 -16.159  0.00  0.00    -0.279 N 
ATOM      4  C   UNL     1      33.926 -23.875 -14.061  0.00  0.00    +0.072 C 
ATOM      5  C   UNL     1      33.356 -24.027 -15.475  0.00  0.00    +0.041 C 
ATOM      6  C   UNL     1      35.182 -22.996 -14.055  0.00  0.00    +0.041 C 
ATOM      7  C   UNL     1      33.202 -22.685 -16.192  0.00  0.00    +0.095 C 
ATOM      8  C   UNL     1      34.991 -21.686 -14.818  0.00  0.00    +0.095 C 
ATOM      9  C   UNL     1      35.137 -21.441 -17.276  0.00  0.00    +0.230 C 
BRANCH   4  10
ATOM     10  N   UNL     1      32.919 -23.321 -13.178  0.00  0.00    -0.334 N 
ATOM     11  H   UNL     1      33.216 -22.754 -12.429  0.00  0.00    +0.147 HD
BRANCH  10  13
ATOM     12  F   UNL     1      28.523 -21.739 -14.270  0.00  0.00    -0.204 F 
ATOM     13  C   UNL     1      31.563 -23.546 -13.329  0.00  0.00    +0.047 C 
ATOM     14  C   UNL     1      30.696 -22.510 -13.733  0.00  0.00    +0.044 C 
ATOM     15  C   UNL     1      31.006 -24.816 -13.082  0.00  0.00    +0.014 C 
ATOM     16  C   UNL     1      29.329 -22.737 -13.883  0.00  0.00    +0.141 C 
ATOM     17  C   UNL     1      29.638 -25.043 -13.232  0.00  0.00    +0.004 C 
ATOM     18  C   UNL     1      28.800 -24.003 -13.633  0.00  0.00    +0.030 C 
ENDBRANCH  10  13
ENDBRANCH   4  10
ENDBRANCH   1   9
BRANCH   1  20
ATOM     19  C   UNL     1      34.845 -18.289 -21.165  0.00  0.00    -0.043 C 
ATOM     20  C   UNL     1      34.628 -20.518 -19.510  0.00  0.00    -0.013 C 
ATOM     21  C   UNL     1      33.612 -18.923 -21.006  0.00  0.00    -0.007 C 
ATOM     22  C   UNL     1      35.968 -18.772 -20.494  0.00  0.00    -0.007 C 
ATOM     23  C   UNL     1      33.503 -20.039 -20.177  0.00  0.00    -0.004 C 
ATOM     24  C   UNL     1      35.860 -19.889 -19.666  0.00  0.00    -0.004 C 
BRANCH  19  25
ATOM     25  C   UNL     1      34.961 -17.096 -22.051  0.00  0.00    -0.050 C 
BRANCH  25  26
ATOM     26  N   UNL     1      33.911 -16.111 -21.800  0.00  0.00    +0.387 N 
ATOM     27  N   UNL     1      32.962 -13.441 -21.236  0.00  0.00    +0.382 N 
ATOM     28  C   UNL     1      32.809 -14.033 -22.570  0.00  0.00    -0.083 C 
ATOM     29  C   UNL     1      33.916 -15.067 -22.834  0.00  0.00    -0.099 C 
ATOM     30  C   UNL     1      34.067 -15.513 -20.468  0.00  0.00    -0.101 C 
ATOM     31  C   UNL     1      32.972 -14.478 -20.205  0.00  0.00    -0.105 C 
ATOM     32  C   UNL     1      32.851 -12.921 -23.616  0.00  0.00    -0.026 C 
ATOM     33  H   UNL     1      33.012 -16.592 -21.832  0.00  0.00    -0.079 HD
ATOM     34  H   UNL     1      32.186 -12.803 -21.061  0.00  0.00    -0.085 HD
ATOM     35  H   UNL     1      33.850 -12.939 -21.202  0.00  0.00    -0.085 HD
ENDBRANCH  25  26
ENDBRANCH  19  25
ENDBRANCH   1  20
TORSDOF 6
ENDMDL
MODEL 7
REMARK VINA RESULT:     -10.2      1.858      3.468
REMARK  Name = 15984937
REMARK  6 active torsions:
REMARK  status: ('A' for Active; 'I' for Inactive)
REMARK    1  A    between atoms: C_1  and  C_9
REMARK    2  A    between atoms: C_1  and  C_20
REMARK    3  A    between atoms: C_4  and  N_10
REMARK    4  A    between atoms: N_10  and  C_13
REMARK    5  A    between atoms: C_19  and  C_25
REMARK    6  A    between atoms: C_25  and  N_26
REMARK                            x       y       z     vdW  Elec       q    Type
REMARK                         _______ _______ _______ _____ _____    ______ ____
ROOT
ATOM      1  C   UNL     1      35.345 -21.065 -18.822  0.00  0.00    +0.112 C 
ENDROOT
BRANCH   1   9
ATOM      2  O   UNL     1      33.087 -21.073 -19.540  0.00  0.00    -0.275 OA
ATOM      3  N   UNL     1      34.396 -19.290 -20.256  0.00  0.00    -0.279 N 
ATOM      4  C   UNL     1      35.015 -17.696 -22.608  0.00  0.00    +0.072 C 
ATOM      5  C   UNL     1      36.109 -18.348 -21.756  0.00  0.00    +0.041 C 
ATOM      6  C   UNL     1      33.673 -18.418 -22.446  0.00  0.00    +0.041 C 
ATOM      7  C   UNL     1      35.671 -18.567 -20.307  0.00  0.00    +0.095 C 
ATOM      8  C   UNL     1      33.299 -18.649 -20.982  0.00  0.00    +0.095 C 
ATOM      9  C   UNL     1      34.171 -20.483 -19.567  0.00  0.00    +0.230 C 
BRANCH   4  10
ATOM     10  N   UNL     1      34.881 -16.296 -22.254  0.00  0.00    -0.334 N 
ATOM     11  H   UNL     1      35.393 -15.960 -21.481  0.00  0.00    +0.147 HD
BRANCH  10  13
ATOM     12  F   UNL     1      32.549 -12.110 -22.493  0.00  0.00    -0.204 F 
ATOM     13  C   UNL     1      34.073 -15.408 -22.939  0.00  0.00    +0.047 C 
ATOM     14  C   UNL     1      33.703 -14.174 -22.366  0.00  0.00    +0.044 C 
ATOM     15  C   UNL     1      33.594 -15.709 -24.229  0.00  0.00    +0.014 C 
ATOM     16  C   UNL     1      32.887 -13.279 -23.056  0.00  0.00    +0.141 C 
ATOM     17  C   UNL     1      32.777 -14.813 -24.919  0.00  0.00    +0.004 C 
ATOM     18  C   UNL     1      32.424 -13.598 -24.332  0.00  0.00    +0.030 C 
ENDBRANCH  10  13
ENDBRANCH   4  10
ENDBRANCH   1   9
BRANCH   1  20
ATOM     19  C   UNL     1      34.086 -22.715 -15.079  0.00  0.00    -0.043 C 
ATOM     20  C   UNL     1      34.905 -21.642 -17.514  0.00  0.00    -0.013 C 
ATOM     21  C   UNL     1      35.352 -22.142 -15.197  0.00  0.00    -0.007 C 
ATOM     22  C   UNL     1      33.231 -22.751 -16.180  0.00  0.00    -0.007 C 
ATOM     23  C   UNL     1      35.763 -21.604 -16.417  0.00  0.00    -0.004 C 
ATOM     24  C   UNL     1      33.641 -22.214 -17.400  0.00  0.00    -0.004 C 
BRANCH  19  25
ATOM     25  C   UNL     1      33.648 -23.291 -13.775  0.00  0.00    -0.050 C 
BRANCH  25  26
ATOM     26  N   UNL     1      32.284 -23.815 -13.828  0.00  0.00    +0.387 N 
ATOM     27  N   UNL     1      29.553 -23.993 -12.905  0.00  0.00    +0.382 N 
ATOM     28  C   UNL     1      29.887 -23.290 -14.149  0.00  0.00    -0.083 C 
ATOM     29  C   UNL     1      31.321 -22.737 -14.090  0.00  0.00    -0.099 C 
ATOM     30  C   UNL     1      31.946 -24.513 -12.582  0.00  0.00    -0.101 C 
ATOM     31  C   UNL     1      30.518 -25.058 -12.634  0.00  0.00    -0.105 C 
ATOM     32  C   UNL     1      28.883 -22.160 -14.367  0.00  0.00    -0.026 C 
ATOM     33  H   UNL     1      32.233 -24.486 -14.595  0.00  0.00    -0.079 HD
ATOM     34  H   UNL     1      28.622 -24.400 -12.990  0.00  0.00    -0.085 HD
ATOM     35  H   UNL     1      29.580 -23.325 -12.135  0.00  0.00    -0.085 HD
ENDBRANCH  25  26
ENDBRANCH  19  25
ENDBRANCH   1  20
TORSDOF 6
ENDMDL
MODEL 8
REMARK VINA RESULT:     -10.1      3.510     11.194
REMARK  Name = 15984937
REMARK  6 active torsions:
REMARK  status: ('A' for Active; 'I' for Inactive)
REMARK    1  A    between atoms: C_1  and  C_9
REMARK    2  A    between atoms: C_1  and  C_20
REMARK    3  A    between atoms: C_4  and  N_10
REMARK    4  A    between atoms: N_10  and  C_13
REMARK    5  A    between atoms: C_19  and  C_25
REMARK    6  A    between atoms: C_25  and  N_26
REMARK                            x       y       z     vdW  Elec       q    Type
REMARK                         _______ _______ _______ _____ _____    ______ ____
ROOT
ATOM      1  C   UNL     1      35.007 -20.576 -18.779  0.00  0.00    +0.112 C 
ENDROOT
BRANCH   1   9
ATOM      2  O   UNL     1      32.768 -21.226 -19.205  0.00  0.00    -0.275 OA
ATOM      3  N   UNL     1      33.786 -22.173 -17.342  0.00  0.00    -0.279 N 
ATOM      4  C   UNL     1      33.313 -22.809 -14.543  0.00  0.00    +0.072 C 
ATOM      5  C   UNL     1      34.548 -22.027 -15.003  0.00  0.00    +0.041 C 
ATOM      6  C   UNL     1      32.168 -22.693 -15.555  0.00  0.00    +0.041 C 
ATOM      7  C   UNL     1      34.937 -22.341 -16.448  0.00  0.00    +0.095 C 
ATOM      8  C   UNL     1      32.615 -22.977 -16.989  0.00  0.00    +0.095 C 
ATOM      9  C   UNL     1      33.751 -21.351 -18.469  0.00  0.00    +0.230 C 
BRANCH   4  10
ATOM     10  N   UNL     1      33.661 -24.201 -14.331  0.00  0.00    -0.334 N 
ATOM     11  H   UNL     1      33.210 -24.883 -14.881  0.00  0.00    +0.147 HD
BRANCH  10  13
ATOM     12  F   UNL     1      35.315 -24.264  -9.828  0.00  0.00    -0.204 F 
ATOM     13  C   UNL     1      34.589 -24.623 -13.397  0.00  0.00    +0.047 C 
ATOM     14  C   UNL     1      34.491 -24.227 -12.048  0.00  0.00    +0.044 C 
ATOM     15  C   UNL     1      35.660 -25.461 -13.765  0.00  0.00    +0.014 C 
ATOM     16  C   UNL     1      35.428 -24.652 -11.106  0.00  0.00    +0.141 C 
ATOM     17  C   UNL     1      36.597 -25.885 -12.823  0.00  0.00    +0.004 C 
ATOM     18  C   UNL     1      36.480 -25.480 -11.493  0.00  0.00    +0.030 C 
ENDBRANCH  10  13
ENDBRANCH   4  10
ENDBRANCH   1   9
BRANCH   1  20
ATOM     19  C   UNL     1      34.493 -18.231 -22.323  0.00  0.00    -0.043 C 
ATOM     20  C   UNL     1      34.828 -19.757 -20.018  0.00  0.00    -0.013 C 
ATOM     21  C   UNL     1      33.434 -18.995 -21.832  0.00  0.00    -0.007 C 
ATOM     22  C   UNL     1      35.719 -18.233 -21.659  0.00  0.00    -0.007 C 
ATOM     23  C   UNL     1      33.601 -19.759 -20.677  0.00  0.00    -0.004 C 
ATOM     24  C   UNL     1      35.888 -18.997 -20.505  0.00  0.00    -0.004 C 
BRANCH  19  25
ATOM     25  C   UNL     1      34.315 -17.415 -23.558  0.00  0.00    -0.050 C 
BRANCH  25  26
ATOM     26  N   UNL     1      34.145 -15.993 -23.266  0.00  0.00    +0.387 N 
ATOM     27  N   UNL     1      32.613 -13.705 -22.394  0.00  0.00    +0.382 N 
ATOM     28  C   UNL     1      33.652 -14.289 -21.539  0.00  0.00    -0.083 C 
ATOM     29  C   UNL     1      33.827 -15.786 -21.846  0.00  0.00    -0.099 C 
ATOM     30  C   UNL     1      33.101 -15.408 -24.116  0.00  0.00    -0.101 C 
ATOM     31  C   UNL     1      32.919 -13.921 -23.808  0.00  0.00    -0.105 C 
ATOM     32  C   UNL     1      33.268 -14.081 -20.075  0.00  0.00    -0.026 C 
ATOM     33  H   UNL     1      35.026 -15.521 -23.470  0.00  0.00    -0.079 HD
ATOM     34  H   UNL     1      32.555 -12.703 -22.214  0.00  0.00    -0.085 HD
ATOM     35  H   UNL     1      31.723 -14.156 -22.181  0.00  0.00    -0.085 HD
ENDBRANCH  25  26
ENDBRANCH  19  25
ENDBRANCH   1  20
TORSDOF 6
ENDMDL
MODEL 9
REMARK VINA RESULT:      -9.9      3.982     11.750
REMARK  Name = 15984937
REMARK  6 active torsions:
REMARK  status: ('A' for Active; 'I' for Inactive)
REMARK    1  A    between atoms: C_1  and  C_9
REMARK    2  A    between atoms: C_1  and  C_20
REMARK    3  A    between atoms: C_4  and  N_10
REMARK    4  A    between atoms: N_10  and  C_13
REMARK    5  A    between atoms: C_19  and  C_25
REMARK    6  A    between atoms: C_25  and  N_26
REMARK                            x       y       z     vdW  Elec       q    Type
REMARK                         _______ _______ _______ _____ _____    ______ ____
ROOT
ATOM      1  C   UNL     1      33.365 -13.149 -23.482  0.00  0.00    +0.112 C 
ENDROOT
BRANCH   1   9
ATOM      2  O   UNL     1      33.928 -13.020 -21.184  0.00  0.00    -0.275 OA
ATOM      3  N   UNL     1      33.522 -15.144 -22.033  0.00  0.00    -0.279 N 
ATOM      4  C   UNL     1      34.559 -17.862 -22.013  0.00  0.00    +0.072 C 
ATOM      5  C   UNL     1      34.245 -17.120 -23.317  0.00  0.00    +0.041 C 
ATOM      6  C   UNL     1      34.818 -16.884 -20.861  0.00  0.00    +0.041 C 
ATOM      7  C   UNL     1      33.172 -16.046 -23.136  0.00  0.00    +0.095 C 
ATOM      8  C   UNL     1      33.739 -15.807 -20.747  0.00  0.00    +0.095 C 
ATOM      9  C   UNL     1      33.630 -13.757 -22.128  0.00  0.00    +0.230 C 
BRANCH   4  10
ATOM     10  N   UNL     1      33.471 -18.759 -21.680  0.00  0.00    -0.334 N 
ATOM     11  H   UNL     1      32.669 -18.751 -22.252  0.00  0.00    +0.147 HD
BRANCH  10  13
ATOM     12  F   UNL     1      35.913 -21.430 -18.530  0.00  0.00    -0.204 F 
ATOM     13  C   UNL     1      33.495 -19.623 -20.601  0.00  0.00    +0.047 C 
ATOM     14  C   UNL     1      34.716 -20.109 -20.089  0.00  0.00    +0.044 C 
ATOM     15  C   UNL     1      32.303 -20.046 -19.982  0.00  0.00    +0.014 C 
ATOM     16  C   UNL     1      34.741 -20.982 -19.002  0.00  0.00    +0.141 C 
ATOM     17  C   UNL     1      32.328 -20.920 -18.895  0.00  0.00    +0.004 C 
ATOM     18  C   UNL     1      33.548 -21.387 -18.405  0.00  0.00    +0.030 C 
ENDBRANCH  10  13
ENDBRANCH   4  10
ENDBRANCH   1   9
BRANCH   1  20
ATOM     19  C   UNL     1      32.642  -8.944 -23.133  0.00  0.00    -0.043 C 
ATOM     20  C   UNL     1      33.113 -11.679 -23.359  0.00  0.00    -0.013 C 
ATOM     21  C   UNL     1      33.603  -9.415 -24.028  0.00  0.00    -0.007 C 
ATOM     22  C   UNL     1      31.918  -9.844 -22.351  0.00  0.00    -0.007 C 
ATOM     23  C   UNL     1      33.839 -10.785 -24.142  0.00  0.00    -0.004 C 
ATOM     24  C   UNL     1      32.154 -11.214 -22.464  0.00  0.00    -0.004 C 
BRANCH  19  25
ATOM     25  C   UNL     1      32.391  -7.480 -23.010  0.00  0.00    -0.050 C 
BRANCH  25  26
ATOM     26  N   UNL     1      31.671  -7.139 -21.784  0.00  0.00    +0.387 N 
ATOM     27  N   UNL     1      31.081  -5.429 -19.532  0.00  0.00    +0.382 N 
ATOM     28  C   UNL     1      30.154  -5.536 -20.664  0.00  0.00    -0.083 C 
ATOM     29  C   UNL     1      30.913  -5.892 -21.953  0.00  0.00    -0.099 C 
ATOM     30  C   UNL     1      32.598  -7.026 -20.651  0.00  0.00    -0.101 C 
ATOM     31  C   UNL     1      31.847  -6.664 -19.369  0.00  0.00    -0.105 C 
ATOM     32  C   UNL     1      29.411  -4.211 -20.825  0.00  0.00    -0.026 C 
ATOM     33  H   UNL     1      31.012  -7.892 -21.585  0.00  0.00    -0.079 HD
ATOM     34  H   UNL     1      30.550  -5.251 -18.679  0.00  0.00    -0.085 HD
ATOM     35  H   UNL     1      31.731  -4.664 -19.712  0.00  0.00    -0.085 HD
ENDBRANCH  25  26
ENDBRANCH  19  25
ENDBRANCH   1  20
TORSDOF 6
ENDMDL
