MODEL 1
REMARK VINA RESULT:     -12.4      0.000      0.000
REMARK  Name = 17758361
REMARK  5 active torsions:
REMARK  status: ('A' for Active; 'I' for Inactive)
REMARK    1  A    between atoms: N_1  and  C_18
REMARK    2  A    between atoms: C_4  and  C_10
REMARK    3  A    between atoms: C_10  and  C_11
REMARK    4  A    between atoms: C_18  and  C_19
REMARK    5  A    between atoms: C_22  and  C_27
REMARK                            x       y       z     vdW  Elec       q    Type
REMARK                         _______ _______ _______ _____ _____    ______ ____
ROOT
ATOM      1  N   UNL     1      31.591 -22.106 -17.548  0.00  0.00    -0.314 N 
ATOM      2  N   UNL     1      29.689 -22.110 -16.161  0.00  0.00    -0.229 NA
ATOM      3  C   UNL     1      30.987 -22.439 -16.347  0.00  0.00    +0.129 C 
ATOM      4  C   UNL     1      31.172 -23.431 -14.194  0.00  0.00    +0.043 C 
ATOM      5  C   UNL     1      31.765 -23.093 -15.405  0.00  0.00    +0.037 C 
ATOM      6  C   UNL     1      29.838 -23.110 -13.966  0.00  0.00    +0.024 C 
ATOM      7  C   UNL     1      29.147 -22.455 -14.972  0.00  0.00    +0.100 C 
ATOM      8  H   UNL     1      31.051 -21.642 -18.227  0.00  0.00    +0.149 HD
ENDROOT
BRANCH   4  10
ATOM      9  O   UNL     1      31.367 -24.772 -12.287  0.00  0.00    -0.287 OA
ATOM     10  C   UNL     1      31.942 -24.118 -13.169  0.00  0.00    +0.196 C 
BRANCH  10  11
ATOM     11  C   UNL     1      33.435 -24.074 -13.126  0.00  0.00    +0.039 C 
ATOM     12  C   UNL     1      34.084 -23.409 -12.085  0.00  0.00    -0.001 C 
ATOM     13  C   UNL     1      35.477 -23.368 -12.044  0.00  0.00    -0.022 C 
ATOM     14  C   UNL     1      34.180 -24.699 -14.126  0.00  0.00    +0.003 C 
ATOM     15  C   UNL     1      36.223 -23.994 -13.044  0.00  0.00    -0.004 C 
ATOM     16  C   UNL     1      35.574 -24.659 -14.084  0.00  0.00    -0.000 C 
ATOM     17  C   UNL     1      36.171 -22.660 -10.930  0.00  0.00    +0.031 C 
ENDBRANCH  10  11
ENDBRANCH   4  10
BRANCH   1  18
ATOM     18  C   UNL     1      32.972 -22.405 -17.859  0.00  0.00    +0.115 C 
BRANCH  18  19
ATOM     19  C   UNL     1      33.572 -21.335 -18.708  0.00  0.00    -0.003 C 
ATOM     20  C   UNL     1      32.750 -20.526 -19.493  0.00  0.00    -0.003 C 
ATOM     21  C   UNL     1      34.954 -21.144 -18.719  0.00  0.00    -0.003 C 
ATOM     22  C   UNL     1      34.691 -19.336 -20.299  0.00  0.00    +0.031 C 
ATOM     23  C   UNL     1      33.310 -19.527 -20.288  0.00  0.00    +0.002 C 
ATOM     24  C   UNL     1      35.513 -20.145 -19.514  0.00  0.00    +0.002 C 
BRANCH  22  27
ATOM     25  N   UNL     1      36.636 -18.277 -21.423  0.00  0.00    -0.343 N 
ATOM     26  N   UNL     1      34.507 -17.334 -21.615  0.00  0.00    -0.285 NA
ATOM     27  C   UNL     1      35.274 -18.293 -21.128  0.00  0.00    +0.117 C 
ATOM     28  H   UNL     1      37.010 -17.562 -21.986  0.00  0.00    +0.144 HD
ATOM     29  H   UNL     1      37.225 -18.982 -21.066  0.00  0.00    +0.144 HD
ATOM     30  H   UNL     1      34.899 -16.628 -22.177  0.00  0.00    +0.188 HD
ENDBRANCH  22  27
ENDBRANCH  18  19
ENDBRANCH   1  18
TORSDOF 5
ENDMDL
MODEL 2
REMARK VINA RESULT:     -12.2      1.641      4.386
REMARK  Name = 17758361
REMARK  5 active torsions:
REMARK  status: ('A' for Active; 'I' for Inactive)
REMARK    1  A    between atoms: N_1  and  C_18
REMARK    2  A    between atoms: C_4  and  C_10
REMARK    3  A    between atoms: C_10  and  C_11
REMARK    4  A    between atoms: C_18  and  C_19
REMARK    5  A    between atoms: C_22  and  C_27
REMARK                            x       y       z     vdW  Elec       q    Type
REMARK                         _______ _______ _______ _____ _____    ______ ____
ROOT
ATOM      1  N   UNL     1      33.952 -22.622 -16.843  0.00  0.00    -0.314 N 
ATOM      2  N   UNL     1      34.948 -23.456 -14.881  0.00  0.00    -0.229 NA
ATOM      3  C   UNL     1      33.845 -23.002 -15.516  0.00  0.00    +0.129 C 
ATOM      4  C   UNL     1      32.475 -23.270 -13.591  0.00  0.00    +0.043 C 
ATOM      5  C   UNL     1      32.598 -22.891 -14.923  0.00  0.00    +0.037 C 
ATOM      6  C   UNL     1      33.588 -23.743 -12.903  0.00  0.00    +0.024 C 
ATOM      7  C   UNL     1      34.791 -23.816 -13.587  0.00  0.00    +0.100 C 
ATOM      8  H   UNL     1      34.833 -22.694 -17.278  0.00  0.00    +0.149 HD
ENDROOT
BRANCH   4  10
ATOM      9  O   UNL     1      31.118 -22.732 -11.764  0.00  0.00    -0.287 OA
ATOM     10  C   UNL     1      31.189 -23.175 -12.919  0.00  0.00    +0.196 C 
BRANCH  10  11
ATOM     11  C   UNL     1      29.912 -23.597 -13.571  0.00  0.00    +0.039 C 
ATOM     12  C   UNL     1      29.108 -22.651 -14.208  0.00  0.00    -0.001 C 
ATOM     13  C   UNL     1      27.917 -23.046 -14.817  0.00  0.00    -0.022 C 
ATOM     14  C   UNL     1      29.525 -24.936 -13.543  0.00  0.00    +0.003 C 
ATOM     15  C   UNL     1      27.530 -24.386 -14.790  0.00  0.00    -0.004 C 
ATOM     16  C   UNL     1      28.334 -25.331 -14.153  0.00  0.00    -0.000 C 
ATOM     17  C   UNL     1      27.059 -22.036 -15.501  0.00  0.00    +0.031 C 
ENDBRANCH  10  11
ENDBRANCH   4  10
BRANCH   1  18
ATOM     18  C   UNL     1      32.842 -22.123 -17.625  0.00  0.00    +0.115 C 
BRANCH  18  19
ATOM     19  C   UNL     1      33.313 -21.176 -18.678  0.00  0.00    -0.003 C 
ATOM     20  C   UNL     1      34.679 -20.987 -18.884  0.00  0.00    -0.003 C 
ATOM     21  C   UNL     1      32.387 -20.479 -19.455  0.00  0.00    -0.003 C 
ATOM     22  C   UNL     1      34.194 -19.404 -20.643  0.00  0.00    +0.031 C 
ATOM     23  C   UNL     1      35.119 -20.101 -19.866  0.00  0.00    +0.002 C 
ATOM     24  C   UNL     1      32.828 -19.594 -20.437  0.00  0.00    +0.002 C 
BRANCH  22  27
ATOM     25  N   UNL     1      35.999 -18.132 -21.779  0.00  0.00    -0.343 N 
ATOM     26  N   UNL     1      33.789 -17.952 -22.514  0.00  0.00    -0.285 NA
ATOM     27  C   UNL     1      34.655 -18.481 -21.668  0.00  0.00    +0.117 C 
ATOM     28  H   UNL     1      36.290 -17.505 -22.480  0.00  0.00    +0.144 HD
ATOM     29  H   UNL     1      36.660 -18.513 -21.155  0.00  0.00    +0.144 HD
ATOM     30  H   UNL     1      34.098 -17.327 -23.209  0.00  0.00    +0.188 HD
ENDBRANCH  22  27
ENDBRANCH  18  19
ENDBRANCH   1  18
TORSDOF 5
ENDMDL
MODEL 3
REMARK VINA RESULT:     -11.4      5.658     11.361
REMARK  Name = 17758361
REMARK  5 active torsions:
REMARK  status: ('A' for Active; 'I' for Inactive)
REMARK    1  A    between atoms: N_1  and  C_18
REMARK    2  A    between atoms: C_4  and  C_10
REMARK    3  A    between atoms: C_10  and  C_11
REMARK    4  A    between atoms: C_18  and  C_19
REMARK    5  A    between atoms: C_22  and  C_27
REMARK                            x       y       z     vdW  Elec       q    Type
REMARK                         _______ _______ _______ _____ _____    ______ ____
ROOT
ATOM      1  N   UNL     1      34.912 -17.823 -22.626  0.00  0.00    -0.314 N 
ATOM      2  N   UNL     1      33.732 -16.736 -24.349  0.00  0.00    -0.229 NA
ATOM      3  C   UNL     1      34.157 -16.748 -23.066  0.00  0.00    +0.129 C 
ATOM      4  C   UNL     1      33.133 -14.659 -22.577  0.00  0.00    +0.043 C 
ATOM      5  C   UNL     1      33.888 -15.744 -22.149  0.00  0.00    +0.037 C 
ATOM      6  C   UNL     1      32.677 -14.610 -23.890  0.00  0.00    +0.024 C 
ATOM      7  C   UNL     1      33.001 -15.664 -24.729  0.00  0.00    +0.100 C 
ATOM      8  H   UNL     1      35.110 -18.544 -23.266  0.00  0.00    +0.149 HD
ENDROOT
BRANCH   4  10
ATOM      9  O   UNL     1      32.684 -13.805 -20.446  0.00  0.00    -0.287 OA
ATOM     10  C   UNL     1      32.821 -13.576 -21.657  0.00  0.00    +0.196 C 
BRANCH  10  11
ATOM     11  C   UNL     1      32.653 -12.162 -22.111  0.00  0.00    +0.039 C 
ATOM     12  C   UNL     1      31.764 -11.317 -21.446  0.00  0.00    -0.001 C 
ATOM     13  C   UNL     1      31.608  -9.998 -21.870  0.00  0.00    -0.022 C 
ATOM     14  C   UNL     1      33.386 -11.688 -23.198  0.00  0.00    +0.003 C 
ATOM     15  C   UNL     1      32.341  -9.523 -22.958  0.00  0.00    -0.004 C 
ATOM     16  C   UNL     1      33.231 -10.368 -23.621  0.00  0.00    -0.000 C 
ATOM     17  C   UNL     1      30.660  -9.093 -21.158  0.00  0.00    +0.031 C 
ENDBRANCH  10  11
ENDBRANCH   4  10
BRANCH   1  18
ATOM     18  C   UNL     1      35.423 -17.944 -21.278  0.00  0.00    +0.115 C 
BRANCH  18  19
ATOM     19  C   UNL     1      34.704 -19.015 -20.529  0.00  0.00    -0.003 C 
ATOM     20  C   UNL     1      33.316 -19.121 -20.624  0.00  0.00    -0.003 C 
ATOM     21  C   UNL     1      35.419 -19.910 -19.732  0.00  0.00    -0.003 C 
ATOM     22  C   UNL     1      33.358 -21.016 -19.127  0.00  0.00    +0.031 C 
ATOM     23  C   UNL     1      32.644 -20.121 -19.923  0.00  0.00    +0.002 C 
ATOM     24  C   UNL     1      34.746 -20.910 -19.031  0.00  0.00    +0.002 C 
BRANCH  22  27
ATOM     25  N   UNL     1      31.521 -21.775 -17.638  0.00  0.00    -0.343 N 
ATOM     26  N   UNL     1      33.096 -23.303 -18.440  0.00  0.00    -0.285 NA
ATOM     27  C   UNL     1      32.656 -22.058 -18.396  0.00  0.00    +0.117 C 
ATOM     28  H   UNL     1      31.060 -22.496 -17.152  0.00  0.00    +0.144 HD
ATOM     29  H   UNL     1      31.179 -20.852 -17.590  0.00  0.00    +0.144 HD
ATOM     30  H   UNL     1      32.622 -24.011 -17.946  0.00  0.00    +0.188 HD
ENDBRANCH  22  27
ENDBRANCH  18  19
ENDBRANCH   1  18
TORSDOF 5
ENDMDL
MODEL 4
REMARK VINA RESULT:     -11.3      5.389     10.579
REMARK  Name = 17758361
REMARK  5 active torsions:
REMARK  status: ('A' for Active; 'I' for Inactive)
REMARK    1  A    between atoms: N_1  and  C_18
REMARK    2  A    between atoms: C_4  and  C_10
REMARK    3  A    between atoms: C_10  and  C_11
REMARK    4  A    between atoms: C_18  and  C_19
REMARK    5  A    between atoms: C_22  and  C_27
REMARK                            x       y       z     vdW  Elec       q    Type
REMARK                         _______ _______ _______ _____ _____    ______ ____
ROOT
ATOM      1  N   UNL     1      34.271 -18.479 -22.617  0.00  0.00    -0.314 N 
ATOM      2  N   UNL     1      32.991 -17.533 -24.352  0.00  0.00    -0.229 NA
ATOM      3  C   UNL     1      33.679 -17.371 -23.200  0.00  0.00    +0.129 C 
ATOM      4  C   UNL     1      33.249 -15.033 -23.128  0.00  0.00    +0.043 C 
ATOM      5  C   UNL     1      33.836 -16.155 -22.554  0.00  0.00    +0.037 C 
ATOM      6  C   UNL     1      32.533 -15.160 -24.314  0.00  0.00    +0.024 C 
ATOM      7  C   UNL     1      32.434 -16.421 -24.881  0.00  0.00    +0.100 C 
ATOM      8  H   UNL     1      34.167 -19.350 -23.065  0.00  0.00    +0.149 HD
ENDROOT
BRANCH   4  10
ATOM      9  O   UNL     1      34.281 -12.953 -22.845  0.00  0.00    -0.287 OA
ATOM     10  C   UNL     1      33.383 -13.732 -22.493  0.00  0.00    +0.196 C 
BRANCH  10  11
ATOM     11  C   UNL     1      32.466 -13.273 -21.406  0.00  0.00    +0.039 C 
ATOM     12  C   UNL     1      31.776 -12.067 -21.537  0.00  0.00    -0.001 C 
ATOM     13  C   UNL     1      30.919 -11.640 -20.524  0.00  0.00    -0.022 C 
ATOM     14  C   UNL     1      32.298 -14.052 -20.262  0.00  0.00    +0.003 C 
ATOM     15  C   UNL     1      30.751 -12.419 -19.378  0.00  0.00    -0.004 C 
ATOM     16  C   UNL     1      31.440 -13.625 -19.248  0.00  0.00    -0.000 C 
ATOM     17  C   UNL     1      30.180 -10.353 -20.664  0.00  0.00    +0.031 C 
ENDBRANCH  10  11
ENDBRANCH   4  10
BRANCH   1  18
ATOM     18  C   UNL     1      35.032 -18.427 -21.389  0.00  0.00    +0.115 C 
BRANCH  18  19
ATOM     19  C   UNL     1      34.501 -19.401 -20.390  0.00  0.00    -0.003 C 
ATOM     20  C   UNL     1      33.124 -19.567 -20.243  0.00  0.00    -0.003 C 
ATOM     21  C   UNL     1      35.382 -20.144 -19.604  0.00  0.00    -0.003 C 
ATOM     22  C   UNL     1      33.508 -21.219 -18.523  0.00  0.00    +0.031 C 
ATOM     23  C   UNL     1      32.628 -20.476 -19.309  0.00  0.00    +0.002 C 
ATOM     24  C   UNL     1      34.885 -21.053 -18.670  0.00  0.00    +0.002 C 
BRANCH  22  27
ATOM     25  N   UNL     1      31.624 -22.426 -17.445  0.00  0.00    -0.343 N 
ATOM     26  N   UNL     1      33.821 -22.798 -16.739  0.00  0.00    -0.285 NA
ATOM     27  C   UNL     1      32.990 -22.167 -17.549  0.00  0.00    +0.117 C 
ATOM     28  H   UNL     1      31.295 -23.071 -16.779  0.00  0.00    +0.144 HD
ATOM     29  H   UNL     1      30.989 -21.963 -18.038  0.00  0.00    +0.144 HD
ATOM     30  H   UNL     1      33.472 -23.441 -16.080  0.00  0.00    +0.188 HD
ENDBRANCH  22  27
ENDBRANCH  18  19
ENDBRANCH   1  18
TORSDOF 5
ENDMDL
MODEL 5
REMARK VINA RESULT:     -11.3      1.820      4.239
REMARK  Name = 17758361
REMARK  5 active torsions:
REMARK  status: ('A' for Active; 'I' for Inactive)
REMARK    1  A    between atoms: N_1  and  C_18
REMARK    2  A    between atoms: C_4  and  C_10
REMARK    3  A    between atoms: C_10  and  C_11
REMARK    4  A    between atoms: C_18  and  C_19
REMARK    5  A    between atoms: C_22  and  C_27
REMARK                            x       y       z     vdW  Elec       q    Type
REMARK                         _______ _______ _______ _____ _____    ______ ____
ROOT
ATOM      1  N   UNL     1      35.035 -22.059 -16.673  0.00  0.00    -0.314 N 
ATOM      2  N   UNL     1      36.307 -22.436 -14.729  0.00  0.00    -0.229 NA
ATOM      3  C   UNL     1      35.111 -22.481 -15.357  0.00  0.00    +0.129 C 
ATOM      4  C   UNL     1      34.001 -23.358 -13.445  0.00  0.00    +0.043 C 
ATOM      5  C   UNL     1      33.940 -22.929 -14.766  0.00  0.00    +0.037 C 
ATOM      6  C   UNL     1      35.214 -23.327 -12.765  0.00  0.00    +0.024 C 
ATOM      7  C   UNL     1      36.328 -22.862 -13.446  0.00  0.00    +0.100 C 
ATOM      8  H   UNL     1      35.859 -21.737 -17.106  0.00  0.00    +0.149 HD
ENDROOT
BRANCH   4  10
ATOM      9  O   UNL     1      32.890 -24.466 -11.711  0.00  0.00    -0.287 OA
ATOM     10  C   UNL     1      32.803 -23.838 -12.776  0.00  0.00    +0.196 C 
BRANCH  10  11
ATOM     11  C   UNL     1      31.432 -23.606 -13.325  0.00  0.00    +0.039 C 
ATOM     12  C   UNL     1      30.492 -24.638 -13.315  0.00  0.00    -0.001 C 
ATOM     13  C   UNL     1      29.213 -24.421 -13.826  0.00  0.00    -0.022 C 
ATOM     14  C   UNL     1      31.092 -22.358 -13.845  0.00  0.00    +0.003 C 
ATOM     15  C   UNL     1      28.873 -23.171 -14.347  0.00  0.00    -0.004 C 
ATOM     16  C   UNL     1      29.812 -22.140 -14.355  0.00  0.00    -0.000 C 
ATOM     17  C   UNL     1      28.208 -25.522 -13.814  0.00  0.00    +0.031 C 
ENDBRANCH  10  11
ENDBRANCH   4  10
BRANCH   1  18
ATOM     18  C   UNL     1      33.813 -22.062 -17.446  0.00  0.00    +0.115 C 
BRANCH  18  19
ATOM     19  C   UNL     1      33.911 -21.128 -18.605  0.00  0.00    -0.003 C 
ATOM     20  C   UNL     1      35.162 -20.722 -19.069  0.00  0.00    -0.003 C 
ATOM     21  C   UNL     1      32.751 -20.660 -19.224  0.00  0.00    -0.003 C 
ATOM     22  C   UNL     1      34.096 -19.379 -20.770  0.00  0.00    +0.031 C 
ATOM     23  C   UNL     1      35.254 -19.847 -20.151  0.00  0.00    +0.002 C 
ATOM     24  C   UNL     1      32.844 -19.786 -20.307  0.00  0.00    +0.002 C 
BRANCH  22  27
ATOM     25  N   UNL     1      35.216 -17.524 -21.984  0.00  0.00    -0.343 N 
ATOM     26  N   UNL     1      33.296 -18.522 -22.868  0.00  0.00    -0.285 NA
ATOM     27  C   UNL     1      34.193 -18.467 -21.899  0.00  0.00    +0.117 C 
ATOM     28  H   UNL     1      35.263 -16.917 -22.757  0.00  0.00    +0.144 HD
ATOM     29  H   UNL     1      35.892 -17.466 -21.270  0.00  0.00    +0.144 HD
ATOM     30  H   UNL     1      33.360 -17.906 -23.633  0.00  0.00    +0.188 HD
ENDBRANCH  22  27
ENDBRANCH  18  19
ENDBRANCH   1  18
TORSDOF 5
ENDMDL
MODEL 6
REMARK VINA RESULT:     -11.2      2.828      4.864
REMARK  Name = 17758361
REMARK  5 active torsions:
REMARK  status: ('A' for Active; 'I' for Inactive)
REMARK    1  A    between atoms: N_1  and  C_18
REMARK    2  A    between atoms: C_4  and  C_10
REMARK    3  A    between atoms: C_10  and  C_11
REMARK    4  A    between atoms: C_18  and  C_19
REMARK    5  A    between atoms: C_22  and  C_27
REMARK                            x       y       z     vdW  Elec       q    Type
REMARK                         _______ _______ _______ _____ _____    ______ ____
ROOT
ATOM      1  N   UNL     1      35.228 -20.128 -19.525  0.00  0.00    -0.314 N 
ATOM      2  N   UNL     1      36.130 -20.640 -17.412  0.00  0.00    -0.229 NA
ATOM      3  C   UNL     1      35.148 -20.814 -18.325  0.00  0.00    +0.129 C 
ATOM      4  C   UNL     1      33.963 -22.339 -16.940  0.00  0.00    +0.043 C 
ATOM      5  C   UNL     1      34.054 -21.643 -18.140  0.00  0.00    +0.037 C 
ATOM      6  C   UNL     1      34.954 -22.187 -15.976  0.00  0.00    +0.024 C 
ATOM      7  C   UNL     1      36.007 -21.333 -16.258  0.00  0.00    +0.100 C 
ATOM      8  H   UNL     1      36.000 -19.534 -19.670  0.00  0.00    +0.149 HD
ENDROOT
BRANCH   4  10
ATOM      9  O   UNL     1      32.542 -24.108 -17.511  0.00  0.00    -0.287 OA
ATOM     10  C   UNL     1      32.835 -23.225 -16.693  0.00  0.00    +0.196 C 
BRANCH  10  11
ATOM     11  C   UNL     1      31.989 -23.120 -15.465  0.00  0.00    +0.039 C 
ATOM     12  C   UNL     1      30.646 -22.758 -15.573  0.00  0.00    -0.001 C 
ATOM     13  C   UNL     1      29.856 -22.661 -14.428  0.00  0.00    -0.022 C 
ATOM     14  C   UNL     1      32.542 -23.386 -14.213  0.00  0.00    +0.003 C 
ATOM     15  C   UNL     1      30.409 -22.927 -13.175  0.00  0.00    -0.004 C 
ATOM     16  C   UNL     1      31.751 -23.290 -13.068  0.00  0.00    -0.000 C 
ATOM     17  C   UNL     1      28.419 -22.276 -14.542  0.00  0.00    +0.031 C 
ENDBRANCH  10  11
ENDBRANCH   4  10
BRANCH   1  18
ATOM     18  C   UNL     1      34.239 -20.235 -20.575  0.00  0.00    +0.115 C 
BRANCH  18  19
ATOM     19  C   UNL     1      34.135 -18.961 -21.344  0.00  0.00    -0.003 C 
ATOM     20  C   UNL     1      34.417 -17.746 -20.719  0.00  0.00    -0.003 C 
ATOM     21  C   UNL     1      33.755 -18.983 -22.686  0.00  0.00    -0.003 C 
ATOM     22  C   UNL     1      33.938 -16.577 -22.778  0.00  0.00    +0.031 C 
ATOM     23  C   UNL     1      34.319 -16.554 -21.436  0.00  0.00    +0.002 C 
ATOM     24  C   UNL     1      33.656 -17.791 -23.402  0.00  0.00    +0.002 C 
BRANCH  22  27
ATOM     25  N   UNL     1      33.896 -14.096 -22.886  0.00  0.00    -0.343 N 
ATOM     26  N   UNL     1      33.679 -15.365 -24.836  0.00  0.00    -0.285 NA
ATOM     27  C   UNL     1      33.836 -15.333 -23.525  0.00  0.00    +0.117 C 
ATOM     28  H   UNL     1      33.825 -13.266 -23.411  0.00  0.00    +0.144 HD
ATOM     29  H   UNL     1      34.010 -14.052 -21.909  0.00  0.00    +0.144 HD
ATOM     30  H   UNL     1      33.610 -14.524 -25.344  0.00  0.00    +0.188 HD
ENDBRANCH  22  27
ENDBRANCH  18  19
ENDBRANCH   1  18
TORSDOF 5
ENDMDL
MODEL 7
REMARK VINA RESULT:     -11.2      5.434      9.078
REMARK  Name = 17758361
REMARK  5 active torsions:
REMARK  status: ('A' for Active; 'I' for Inactive)
REMARK    1  A    between atoms: N_1  and  C_18
REMARK    2  A    between atoms: C_4  and  C_10
REMARK    3  A    between atoms: C_10  and  C_11
REMARK    4  A    between atoms: C_18  and  C_19
REMARK    5  A    between atoms: C_22  and  C_27
REMARK                            x       y       z     vdW  Elec       q    Type
REMARK                         _______ _______ _______ _____ _____    ______ ____
ROOT
ATOM      1  N   UNL     1      33.498 -15.119 -23.813  0.00  0.00    -0.314 N 
ATOM      2  N   UNL     1      32.923 -17.339 -24.343  0.00  0.00    -0.229 NA
ATOM      3  C   UNL     1      33.612 -16.476 -23.563  0.00  0.00    +0.129 C 
ATOM      4  C   UNL     1      34.556 -18.222 -22.254  0.00  0.00    +0.043 C 
ATOM      5  C   UNL     1      34.434 -16.862 -22.516  0.00  0.00    +0.037 C 
ATOM      6  C   UNL     1      33.863 -19.141 -23.034  0.00  0.00    +0.024 C 
ATOM      7  C   UNL     1      33.067 -18.653 -24.058  0.00  0.00    +0.100 C 
ATOM      8  H   UNL     1      32.918 -14.830 -24.554  0.00  0.00    +0.149 HD
ENDROOT
BRANCH   4  10
ATOM      9  O   UNL     1      36.567 -18.265 -21.059  0.00  0.00    -0.287 OA
ATOM     10  C   UNL     1      35.405 -18.683 -21.166  0.00  0.00    +0.196 C 
BRANCH  10  11
ATOM     11  C   UNL     1      34.933 -19.664 -20.142  0.00  0.00    +0.039 C 
ATOM     12  C   UNL     1      33.566 -19.863 -19.945  0.00  0.00    -0.001 C 
ATOM     13  C   UNL     1      33.125 -20.779 -18.991  0.00  0.00    -0.022 C 
ATOM     14  C   UNL     1      35.858 -20.381 -19.385  0.00  0.00    +0.003 C 
ATOM     15  C   UNL     1      34.051 -21.497 -18.233  0.00  0.00    -0.004 C 
ATOM     16  C   UNL     1      35.417 -21.298 -18.431  0.00  0.00    -0.000 C 
ATOM     17  C   UNL     1      31.664 -20.994 -18.782  0.00  0.00    +0.031 C 
ENDBRANCH  10  11
ENDBRANCH   4  10
BRANCH   1  18
ATOM     18  C   UNL     1      34.185 -14.104 -23.045  0.00  0.00    +0.115 C 
BRANCH  18  19
ATOM     19  C   UNL     1      33.223 -13.315 -22.221  0.00  0.00    -0.003 C 
ATOM     20  C   UNL     1      32.717 -12.109 -22.706  0.00  0.00    -0.003 C 
ATOM     21  C   UNL     1      32.830 -13.783 -20.967  0.00  0.00    -0.003 C 
ATOM     22  C   UNL     1      31.427 -11.838 -20.682  0.00  0.00    +0.031 C 
ATOM     23  C   UNL     1      31.819 -11.370 -21.936  0.00  0.00    +0.002 C 
ATOM     24  C   UNL     1      31.932 -13.044 -20.198  0.00  0.00    +0.002 C 
BRANCH  22  27
ATOM     25  N   UNL     1      30.827 -10.615 -18.605  0.00  0.00    -0.343 N 
ATOM     26  N   UNL     1      29.291 -10.786 -20.358  0.00  0.00    -0.285 NA
ATOM     27  C   UNL     1      30.490 -11.067 -19.880  0.00  0.00    +0.117 C 
ATOM     28  H   UNL     1      30.177 -10.094 -18.079  0.00  0.00    +0.144 HD
ATOM     29  H   UNL     1      31.715 -10.817 -18.230  0.00  0.00    +0.144 HD
ATOM     30  H   UNL     1      28.655 -10.264 -19.817  0.00  0.00    +0.188 HD
ENDBRANCH  22  27
ENDBRANCH  18  19
ENDBRANCH   1  18
TORSDOF 5
ENDMDL
MODEL 8
REMARK VINA RESULT:     -11.1      3.736      6.907
REMARK  Name = 17758361
REMARK  5 active torsions:
REMARK  status: ('A' for Active; 'I' for Inactive)
REMARK    1  A    between atoms: N_1  and  C_18
REMARK    2  A    between atoms: C_4  and  C_10
REMARK    3  A    between atoms: C_10  and  C_11
REMARK    4  A    between atoms: C_18  and  C_19
REMARK    5  A    between atoms: C_22  and  C_27
REMARK                            x       y       z     vdW  Elec       q    Type
REMARK                         _______ _______ _______ _____ _____    ______ ____
ROOT
ATOM      1  N   UNL     1      33.215 -23.776 -12.110  0.00  0.00    -0.314 N 
ATOM      2  N   UNL     1      31.158 -24.835 -12.544  0.00  0.00    -0.229 NA
ATOM      3  C   UNL     1      32.094 -23.930 -12.908  0.00  0.00    +0.129 C 
ATOM      4  C   UNL     1      30.890 -23.284 -14.854  0.00  0.00    +0.043 C 
ATOM      5  C   UNL     1      32.009 -23.138 -14.042  0.00  0.00    +0.037 C 
ATOM      6  C   UNL     1      29.904 -24.205 -14.512  0.00  0.00    +0.024 C 
ATOM      7  C   UNL     1      30.085 -24.949 -13.357  0.00  0.00    +0.100 C 
ATOM      8  H   UNL     1      33.289 -24.331 -11.300  0.00  0.00    +0.149 HD
ENDROOT
BRANCH   4  10
ATOM      9  O   UNL     1      29.634 -22.065 -16.406  0.00  0.00    -0.287 OA
ATOM     10  C   UNL     1      30.749 -22.479 -16.057  0.00  0.00    +0.196 C 
BRANCH  10  11
ATOM     11  C   UNL     1      31.915 -22.114 -16.917  0.00  0.00    +0.039 C 
ATOM     12  C   UNL     1      31.728 -21.311 -18.042  0.00  0.00    -0.001 C 
ATOM     13  C   UNL     1      32.817 -20.970 -18.845  0.00  0.00    -0.022 C 
ATOM     14  C   UNL     1      33.190 -22.576 -16.594  0.00  0.00    +0.003 C 
ATOM     15  C   UNL     1      34.093 -21.432 -18.521  0.00  0.00    -0.004 C 
ATOM     16  C   UNL     1      34.280 -22.234 -17.396  0.00  0.00    -0.000 C 
ATOM     17  C   UNL     1      32.618 -20.109 -20.046  0.00  0.00    +0.031 C 
ENDBRANCH  10  11
ENDBRANCH   4  10
BRANCH   1  18
ATOM     18  C   UNL     1      34.281 -22.842 -12.399  0.00  0.00    +0.115 C 
BRANCH  18  19
ATOM     19  C   UNL     1      35.525 -23.561 -12.804  0.00  0.00    -0.003 C 
ATOM     20  C   UNL     1      36.051 -23.375 -14.082  0.00  0.00    -0.003 C 
ATOM     21  C   UNL     1      36.159 -24.419 -11.906  0.00  0.00    -0.003 C 
ATOM     22  C   UNL     1      37.847 -24.905 -13.564  0.00  0.00    +0.031 C 
ATOM     23  C   UNL     1      37.212 -24.048 -14.462  0.00  0.00    +0.002 C 
ATOM     24  C   UNL     1      37.321 -25.091 -12.286  0.00  0.00    +0.002 C 
BRANCH  22  27
ATOM     25  N   UNL     1      39.839 -26.289 -13.031  0.00  0.00    -0.343 N 
ATOM     26  N   UNL     1      39.437 -25.598 -15.227  0.00  0.00    -0.285 NA
ATOM     27  C   UNL     1      39.058 -25.605 -13.961  0.00  0.00    +0.117 C 
ATOM     28  H   UNL     1      40.655 -26.756 -13.321  0.00  0.00    +0.144 HD
ATOM     29  H   UNL     1      39.575 -26.303 -12.082  0.00  0.00    +0.144 HD
ATOM     30  H   UNL     1      40.257 -26.072 -15.498  0.00  0.00    +0.188 HD
ENDBRANCH  22  27
ENDBRANCH  18  19
ENDBRANCH   1  18
TORSDOF 5
ENDMDL
MODEL 9
REMARK VINA RESULT:     -10.9      2.895      5.369
REMARK  Name = 17758361
REMARK  5 active torsions:
REMARK  status: ('A' for Active; 'I' for Inactive)
REMARK    1  A    between atoms: N_1  and  C_18
REMARK    2  A    between atoms: C_4  and  C_10
REMARK    3  A    between atoms: C_10  and  C_11
REMARK    4  A    between atoms: C_18  and  C_19
REMARK    5  A    between atoms: C_22  and  C_27
REMARK                            x       y       z     vdW  Elec       q    Type
REMARK                         _______ _______ _______ _____ _____    ______ ____
ROOT
ATOM      1  N   UNL     1      35.061 -19.329 -20.668  0.00  0.00    -0.314 N 
ATOM      2  N   UNL     1      36.163 -19.876 -18.662  0.00  0.00    -0.229 NA
ATOM      3  C   UNL     1      35.129 -20.081 -19.508  0.00  0.00    +0.129 C 
ATOM      4  C   UNL     1      34.176 -21.769 -18.130  0.00  0.00    +0.043 C 
ATOM      5  C   UNL     1      34.120 -21.006 -19.291  0.00  0.00    +0.037 C 
ATOM      6  C   UNL     1      35.225 -21.587 -17.235  0.00  0.00    +0.024 C 
ATOM      7  C   UNL     1      36.184 -20.636 -17.544  0.00  0.00    +0.100 C 
ATOM      8  H   UNL     1      35.771 -18.667 -20.835  0.00  0.00    +0.149 HD
ENDROOT
BRANCH   4  10
ATOM      9  O   UNL     1      32.818 -23.580 -18.718  0.00  0.00    -0.287 OA
ATOM     10  C   UNL     1      33.143 -22.755 -17.853  0.00  0.00    +0.196 C 
BRANCH  10  11
ATOM     11  C   UNL     1      32.435 -22.825 -16.539  0.00  0.00    +0.039 C 
ATOM     12  C   UNL     1      33.116 -23.261 -15.401  0.00  0.00    -0.001 C 
ATOM     13  C   UNL     1      32.456 -23.325 -14.175  0.00  0.00    -0.022 C 
ATOM     14  C   UNL     1      31.095 -22.451 -16.449  0.00  0.00    +0.003 C 
ATOM     15  C   UNL     1      31.114 -22.951 -14.085  0.00  0.00    -0.004 C 
ATOM     16  C   UNL     1      30.434 -22.514 -15.221  0.00  0.00    -0.000 C 
ATOM     17  C   UNL     1      33.183 -23.789 -12.959  0.00  0.00    +0.031 C 
ENDBRANCH  10  11
ENDBRANCH   4  10
BRANCH   1  18
ATOM     18  C   UNL     1      34.005 -19.462 -21.647  0.00  0.00    +0.115 C 
BRANCH  18  19
ATOM     19  C   UNL     1      33.769 -18.170 -22.357  0.00  0.00    -0.003 C 
ATOM     20  C   UNL     1      33.137 -18.164 -23.600  0.00  0.00    -0.003 C 
ATOM     21  C   UNL     1      34.182 -16.970 -21.778  0.00  0.00    -0.003 C 
ATOM     22  C   UNL     1      33.330 -15.758 -23.686  0.00  0.00    +0.031 C 
ATOM     23  C   UNL     1      32.918 -16.958 -24.265  0.00  0.00    +0.002 C 
ATOM     24  C   UNL     1      33.962 -15.764 -22.443  0.00  0.00    +0.002 C 
BRANCH  22  27
ATOM     25  N   UNL     1      33.134 -13.282 -23.703  0.00  0.00    -0.343 N 
ATOM     26  N   UNL     1      32.852 -14.501 -25.677  0.00  0.00    -0.285 NA
ATOM     27  C   UNL     1      33.101 -14.501 -24.380  0.00  0.00    +0.117 C 
ATOM     28  H   UNL     1      32.976 -12.443 -24.193  0.00  0.00    +0.144 HD
ATOM     29  H   UNL     1      33.315 -13.262 -22.736  0.00  0.00    +0.144 HD
ATOM     30  H   UNL     1      32.696 -13.651 -26.149  0.00  0.00    +0.188 HD
ENDBRANCH  22  27
ENDBRANCH  18  19
ENDBRANCH   1  18
TORSDOF 5
ENDMDL
