MODEL 1
REMARK VINA RESULT:     -12.8      0.000      0.000
REMARK  Name = 11581936
REMARK  5 active torsions:
REMARK  status: ('A' for Active; 'I' for Inactive)
REMARK    1  A    between atoms: C_1  and  C_9
REMARK    2  A    between atoms: C_4  and  O_19
REMARK    3  A    between atoms: C_10  and  C_14
REMARK    4  A    between atoms: O_19  and  C_20
REMARK    5  A    between atoms: C_20  and  C_22
REMARK                            x       y       z     vdW  Elec       q    Type
REMARK                         _______ _______ _______ _____ _____    ______ ____
ROOT
ATOM      1  C   UNL     1      32.784 -21.753 -17.725  0.00  0.00    +0.019 C 
ATOM      2  C   UNL     1      34.151 -21.906 -17.953  0.00  0.00    +0.005 C 
ATOM      3  C   UNL     1      32.023 -20.943 -18.567  0.00  0.00    +0.005 C 
ATOM      4  C   UNL     1      33.992 -20.442 -19.858  0.00  0.00    +0.139 C 
ATOM      5  C   UNL     1      34.757 -21.248 -19.023  0.00  0.00    +0.037 C 
ATOM      6  C   UNL     1      32.628 -20.285 -19.637  0.00  0.00    +0.037 C 
ENDROOT
BRANCH   1   9
ATOM      7  N   UNL     1      30.624 -23.254 -15.444  0.00  0.00    -0.208 N 
ATOM      8  N   UNL     1      30.831 -22.596 -16.597  0.00  0.00    -0.178 NA
ATOM      9  C   UNL     1      32.160 -22.431 -16.623  0.00  0.00    +0.100 C 
ATOM     10  C   UNL     1      32.791 -22.983 -15.489  0.00  0.00    +0.036 C 
ATOM     11  C   UNL     1      31.766 -23.511 -14.743  0.00  0.00    +0.086 C 
ATOM     12  C   UNL     1      29.282 -23.618 -15.058  0.00  0.00    +0.140 C 
BRANCH  10  14
ATOM     13  N   UNL     1      36.854 -23.156 -14.322  0.00  0.00    -0.242 NA
ATOM     14  C   UNL     1      34.166 -23.042 -15.095  0.00  0.00    +0.006 C 
ATOM     15  C   UNL     1      34.953 -21.894 -15.122  0.00  0.00    +0.021 C 
ATOM     16  C   UNL     1      34.727 -24.247 -14.680  0.00  0.00    +0.021 C 
ATOM     17  C   UNL     1      36.278 -22.003 -14.730  0.00  0.00    +0.099 C 
ATOM     18  C   UNL     1      36.061 -24.251 -14.308  0.00  0.00    +0.099 C 
ENDBRANCH  10  14
ENDBRANCH   1   9
BRANCH   4  19
ATOM     19  O   UNL     1      34.587 -19.795 -20.910  0.00  0.00    -0.468 OA
BRANCH  19  20
ATOM     20  C   UNL     1      34.974 -18.444 -20.695  0.00  0.00    +0.264 C 
BRANCH  20  22
ATOM     21  N   UNL     1      34.300 -16.264 -21.504  0.00  0.00    -0.406 NA
ATOM     22  C   UNL     1      34.394 -17.587 -21.771  0.00  0.00    +0.152 C 
ATOM     23  C   UNL     1      33.341 -15.960 -23.693  0.00  0.00    +0.026 C 
ATOM     24  C   UNL     1      33.782 -15.459 -22.451  0.00  0.00    +0.113 C 
ATOM     25  C   UNL     1      33.990 -18.168 -22.956  0.00  0.00    +0.031 C 
ATOM     26  C   UNL     1      33.456 -17.336 -23.929  0.00  0.00    +0.005 C 
ATOM     27  C   UNL     1      32.804 -15.090 -24.658  0.00  0.00    +0.002 C 
ATOM     28  C   UNL     1      33.668 -14.091 -22.217  0.00  0.00    +0.085 C 
ATOM     29  C   UNL     1      32.701 -13.726 -24.399  0.00  0.00    -0.004 C 
ATOM     30  C   UNL     1      33.133 -13.227 -23.176  0.00  0.00    -0.019 C 
ENDBRANCH  20  22
ENDBRANCH  19  20
ENDBRANCH   4  19
TORSDOF 5
ENDMDL
MODEL 2
REMARK VINA RESULT:     -12.7      1.384      2.260
REMARK  Name = 11581936
REMARK  5 active torsions:
REMARK  status: ('A' for Active; 'I' for Inactive)
REMARK    1  A    between atoms: C_1  and  C_9
REMARK    2  A    between atoms: C_4  and  O_19
REMARK    3  A    between atoms: C_10  and  C_14
REMARK    4  A    between atoms: O_19  and  C_20
REMARK    5  A    between atoms: C_20  and  C_22
REMARK                            x       y       z     vdW  Elec       q    Type
REMARK                         _______ _______ _______ _____ _____    ______ ____
ROOT
ATOM      1  C   UNL     1      33.338 -22.553 -16.111  0.00  0.00    +0.019 C 
ATOM      2  C   UNL     1      32.563 -22.472 -17.267  0.00  0.00    +0.005 C 
ATOM      3  C   UNL     1      34.662 -22.113 -16.126  0.00  0.00    +0.005 C 
ATOM      4  C   UNL     1      34.433 -21.515 -18.446  0.00  0.00    +0.139 C 
ATOM      5  C   UNL     1      33.113 -21.951 -18.439  0.00  0.00    +0.037 C 
ATOM      6  C   UNL     1      35.211 -21.592 -17.297  0.00  0.00    +0.037 C 
ENDROOT
BRANCH   1   9
ATOM      7  N   UNL     1      31.336 -23.483 -13.419  0.00  0.00    -0.208 N 
ATOM      8  N   UNL     1      31.499 -22.831 -14.582  0.00  0.00    -0.178 NA
ATOM      9  C   UNL     1      32.773 -23.089 -14.904  0.00  0.00    +0.100 C 
ATOM     10  C   UNL     1      33.414 -23.903 -13.946  0.00  0.00    +0.036 C 
ATOM     11  C   UNL     1      32.453 -24.142 -12.995  0.00  0.00    +0.086 C 
ATOM     12  C   UNL     1      30.061 -23.438 -12.746  0.00  0.00    +0.140 C 
BRANCH  10  14
ATOM     13  N   UNL     1      37.351 -25.436 -13.729  0.00  0.00    -0.242 NA
ATOM     14  C   UNL     1      34.746 -24.422 -13.872  0.00  0.00    +0.006 C 
ATOM     15  C   UNL     1      35.051 -25.656 -14.439  0.00  0.00    +0.021 C 
ATOM     16  C   UNL     1      35.748 -23.696 -13.233  0.00  0.00    +0.021 C 
ATOM     17  C   UNL     1      36.355 -26.114 -14.341  0.00  0.00    +0.099 C 
ATOM     18  C   UNL     1      37.020 -24.241 -13.189  0.00  0.00    +0.099 C 
ENDBRANCH  10  14
ENDBRANCH   1   9
BRANCH   4  19
ATOM     19  O   UNL     1      34.972 -21.003 -19.598  0.00  0.00    -0.468 OA
BRANCH  19  20
ATOM     20  C   UNL     1      35.412 -19.651 -19.552  0.00  0.00    +0.264 C 
BRANCH  20  22
ATOM     21  N   UNL     1      34.758 -17.571 -20.604  0.00  0.00    -0.406 NA
ATOM     22  C   UNL     1      34.865 -18.914 -20.729  0.00  0.00    +0.152 C 
ATOM     23  C   UNL     1      33.870 -17.501 -22.844  0.00  0.00    +0.026 C 
ATOM     24  C   UNL     1      34.268 -16.872 -21.646  0.00  0.00    +0.113 C 
ATOM     25  C   UNL     1      34.502 -19.617 -21.860  0.00  0.00    +0.031 C 
ATOM     26  C   UNL     1      33.998 -18.893 -22.932  0.00  0.00    +0.005 C 
ATOM     27  C   UNL     1      33.362 -16.740 -23.910  0.00  0.00    +0.002 C 
ATOM     28  C   UNL     1      34.142 -15.488 -21.559  0.00  0.00    +0.085 C 
ATOM     29  C   UNL     1      33.246 -15.357 -23.797  0.00  0.00    -0.004 C 
ATOM     30  C   UNL     1      33.636 -14.731 -22.620  0.00  0.00    -0.019 C 
ENDBRANCH  20  22
ENDBRANCH  19  20
ENDBRANCH   4  19
TORSDOF 5
ENDMDL
MODEL 3
REMARK VINA RESULT:     -12.3      1.484      3.797
REMARK  Name = 11581936
REMARK  5 active torsions:
REMARK  status: ('A' for Active; 'I' for Inactive)
REMARK    1  A    between atoms: C_1  and  C_9
REMARK    2  A    between atoms: C_4  and  O_19
REMARK    3  A    between atoms: C_10  and  C_14
REMARK    4  A    between atoms: O_19  and  C_20
REMARK    5  A    between atoms: C_20  and  C_22
REMARK                            x       y       z     vdW  Elec       q    Type
REMARK                         _______ _______ _______ _____ _____    ______ ____
ROOT
ATOM      1  C   UNL     1      33.704 -22.701 -15.873  0.00  0.00    +0.019 C 
ATOM      2  C   UNL     1      32.601 -22.761 -16.725  0.00  0.00    +0.005 C 
ATOM      3  C   UNL     1      34.856 -22.023 -16.270  0.00  0.00    +0.005 C 
ATOM      4  C   UNL     1      33.803 -21.468 -18.363  0.00  0.00    +0.139 C 
ATOM      5  C   UNL     1      32.652 -22.142 -17.974  0.00  0.00    +0.037 C 
ATOM      6  C   UNL     1      34.907 -21.404 -17.519  0.00  0.00    +0.037 C 
ENDROOT
BRANCH   1   9
ATOM      7  N   UNL     1      34.345 -24.234 -12.814  0.00  0.00    -0.208 N 
ATOM      8  N   UNL     1      34.783 -23.676 -13.955  0.00  0.00    -0.178 NA
ATOM      9  C   UNL     1      33.652 -23.338 -14.587  0.00  0.00    +0.100 C 
ATOM     10  C   UNL     1      32.501 -23.681 -13.847  0.00  0.00    +0.036 C 
ATOM     11  C   UNL     1      32.986 -24.260 -12.700  0.00  0.00    +0.086 C 
ATOM     12  C   UNL     1      35.295 -24.733 -11.850  0.00  0.00    +0.140 C 
BRANCH  10  14
ATOM     13  N   UNL     1      28.376 -23.197 -14.653  0.00  0.00    -0.242 NA
ATOM     14  C   UNL     1      31.106 -23.517 -14.120  0.00  0.00    +0.006 C 
ATOM     15  C   UNL     1      30.340 -24.602 -14.539  0.00  0.00    +0.021 C 
ATOM     16  C   UNL     1      30.502 -22.271 -13.969  0.00  0.00    +0.021 C 
ATOM     17  C   UNL     1      28.994 -24.391 -14.789  0.00  0.00    +0.099 C 
ATOM     18  C   UNL     1      29.149 -22.165 -14.245  0.00  0.00    +0.099 C 
ENDBRANCH  10  14
ENDBRANCH   1   9
BRANCH   4  19
ATOM     19  O   UNL     1      33.853 -20.859 -19.590  0.00  0.00    -0.468 OA
BRANCH  19  20
ATOM     20  C   UNL     1      34.910 -19.933 -19.804  0.00  0.00    +0.264 C 
BRANCH  20  22
ATOM     21  N   UNL     1      34.467 -17.675 -20.557  0.00  0.00    -0.406 NA
ATOM     22  C   UNL     1      34.525 -18.985 -20.890  0.00  0.00    +0.152 C 
ATOM     23  C   UNL     1      33.825 -17.194 -22.829  0.00  0.00    +0.026 C 
ATOM     24  C   UNL     1      34.123 -16.790 -21.511  0.00  0.00    +0.113 C 
ATOM     25  C   UNL     1      34.252 -19.475 -22.152  0.00  0.00    +0.031 C 
ATOM     26  C   UNL     1      33.897 -18.560 -23.133  0.00  0.00    +0.005 C 
ATOM     27  C   UNL     1      33.468 -16.243 -23.800  0.00  0.00    +0.002 C 
ATOM     28  C   UNL     1      34.051 -15.432 -21.210  0.00  0.00    +0.085 C 
ATOM     29  C   UNL     1      33.404 -14.891 -23.472  0.00  0.00    -0.004 C 
ATOM     30  C   UNL     1      33.696 -14.486 -22.176  0.00  0.00    -0.019 C 
ENDBRANCH  20  22
ENDBRANCH  19  20
ENDBRANCH   4  19
TORSDOF 5
ENDMDL
MODEL 4
REMARK VINA RESULT:     -11.5      6.921     13.984
REMARK  Name = 11581936
REMARK  5 active torsions:
REMARK  status: ('A' for Active; 'I' for Inactive)
REMARK    1  A    between atoms: C_1  and  C_9
REMARK    2  A    between atoms: C_4  and  O_19
REMARK    3  A    between atoms: C_10  and  C_14
REMARK    4  A    between atoms: O_19  and  C_20
REMARK    5  A    between atoms: C_20  and  C_22
REMARK                            x       y       z     vdW  Elec       q    Type
REMARK                         _______ _______ _______ _____ _____    ______ ____
ROOT
ATOM      1  C   UNL     1      32.592  -7.139 -23.543  0.00  0.00    +0.019 C 
ATOM      2  C   UNL     1      33.888  -7.489 -23.167  0.00  0.00    +0.005 C 
ATOM      3  C   UNL     1      31.757  -8.086 -24.137  0.00  0.00    +0.005 C 
ATOM      4  C   UNL     1      33.514  -9.725 -23.979  0.00  0.00    +0.139 C 
ATOM      5  C   UNL     1      34.351  -8.786 -23.387  0.00  0.00    +0.037 C 
ATOM      6  C   UNL     1      32.219  -9.384 -24.355  0.00  0.00    +0.037 C 
ENDROOT
BRANCH   1   9
ATOM      7  N   UNL     1      31.626  -3.799 -23.734  0.00  0.00    -0.208 N 
ATOM      8  N   UNL     1      32.135  -4.902 -24.308  0.00  0.00    -0.178 NA
ATOM      9  C   UNL     1      32.115  -5.803 -23.318  0.00  0.00    +0.100 C 
ATOM     10  C   UNL     1      31.594  -5.270 -22.119  0.00  0.00    +0.036 C 
ATOM     11  C   UNL     1      31.286  -3.967 -22.424  0.00  0.00    +0.086 C 
ATOM     12  C   UNL     1      31.488  -2.589 -24.507  0.00  0.00    +0.140 C 
BRANCH  10  14
ATOM     13  N   UNL     1      30.985  -6.984 -18.300  0.00  0.00    -0.242 NA
ATOM     14  C   UNL     1      31.387  -5.850 -20.827  0.00  0.00    +0.006 C 
ATOM     15  C   UNL     1      31.139  -7.214 -20.701  0.00  0.00    +0.021 C 
ATOM     16  C   UNL     1      31.434  -5.054 -19.685  0.00  0.00    +0.021 C 
ATOM     17  C   UNL     1      30.947  -7.726 -19.428  0.00  0.00    +0.099 C 
ATOM     18  C   UNL     1      31.228  -5.663 -18.458  0.00  0.00    +0.099 C 
ENDBRANCH  10  14
ENDBRANCH   1   9
BRANCH   4  19
ATOM     19  O   UNL     1      33.968 -11.000 -24.193  0.00  0.00    -0.468 OA
BRANCH  19  20
ATOM     20  C   UNL     1      32.982 -12.009 -24.375  0.00  0.00    +0.264 C 
BRANCH  20  22
ATOM     21  N   UNL     1      33.417 -14.373 -24.085  0.00  0.00    -0.406 NA
ATOM     22  C   UNL     1      33.290 -13.167 -23.485  0.00  0.00    +0.152 C 
ATOM     23  C   UNL     1      33.851 -15.330 -21.917  0.00  0.00    +0.026 C 
ATOM     24  C   UNL     1      33.695 -15.441 -23.314  0.00  0.00    +0.113 C 
ATOM     25  C   UNL     1      33.425 -12.961 -22.127  0.00  0.00    +0.031 C 
ATOM     26  C   UNL     1      33.711 -14.063 -21.335  0.00  0.00    +0.005 C 
ATOM     27  C   UNL     1      34.139 -16.467 -21.143  0.00  0.00    +0.002 C 
ATOM     28  C   UNL     1      33.835 -16.700 -23.891  0.00  0.00    +0.085 C 
ATOM     29  C   UNL     1      34.274 -17.715 -21.745  0.00  0.00    -0.004 C 
ATOM     30  C   UNL     1      34.121 -17.831 -23.121  0.00  0.00    -0.019 C 
ENDBRANCH  20  22
ENDBRANCH  19  20
ENDBRANCH   4  19
TORSDOF 5
ENDMDL
MODEL 5
REMARK VINA RESULT:     -11.5      3.634     10.934
REMARK  Name = 11581936
REMARK  5 active torsions:
REMARK  status: ('A' for Active; 'I' for Inactive)
REMARK    1  A    between atoms: C_1  and  C_9
REMARK    2  A    between atoms: C_4  and  O_19
REMARK    3  A    between atoms: C_10  and  C_14
REMARK    4  A    between atoms: O_19  and  C_20
REMARK    5  A    between atoms: C_20  and  C_22
REMARK                            x       y       z     vdW  Elec       q    Type
REMARK                         _______ _______ _______ _____ _____    ______ ____
ROOT
ATOM      1  C   UNL     1      32.398 -12.907 -22.014  0.00  0.00    +0.019 C 
ATOM      2  C   UNL     1      33.273 -13.647 -21.218  0.00  0.00    +0.005 C 
ATOM      3  C   UNL     1      32.142 -13.304 -23.326  0.00  0.00    +0.005 C 
ATOM      4  C   UNL     1      33.632 -15.175 -23.045  0.00  0.00    +0.139 C 
ATOM      5  C   UNL     1      33.891 -14.785 -21.737  0.00  0.00    +0.037 C 
ATOM      6  C   UNL     1      32.761 -14.442 -23.844  0.00  0.00    +0.037 C 
ENDROOT
BRANCH   1   9
ATOM      7  N   UNL     1      30.526 -10.568 -20.240  0.00  0.00    -0.208 N 
ATOM      8  N   UNL     1      30.911 -11.838 -20.451  0.00  0.00    -0.178 NA
ATOM      9  C   UNL     1      31.761 -11.735 -21.481  0.00  0.00    +0.100 C 
ATOM     10  C   UNL     1      31.913 -10.403 -21.919  0.00  0.00    +0.036 C 
ATOM     11  C   UNL     1      31.099  -9.669 -21.092  0.00  0.00    +0.086 C 
ATOM     12  C   UNL     1      29.589 -10.270 -19.184  0.00  0.00    +0.140 C 
BRANCH  10  14
ATOM     13  N   UNL     1      34.240  -8.698 -25.014  0.00  0.00    -0.242 NA
ATOM     14  C   UNL     1      32.700  -9.827 -22.967  0.00  0.00    +0.006 C 
ATOM     15  C   UNL     1      32.463  -8.520 -23.385  0.00  0.00    +0.021 C 
ATOM     16  C   UNL     1      33.710 -10.567 -23.576  0.00  0.00    +0.021 C 
ATOM     17  C   UNL     1      33.253  -8.008 -24.402  0.00  0.00    +0.099 C 
ATOM     18  C   UNL     1      34.443  -9.964 -24.584  0.00  0.00    +0.099 C 
ENDBRANCH  10  14
ENDBRANCH   1   9
BRANCH   4  19
ATOM     19  O   UNL     1      34.239 -16.293 -23.554  0.00  0.00    -0.468 OA
BRANCH  19  20
ATOM     20  C   UNL     1      33.526 -17.518 -23.438  0.00  0.00    +0.264 C 
BRANCH  20  22
ATOM     21  N   UNL     1      33.162 -19.019 -21.574  0.00  0.00    -0.406 NA
ATOM     22  C   UNL     1      34.060 -18.293 -22.280  0.00  0.00    +0.152 C 
ATOM     23  C   UNL     1      34.966 -19.736 -20.146  0.00  0.00    +0.026 C 
ATOM     24  C   UNL     1      33.607 -19.732 -20.521  0.00  0.00    +0.113 C 
ATOM     25  C   UNL     1      35.408 -18.235 -21.989  0.00  0.00    +0.031 C 
ATOM     26  C   UNL     1      35.863 -18.971 -20.904  0.00  0.00    +0.005 C 
ATOM     27  C   UNL     1      35.395 -20.491 -19.041  0.00  0.00    +0.002 C 
ATOM     28  C   UNL     1      32.717 -20.493 -19.768  0.00  0.00    +0.085 C 
ATOM     29  C   UNL     1      34.484 -21.243 -18.305  0.00  0.00    -0.004 C 
ATOM     30  C   UNL     1      33.143 -21.243 -18.669  0.00  0.00    -0.019 C 
ENDBRANCH  20  22
ENDBRANCH  19  20
ENDBRANCH   4  19
TORSDOF 5
ENDMDL
MODEL 6
REMARK VINA RESULT:     -11.4      6.297     13.821
REMARK  Name = 11581936
REMARK  5 active torsions:
REMARK  status: ('A' for Active; 'I' for Inactive)
REMARK    1  A    between atoms: C_1  and  C_9
REMARK    2  A    between atoms: C_4  and  O_19
REMARK    3  A    between atoms: C_10  and  C_14
REMARK    4  A    between atoms: O_19  and  C_20
REMARK    5  A    between atoms: C_20  and  C_22
REMARK                            x       y       z     vdW  Elec       q    Type
REMARK                         _______ _______ _______ _____ _____    ______ ____
ROOT
ATOM      1  C   UNL     1      32.897  -7.802 -23.894  0.00  0.00    +0.019 C 
ATOM      2  C   UNL     1      31.910  -8.715 -23.526  0.00  0.00    +0.005 C 
ATOM      3  C   UNL     1      34.170  -8.253 -24.244  0.00  0.00    +0.005 C 
ATOM      4  C   UNL     1      33.466 -10.523 -23.858  0.00  0.00    +0.139 C 
ATOM      5  C   UNL     1      32.196 -10.081 -23.508  0.00  0.00    +0.037 C 
ATOM      6  C   UNL     1      34.456  -9.618 -24.226  0.00  0.00    +0.037 C 
ENDROOT
BRANCH   1   9
ATOM      7  N   UNL     1      32.390  -4.448 -24.679  0.00  0.00    -0.208 N 
ATOM      8  N   UNL     1      32.749  -5.691 -25.043  0.00  0.00    -0.178 NA
ATOM      9  C   UNL     1      32.604  -6.396 -23.914  0.00  0.00    +0.100 C 
ATOM     10  C   UNL     1      32.154  -5.600 -22.839  0.00  0.00    +0.036 C 
ATOM     11  C   UNL     1      32.025  -4.340 -23.370  0.00  0.00    +0.086 C 
ATOM     12  C   UNL     1      32.418  -3.382 -25.651  0.00  0.00    +0.140 C 
BRANCH  10  14
ATOM     13  N   UNL     1      31.305  -6.531 -18.800  0.00  0.00    -0.242 NA
ATOM     14  C   UNL     1      31.866  -5.916 -21.472  0.00  0.00    +0.006 C 
ATOM     15  C   UNL     1      32.514  -6.977 -20.845  0.00  0.00    +0.021 C 
ATOM     16  C   UNL     1      30.937  -5.163 -20.759  0.00  0.00    +0.021 C 
ATOM     17  C   UNL     1      32.200  -7.240 -19.522  0.00  0.00    +0.099 C 
ATOM     18  C   UNL     1      30.695  -5.507 -19.439  0.00  0.00    +0.099 C 
ENDBRANCH  10  14
ENDBRANCH   1   9
BRANCH   4  19
ATOM     19  O   UNL     1      33.747 -11.865 -23.840  0.00  0.00    -0.468 OA
BRANCH  19  20
ATOM     20  C   UNL     1      33.328 -12.591 -22.692  0.00  0.00    +0.264 C 
BRANCH  20  22
ATOM     21  N   UNL     1      33.912 -14.854 -22.061  0.00  0.00    -0.406 NA
ATOM     22  C   UNL     1      33.352 -14.052 -22.996  0.00  0.00    +0.152 C 
ATOM     23  C   UNL     1      33.432 -16.737 -23.487  0.00  0.00    +0.026 C 
ATOM     24  C   UNL     1      33.952 -16.179 -22.301  0.00  0.00    +0.113 C 
ATOM     25  C   UNL     1      32.819 -14.506 -24.185  0.00  0.00    +0.031 C 
ATOM     26  C   UNL     1      32.861 -15.871 -24.429  0.00  0.00    +0.005 C 
ATOM     27  C   UNL     1      33.492 -18.124 -23.704  0.00  0.00    +0.002 C 
ATOM     28  C   UNL     1      34.518 -17.040 -21.365  0.00  0.00    +0.085 C 
ATOM     29  C   UNL     1      34.064 -18.963 -22.752  0.00  0.00    -0.004 C 
ATOM     30  C   UNL     1      34.578 -18.420 -21.581  0.00  0.00    -0.019 C 
ENDBRANCH  20  22
ENDBRANCH  19  20
ENDBRANCH   4  19
TORSDOF 5
ENDMDL
MODEL 7
REMARK VINA RESULT:     -11.4      3.698     11.324
REMARK  Name = 11581936
REMARK  5 active torsions:
REMARK  status: ('A' for Active; 'I' for Inactive)
REMARK    1  A    between atoms: C_1  and  C_9
REMARK    2  A    between atoms: C_4  and  O_19
REMARK    3  A    between atoms: C_10  and  C_14
REMARK    4  A    between atoms: O_19  and  C_20
REMARK    5  A    between atoms: C_20  and  C_22
REMARK                            x       y       z     vdW  Elec       q    Type
REMARK                         _______ _______ _______ _____ _____    ______ ____
ROOT
ATOM      1  C   UNL     1      33.081 -12.092 -23.097  0.00  0.00    +0.019 C 
ATOM      2  C   UNL     1      32.637 -12.955 -24.098  0.00  0.00    +0.005 C 
ATOM      3  C   UNL     1      33.593 -12.609 -21.907  0.00  0.00    +0.005 C 
ATOM      4  C   UNL     1      33.217 -14.843 -22.720  0.00  0.00    +0.139 C 
ATOM      5  C   UNL     1      32.705 -14.336 -23.909  0.00  0.00    +0.037 C 
ATOM      6  C   UNL     1      33.662 -13.989 -21.718  0.00  0.00    +0.037 C 
ENDROOT
BRANCH   1   9
ATOM      7  N   UNL     1      33.365  -8.793 -24.171  0.00  0.00    -0.208 N 
ATOM      8  N   UNL     1      33.658 -10.096 -24.314  0.00  0.00    -0.178 NA
ATOM      9  C   UNL     1      33.011 -10.671 -23.292  0.00  0.00    +0.100 C 
ATOM     10  C   UNL     1      32.311  -9.732 -22.505  0.00  0.00    +0.036 C 
ATOM     11  C   UNL     1      32.561  -8.522 -23.103  0.00  0.00    +0.086 C 
ATOM     12  C   UNL     1      33.896  -7.833 -25.109  0.00  0.00    +0.140 C 
BRANCH  10  14
ATOM     13  N   UNL     1      29.909 -10.175 -19.050  0.00  0.00    -0.242 NA
ATOM     14  C   UNL     1      31.499  -9.883 -21.335  0.00  0.00    +0.006 C 
ATOM     15  C   UNL     1      31.451  -8.871 -20.380  0.00  0.00    +0.021 C 
ATOM     16  C   UNL     1      30.749 -11.040 -21.146  0.00  0.00    +0.021 C 
ATOM     17  C   UNL     1      30.649  -9.065 -19.267  0.00  0.00    +0.099 C 
ATOM     18  C   UNL     1      29.979 -11.137 -19.998  0.00  0.00    +0.099 C 
ENDBRANCH  10  14
ENDBRANCH   1   9
BRANCH   4  19
ATOM     19  O   UNL     1      33.284 -16.200 -22.535  0.00  0.00    -0.468 OA
BRANCH  19  20
ATOM     20  C   UNL     1      34.563 -16.803 -22.685  0.00  0.00    +0.264 C 
BRANCH  20  22
ATOM     21  N   UNL     1      33.573 -18.484 -21.251  0.00  0.00    -0.406 NA
ATOM     22  C   UNL     1      34.713 -17.897 -21.680  0.00  0.00    +0.152 C 
ATOM     23  C   UNL     1      34.914 -19.904 -19.839  0.00  0.00    +0.026 C 
ATOM     24  C   UNL     1      33.669 -19.475 -20.344  0.00  0.00    +0.113 C 
ATOM     25  C   UNL     1      35.975 -18.248 -21.244  0.00  0.00    +0.031 C 
ATOM     26  C   UNL     1      36.071 -19.268 -20.309  0.00  0.00    +0.005 C 
ATOM     27  C   UNL     1      34.977 -20.940 -18.892  0.00  0.00    +0.002 C 
ATOM     28  C   UNL     1      32.520 -20.107 -19.877  0.00  0.00    +0.085 C 
ATOM     29  C   UNL     1      33.812 -21.555 -18.441  0.00  0.00    -0.004 C 
ATOM     30  C   UNL     1      32.582 -21.138 -18.934  0.00  0.00    -0.019 C 
ENDBRANCH  20  22
ENDBRANCH  19  20
ENDBRANCH   4  19
TORSDOF 5
ENDMDL
MODEL 8
REMARK VINA RESULT:     -11.2      6.665     13.953
REMARK  Name = 11581936
REMARK  5 active torsions:
REMARK  status: ('A' for Active; 'I' for Inactive)
REMARK    1  A    between atoms: C_1  and  C_9
REMARK    2  A    between atoms: C_4  and  O_19
REMARK    3  A    between atoms: C_10  and  C_14
REMARK    4  A    between atoms: O_19  and  C_20
REMARK    5  A    between atoms: C_20  and  C_22
REMARK                            x       y       z     vdW  Elec       q    Type
REMARK                         _______ _______ _______ _____ _____    ______ ____
ROOT
ATOM      1  C   UNL     1      32.556  -8.288 -22.268  0.00  0.00    +0.019 C 
ATOM      2  C   UNL     1      31.788  -9.439 -22.101  0.00  0.00    +0.005 C 
ATOM      3  C   UNL     1      33.686  -8.314 -23.085  0.00  0.00    +0.005 C 
ATOM      4  C   UNL     1      33.278 -10.638 -23.565  0.00  0.00    +0.139 C 
ATOM      5  C   UNL     1      32.151 -10.619 -22.752  0.00  0.00    +0.037 C 
ATOM      6  C   UNL     1      34.049  -9.493 -23.736  0.00  0.00    +0.037 C 
ENDROOT
BRANCH   1   9
ATOM      7  N   UNL     1      31.705  -5.776 -20.011  0.00  0.00    -0.208 N 
ATOM      8  N   UNL     1      32.056  -7.048 -20.265  0.00  0.00    -0.178 NA
ATOM      9  C   UNL     1      32.183  -7.073 -21.598  0.00  0.00    +0.100 C 
ATOM     10  C   UNL     1      31.913  -5.819 -22.185  0.00  0.00    +0.036 C 
ATOM     11  C   UNL     1      31.607  -4.999 -21.128  0.00  0.00    +0.086 C 
ATOM     12  C   UNL     1      31.473  -5.355 -18.651  0.00  0.00    +0.140 C 
BRANCH  10  14
ATOM     13  N   UNL     1      31.940  -4.528 -26.214  0.00  0.00    -0.242 NA
ATOM     14  C   UNL     1      31.922  -5.381 -23.548  0.00  0.00    +0.006 C 
ATOM     15  C   UNL     1      33.086  -4.867 -24.113  0.00  0.00    +0.021 C 
ATOM     16  C   UNL     1      30.767  -5.468 -24.321  0.00  0.00    +0.021 C 
ATOM     17  C   UNL     1      33.043  -4.458 -25.436  0.00  0.00    +0.099 C 
ATOM     18  C   UNL     1      30.827  -5.032 -25.635  0.00  0.00    +0.099 C 
ENDBRANCH  10  14
ENDBRANCH   1   9
BRANCH   4  19
ATOM     19  O   UNL     1      33.634 -11.797 -24.205  0.00  0.00    -0.468 OA
BRANCH  19  20
ATOM     20  C   UNL     1      32.648 -12.819 -24.273  0.00  0.00    +0.264 C 
BRANCH  20  22
ATOM     21  N   UNL     1      33.042 -15.204 -24.138  0.00  0.00    -0.406 NA
ATOM     22  C   UNL     1      33.118 -14.010 -23.506  0.00  0.00    +0.152 C 
ATOM     23  C   UNL     1      33.958 -16.232 -22.160  0.00  0.00    +0.026 C 
ATOM     24  C   UNL     1      33.457 -16.302 -23.476  0.00  0.00    +0.113 C 
ATOM     25  C   UNL     1      33.593 -13.844 -22.220  0.00  0.00    +0.031 C 
ATOM     26  C   UNL     1      34.019 -14.977 -21.542  0.00  0.00    +0.005 C 
ATOM     27  C   UNL     1      34.381 -17.399 -21.500  0.00  0.00    +0.002 C 
ATOM     28  C   UNL     1      33.397 -17.550 -24.091  0.00  0.00    +0.085 C 
ATOM     29  C   UNL     1      34.310 -18.635 -22.137  0.00  0.00    -0.004 C 
ATOM     30  C   UNL     1      33.818 -18.710 -23.434  0.00  0.00    -0.019 C 
ENDBRANCH  20  22
ENDBRANCH  19  20
ENDBRANCH   4  19
TORSDOF 5
ENDMDL
MODEL 9
REMARK VINA RESULT:     -11.0      6.282     14.065
REMARK  Name = 11581936
REMARK  5 active torsions:
REMARK  status: ('A' for Active; 'I' for Inactive)
REMARK    1  A    between atoms: C_1  and  C_9
REMARK    2  A    between atoms: C_4  and  O_19
REMARK    3  A    between atoms: C_10  and  C_14
REMARK    4  A    between atoms: O_19  and  C_20
REMARK    5  A    between atoms: C_20  and  C_22
REMARK                            x       y       z     vdW  Elec       q    Type
REMARK                         _______ _______ _______ _____ _____    ______ ____
ROOT
ATOM      1  C   UNL     1      32.136  -8.159 -22.696  0.00  0.00    +0.019 C 
ATOM      2  C   UNL     1      33.207  -8.383 -23.562  0.00  0.00    +0.005 C 
ATOM      3  C   UNL     1      31.531  -9.233 -22.044  0.00  0.00    +0.005 C 
ATOM      4  C   UNL     1      33.063 -10.746 -23.121  0.00  0.00    +0.139 C 
ATOM      5  C   UNL     1      33.671  -9.681 -23.775  0.00  0.00    +0.037 C 
ATOM      6  C   UNL     1      31.995 -10.531 -22.256  0.00  0.00    +0.037 C 
ENDROOT
BRANCH   1   9
ATOM      7  N   UNL     1      30.670  -5.226 -21.528  0.00  0.00    -0.208 N 
ATOM      8  N   UNL     1      30.927  -6.537 -21.391  0.00  0.00    -0.178 NA
ATOM      9  C   UNL     1      31.658  -6.823 -22.476  0.00  0.00    +0.100 C 
ATOM     10  C   UNL     1      31.863  -5.694 -23.297  0.00  0.00    +0.036 C 
ATOM     11  C   UNL     1      31.209  -4.673 -22.652  0.00  0.00    +0.086 C 
ATOM     12  C   UNL     1      29.886  -4.541 -20.528  0.00  0.00    +0.140 C 
BRANCH  10  14
ATOM     13  N   UNL     1      33.941  -5.197 -26.948  0.00  0.00    -0.242 NA
ATOM     14  C   UNL     1      32.566  -5.527 -24.532  0.00  0.00    +0.006 C 
ATOM     15  C   UNL     1      31.945  -5.830 -25.740  0.00  0.00    +0.021 C 
ATOM     16  C   UNL     1      33.877  -5.057 -24.536  0.00  0.00    +0.021 C 
ATOM     17  C   UNL     1      32.668  -5.650 -26.908  0.00  0.00    +0.099 C 
ATOM     18  C   UNL     1      34.514  -4.912 -25.757  0.00  0.00    +0.099 C 
ENDBRANCH  10  14
ENDBRANCH   1   9
BRANCH   4  19
ATOM     19  O   UNL     1      33.520 -12.021 -23.330  0.00  0.00    -0.468 OA
BRANCH  19  20
ATOM     20  C   UNL     1      33.539 -12.887 -22.203  0.00  0.00    +0.264 C 
BRANCH  20  22
ATOM     21  N   UNL     1      34.028 -15.228 -21.822  0.00  0.00    -0.406 NA
ATOM     22  C   UNL     1      33.514 -14.305 -22.668  0.00  0.00    +0.152 C 
ATOM     23  C   UNL     1      33.503 -16.919 -23.456  0.00  0.00    +0.026 C 
ATOM     24  C   UNL     1      34.022 -16.518 -22.208  0.00  0.00    +0.113 C 
ATOM     25  C   UNL     1      32.985 -14.602 -23.908  0.00  0.00    +0.031 C 
ATOM     26  C   UNL     1      32.981 -15.932 -24.302  0.00  0.00    +0.005 C 
ATOM     27  C   UNL     1      33.515 -18.275 -23.827  0.00  0.00    +0.002 C 
ATOM     28  C   UNL     1      34.540 -17.499 -21.367  0.00  0.00    +0.085 C 
ATOM     29  C   UNL     1      34.039 -19.236 -22.967  0.00  0.00    -0.004 C 
ATOM     30  C   UNL     1      34.553 -18.848 -21.736  0.00  0.00    -0.019 C 
ENDBRANCH  20  22
ENDBRANCH  19  20
ENDBRANCH   4  19
TORSDOF 5
ENDMDL
