MODEL 1
REMARK VINA RESULT:     -12.6      0.000      0.000
REMARK  Name = 9808844
REMARK  5 active torsions:
REMARK  status: ('A' for Active; 'I' for Inactive)
REMARK    1  A    between atoms: N_2  and  C_13
REMARK    2  A    between atoms: C_8  and  O_19
REMARK    3  A    between atoms: O_19  and  C_20
REMARK    4  A    between atoms: C_20  and  C_22
REMARK    5  A    between atoms: C_25  and  C_29
REMARK                            x       y       z     vdW  Elec       q    Type
REMARK                         _______ _______ _______ _____ _____    ______ ____
ROOT
ATOM      1  O   UNL     1      34.560 -22.569 -16.485  0.00  0.00    -0.446 OA
ATOM      2  N   UNL     1      34.755 -19.460 -19.997  0.00  0.00    -0.296 N 
ATOM      3  N   UNL     1      32.710 -20.588 -19.489  0.00  0.00    -0.130 NA
ATOM      4  N   UNL     1      31.953 -21.485 -18.747  0.00  0.00    -0.106 NA
ATOM      5  C   UNL     1      34.612 -21.080 -18.182  0.00  0.00    +0.076 A 
ATOM      6  C   UNL     1      33.826 -21.969 -17.462  0.00  0.00    +0.202 A 
ATOM      7  C   UNL     1      34.020 -20.376 -19.225  0.00  0.00    +0.157 A 
ATOM      8  C   UNL     1      32.491 -22.186 -17.729  0.00  0.00    +0.279 A 
ATOM      9  C   UNL     1      35.905 -21.151 -17.600  0.00  0.00    +0.047 C 
ATOM     10  C   UNL     1      35.819 -22.066 -16.576  0.00  0.00    +0.180 C 
ATOM     11  H   UNL     1      35.697 -19.381 -19.723  0.00  0.00    +0.154 HD
ENDROOT
BRANCH   2  13
ATOM     12 CL   UNL     1      33.315 -15.980 -24.565  0.00  0.00    -0.082 Cl
ATOM     13  C   UNL     1      34.412 -18.631 -21.086  0.00  0.00    +0.049 C 
ATOM     14  C   UNL     1      33.958 -19.196 -22.277  0.00  0.00    +0.016 C 
ATOM     15  C   UNL     1      34.526 -17.245 -20.970  0.00  0.00    +0.016 C 
ATOM     16  C   UNL     1      33.619 -18.377 -23.353  0.00  0.00    +0.013 C 
ATOM     17  C   UNL     1      34.187 -16.426 -22.046  0.00  0.00    +0.013 C 
ATOM     18  C   UNL     1      33.733 -16.991 -23.237  0.00  0.00    +0.058 C 
ENDBRANCH   2  13
BRANCH   8  19
ATOM     19  O   UNL     1      31.707 -23.061 -17.025  0.00  0.00    -0.452 OA
BRANCH  19  20
ATOM     20  C   UNL     1      30.846 -22.500 -16.041  0.00  0.00    +0.234 C 
BRANCH  20  22
ATOM     21  N   UNL     1      31.355 -24.632 -12.357  0.00  0.00    -0.239 NA
ATOM     22  C   UNL     1      31.025 -23.246 -14.751  0.00  0.00    +0.024 C 
ATOM     23  C   UNL     1      32.234 -23.181 -14.079  0.00  0.00    +0.023 C 
ATOM     24  C   UNL     1      29.978 -23.998 -14.240  0.00  0.00    +0.020 C 
ATOM     25  C   UNL     1      32.348 -23.887 -12.893  0.00  0.00    +0.134 C 
ATOM     26  C   UNL     1      30.193 -24.668 -13.046  0.00  0.00    +0.099 C 
BRANCH  25  29
ATOM     27  O   UNL     1      33.714 -24.529 -11.097  0.00  0.00    -0.268 OA
ATOM     28  N   UNL     1      34.629 -23.073 -12.653  0.00  0.00    -0.298 N 
ATOM     29  C   UNL     1      33.590 -23.860 -12.140  0.00  0.00    +0.264 C 
ATOM     30  C   UNL     1      35.929 -22.961 -12.032  0.00  0.00    +0.111 C 
ATOM     31  H   UNL     1      34.464 -22.569 -13.482  0.00  0.00    +0.150 HD
ENDBRANCH  25  29
ENDBRANCH  20  22
ENDBRANCH  19  20
ENDBRANCH   8  19
TORSDOF 5
ENDMDL
MODEL 2
REMARK VINA RESULT:     -12.0      2.291      3.801
REMARK  Name = 9808844
REMARK  5 active torsions:
REMARK  status: ('A' for Active; 'I' for Inactive)
REMARK    1  A    between atoms: N_2  and  C_13
REMARK    2  A    between atoms: C_8  and  O_19
REMARK    3  A    between atoms: O_19  and  C_20
REMARK    4  A    between atoms: C_20  and  C_22
REMARK    5  A    between atoms: C_25  and  C_29
REMARK                            x       y       z     vdW  Elec       q    Type
REMARK                         _______ _______ _______ _____ _____    ______ ____
ROOT
ATOM      1  O   UNL     1      34.810 -22.708 -15.888  0.00  0.00    -0.446 OA
ATOM      2  N   UNL     1      34.974 -19.755 -19.535  0.00  0.00    -0.296 N 
ATOM      3  N   UNL     1      32.981 -20.985 -19.060  0.00  0.00    -0.130 NA
ATOM      4  N   UNL     1      32.247 -21.895 -18.309  0.00  0.00    -0.106 NA
ATOM      5  C   UNL     1      34.849 -21.297 -17.652  0.00  0.00    +0.076 A 
ATOM      6  C   UNL     1      34.086 -22.200 -16.924  0.00  0.00    +0.202 A 
ATOM      7  C   UNL     1      34.262 -20.680 -18.752  0.00  0.00    +0.157 A 
ATOM      8  C   UNL     1      32.780 -22.513 -17.237  0.00  0.00    +0.279 A 
ATOM      9  C   UNL     1      36.115 -21.259 -17.012  0.00  0.00    +0.047 C 
ATOM     10  C   UNL     1      36.039 -22.130 -15.950  0.00  0.00    +0.180 C 
ATOM     11  H   UNL     1      35.896 -19.604 -19.225  0.00  0.00    +0.154 HD
ENDROOT
BRANCH   2  13
ATOM     12 CL   UNL     1      33.533 -16.584 -24.322  0.00  0.00    -0.082 Cl
ATOM     13  C   UNL     1      34.631 -18.999 -20.676  0.00  0.00    +0.049 C 
ATOM     14  C   UNL     1      34.112 -19.635 -21.803  0.00  0.00    +0.016 C 
ATOM     15  C   UNL     1      34.809 -17.616 -20.675  0.00  0.00    +0.016 C 
ATOM     16  C   UNL     1      33.773 -18.889 -22.931  0.00  0.00    +0.013 C 
ATOM     17  C   UNL     1      34.470 -16.869 -21.803  0.00  0.00    +0.013 C 
ATOM     18  C   UNL     1      33.951 -17.505 -22.930  0.00  0.00    +0.058 C 
ENDBRANCH   2  13
BRANCH   8  19
ATOM     19  O   UNL     1      32.020 -23.403 -16.525  0.00  0.00    -0.452 OA
BRANCH  19  20
ATOM     20  C   UNL     1      31.738 -23.065 -15.171  0.00  0.00    +0.234 C 
BRANCH  20  22
ATOM     21  N   UNL     1      27.756 -24.331 -14.216  0.00  0.00    -0.239 NA
ATOM     22  C   UNL     1      30.343 -23.507 -14.837  0.00  0.00    +0.024 C 
ATOM     23  C   UNL     1      29.260 -22.779 -15.299  0.00  0.00    +0.023 C 
ATOM     24  C   UNL     1      30.148 -24.643 -14.067  0.00  0.00    +0.020 C 
ATOM     25  C   UNL     1      27.994 -23.230 -14.964  0.00  0.00    +0.134 C 
ATOM     26  C   UNL     1      28.842 -25.010 -13.786  0.00  0.00    +0.099 C 
BRANCH  25  29
ATOM     27  O   UNL     1      25.992 -22.063 -14.599  0.00  0.00    -0.268 OA
ATOM     28  N   UNL     1      26.672 -22.332 -16.799  0.00  0.00    -0.298 N 
ATOM     29  C   UNL     1      26.816 -22.511 -15.418  0.00  0.00    +0.264 C 
ATOM     30  C   UNL     1      25.569 -21.619 -17.403  0.00  0.00    +0.111 C 
ATOM     31  H   UNL     1      27.361 -22.711 -17.392  0.00  0.00    +0.150 HD
ENDBRANCH  25  29
ENDBRANCH  20  22
ENDBRANCH  19  20
ENDBRANCH   8  19
TORSDOF 5
ENDMDL
MODEL 3
REMARK VINA RESULT:     -11.0      6.016     11.724
REMARK  Name = 9808844
REMARK  5 active torsions:
REMARK  status: ('A' for Active; 'I' for Inactive)
REMARK    1  A    between atoms: N_2  and  C_13
REMARK    2  A    between atoms: C_8  and  O_19
REMARK    3  A    between atoms: O_19  and  C_20
REMARK    4  A    between atoms: C_20  and  C_22
REMARK    5  A    between atoms: C_25  and  C_29
REMARK                            x       y       z     vdW  Elec       q    Type
REMARK                         _______ _______ _______ _____ _____    ______ ____
ROOT
ATOM      1  O   UNL     1      33.711 -16.930 -23.931  0.00  0.00    -0.446 OA
ATOM      2  N   UNL     1      34.039 -20.171 -20.549  0.00  0.00    -0.296 N 
ATOM      3  N   UNL     1      34.305 -17.852 -20.036  0.00  0.00    -0.130 NA
ATOM      4  N   UNL     1      34.346 -16.510 -20.394  0.00  0.00    -0.106 NA
ATOM      5  C   UNL     1      33.876 -18.458 -22.275  0.00  0.00    +0.076 A 
ATOM      6  C   UNL     1      33.925 -17.109 -22.598  0.00  0.00    +0.202 A 
ATOM      7  C   UNL     1      34.074 -18.823 -20.948  0.00  0.00    +0.157 A 
ATOM      8  C   UNL     1      34.159 -16.117 -21.669  0.00  0.00    +0.279 A 
ATOM      9  C   UNL     1      33.616 -19.136 -23.495  0.00  0.00    +0.047 C 
ATOM     10  C   UNL     1      33.524 -18.166 -24.466  0.00  0.00    +0.180 C 
ATOM     11  H   UNL     1      33.865 -20.796 -21.289  0.00  0.00    +0.154 HD
ENDROOT
BRANCH   2  13
ATOM     12 CL   UNL     1      34.724 -22.833 -15.305  0.00  0.00    -0.082 Cl
ATOM     13  C   UNL     1      34.202 -20.805 -19.299  0.00  0.00    +0.049 C 
ATOM     14  C   UNL     1      35.455 -20.826 -18.687  0.00  0.00    +0.016 C 
ATOM     15  C   UNL     1      33.111 -21.410 -18.677  0.00  0.00    +0.016 C 
ATOM     16  C   UNL     1      35.617 -21.453 -17.452  0.00  0.00    +0.013 C 
ATOM     17  C   UNL     1      33.272 -22.037 -17.442  0.00  0.00    +0.013 C 
ATOM     18  C   UNL     1      34.525 -22.058 -16.829  0.00  0.00    +0.058 C 
ENDBRANCH   2  13
BRANCH   8  19
ATOM     19  O   UNL     1      34.209 -14.783 -21.978  0.00  0.00    -0.452 OA
BRANCH  19  20
ATOM     20  C   UNL     1      32.967 -14.093 -22.043  0.00  0.00    +0.234 C 
BRANCH  20  22
ATOM     21  N   UNL     1      32.897 -11.669 -25.577  0.00  0.00    -0.239 NA
ATOM     22  C   UNL     1      32.943 -13.243 -23.280  0.00  0.00    +0.024 C 
ATOM     23  C   UNL     1      33.381 -11.931 -23.223  0.00  0.00    +0.023 C 
ATOM     24  C   UNL     1      32.480 -13.778 -24.473  0.00  0.00    +0.020 C 
ATOM     25  C   UNL     1      33.339 -11.190 -24.393  0.00  0.00    +0.134 C 
ATOM     26  C   UNL     1      32.478 -12.954 -25.586  0.00  0.00    +0.099 C 
BRANCH  25  29
ATOM     27  O   UNL     1      34.898  -9.503 -24.869  0.00  0.00    -0.268 OA
ATOM     28  N   UNL     1      32.903  -8.850 -23.884  0.00  0.00    -0.298 N 
ATOM     29  C   UNL     1      33.786  -9.807 -24.401  0.00  0.00    +0.264 C 
ATOM     30  C   UNL     1      33.192  -7.435 -23.845  0.00  0.00    +0.111 C 
ATOM     31  H   UNL     1      32.038  -9.158 -23.530  0.00  0.00    +0.150 HD
ENDBRANCH  25  29
ENDBRANCH  20  22
ENDBRANCH  19  20
ENDBRANCH   8  19
TORSDOF 5
ENDMDL
MODEL 4
REMARK VINA RESULT:     -11.0      1.430      3.467
REMARK  Name = 9808844
REMARK  5 active torsions:
REMARK  status: ('A' for Active; 'I' for Inactive)
REMARK    1  A    between atoms: N_2  and  C_13
REMARK    2  A    between atoms: C_8  and  O_19
REMARK    3  A    between atoms: O_19  and  C_20
REMARK    4  A    between atoms: C_20  and  C_22
REMARK    5  A    between atoms: C_25  and  C_29
REMARK                            x       y       z     vdW  Elec       q    Type
REMARK                         _______ _______ _______ _____ _____    ______ ____
ROOT
ATOM      1  O   UNL     1      33.770 -22.618 -17.085  0.00  0.00    -0.446 OA
ATOM      2  N   UNL     1      33.263 -19.560 -20.611  0.00  0.00    -0.296 N 
ATOM      3  N   UNL     1      35.359 -19.773 -19.484  0.00  0.00    -0.130 NA
ATOM      4  N   UNL     1      36.185 -20.338 -18.520  0.00  0.00    -0.106 NA
ATOM      5  C   UNL     1      33.567 -21.135 -18.777  0.00  0.00    +0.076 A 
ATOM      6  C   UNL     1      34.420 -21.677 -17.825  0.00  0.00    +0.202 A 
ATOM      7  C   UNL     1      34.069 -20.153 -19.625  0.00  0.00    +0.157 A 
ATOM      8  C   UNL     1      35.735 -21.291 -17.681  0.00  0.00    +0.279 A 
ATOM      9  C   UNL     1      32.322 -21.793 -18.598  0.00  0.00    +0.047 C 
ATOM     10  C   UNL     1      32.499 -22.682 -17.561  0.00  0.00    +0.180 C 
ATOM     11  H   UNL     1      32.342 -19.908 -20.629  0.00  0.00    +0.154 HD
ENDROOT
BRANCH   2  13
ATOM     12 CL   UNL     1      34.302 -15.391 -24.685  0.00  0.00    -0.082 Cl
ATOM     13  C   UNL     1      33.511 -18.567 -21.582  0.00  0.00    +0.049 C 
ATOM     14  C   UNL     1      34.047 -17.338 -21.200  0.00  0.00    +0.016 C 
ATOM     15  C   UNL     1      33.219 -18.814 -22.924  0.00  0.00    +0.016 C 
ATOM     16  C   UNL     1      34.292 -16.356 -22.160  0.00  0.00    +0.013 C 
ATOM     17  C   UNL     1      33.464 -17.832 -23.883  0.00  0.00    +0.013 C 
ATOM     18  C   UNL     1      34.001 -16.603 -23.501  0.00  0.00    +0.058 C 
ENDBRANCH   2  13
BRANCH   8  19
ATOM     19  O   UNL     1      36.584 -21.820 -16.744  0.00  0.00    -0.452 OA
BRANCH  19  20
ATOM     20  C   UNL     1      36.386 -21.409 -15.396  0.00  0.00    +0.234 C 
BRANCH  20  22
ATOM     21  N   UNL     1      35.765 -24.877 -12.956  0.00  0.00    -0.239 NA
ATOM     22  C   UNL     1      36.168 -22.623 -14.541  0.00  0.00    +0.024 C 
ATOM     23  C   UNL     1      34.945 -22.819 -13.922  0.00  0.00    +0.023 C 
ATOM     24  C   UNL     1      37.193 -23.541 -14.376  0.00  0.00    +0.020 C 
ATOM     25  C   UNL     1      34.794 -23.956 -13.145  0.00  0.00    +0.134 C 
ATOM     26  C   UNL     1      36.942 -24.645 -13.577  0.00  0.00    +0.099 C 
BRANCH  25  29
ATOM     27  O   UNL     1      33.472 -24.229 -11.227  0.00  0.00    -0.268 OA
ATOM     28  N   UNL     1      32.412 -24.438 -13.278  0.00  0.00    -0.298 N 
ATOM     29  C   UNL     1      33.535 -24.221 -12.470  0.00  0.00    +0.264 C 
ATOM     30  C   UNL     1      31.088 -24.689 -12.757  0.00  0.00    +0.111 C 
ATOM     31  H   UNL     1      32.531 -24.417 -14.255  0.00  0.00    +0.150 HD
ENDBRANCH  25  29
ENDBRANCH  20  22
ENDBRANCH  19  20
ENDBRANCH   8  19
TORSDOF 5
ENDMDL
MODEL 5
REMARK VINA RESULT:     -10.9      7.055     10.754
REMARK  Name = 9808844
REMARK  5 active torsions:
REMARK  status: ('A' for Active; 'I' for Inactive)
REMARK    1  A    between atoms: N_2  and  C_13
REMARK    2  A    between atoms: C_8  and  O_19
REMARK    3  A    between atoms: O_19  and  C_20
REMARK    4  A    between atoms: C_20  and  C_22
REMARK    5  A    between atoms: C_25  and  C_29
REMARK                            x       y       z     vdW  Elec       q    Type
REMARK                         _______ _______ _______ _____ _____    ______ ____
ROOT
ATOM      1  O   UNL     1      31.437 -13.354 -20.712  0.00  0.00    -0.446 OA
ATOM      2  N   UNL     1      32.212  -9.008 -22.309  0.00  0.00    -0.296 N 
ATOM      3  N   UNL     1      33.013 -10.905 -23.521  0.00  0.00    -0.130 NA
ATOM      4  N   UNL     1      33.173 -12.275 -23.696  0.00  0.00    -0.106 NA
ATOM      5  C   UNL     1      31.830 -11.279 -21.514  0.00  0.00    +0.076 A 
ATOM      6  C   UNL     1      32.009 -12.640 -21.720  0.00  0.00    +0.202 A 
ATOM      7  C   UNL     1      32.355 -10.398 -22.453  0.00  0.00    +0.157 A 
ATOM      8  C   UNL     1      32.679 -13.159 -22.808  0.00  0.00    +0.279 A 
ATOM      9  C   UNL     1      31.102 -11.166 -20.301  0.00  0.00    +0.047 C 
ATOM     10  C   UNL     1      30.888 -12.451 -19.856  0.00  0.00    +0.180 C 
ATOM     11  H   UNL     1      31.718  -8.744 -21.500  0.00  0.00    +0.154 HD
ENDROOT
BRANCH   2  13
ATOM     12 CL   UNL     1      33.985  -4.418 -25.603  0.00  0.00    -0.082 Cl
ATOM     13  C   UNL     1      32.634  -7.914 -23.094  0.00  0.00    +0.049 C 
ATOM     14  C   UNL     1      31.923  -7.563 -24.242  0.00  0.00    +0.016 C 
ATOM     15  C   UNL     1      33.763  -7.183 -22.722  0.00  0.00    +0.016 C 
ATOM     16  C   UNL     1      32.341  -6.482 -25.017  0.00  0.00    +0.013 C 
ATOM     17  C   UNL     1      34.180  -6.102 -23.497  0.00  0.00    +0.013 C 
ATOM     18  C   UNL     1      33.469  -5.752 -24.645  0.00  0.00    +0.058 C 
ENDBRANCH   2  13
BRANCH   8  19
ATOM     19  O   UNL     1      32.861 -14.500 -23.020  0.00  0.00    -0.452 OA
BRANCH  19  20
ATOM     20  C   UNL     1      34.195 -14.987 -22.929  0.00  0.00    +0.234 C 
BRANCH  20  22
ATOM     21  N   UNL     1      34.094 -19.227 -22.307  0.00  0.00    -0.239 NA
ATOM     22  C   UNL     1      34.160 -16.472 -22.711  0.00  0.00    +0.024 C 
ATOM     23  C   UNL     1      34.795 -17.021 -21.609  0.00  0.00    +0.023 C 
ATOM     24  C   UNL     1      33.493 -17.285 -23.615  0.00  0.00    +0.020 C 
ATOM     25  C   UNL     1      34.732 -18.397 -21.453  0.00  0.00    +0.134 C 
ATOM     26  C   UNL     1      33.489 -18.648 -23.369  0.00  0.00    +0.099 C 
BRANCH  25  29
ATOM     27  O   UNL     1      36.437 -18.580 -19.852  0.00  0.00    -0.268 OA
ATOM     28  N   UNL     1      34.737 -20.155 -19.771  0.00  0.00    -0.298 N 
ATOM     29  C   UNL     1      35.376 -19.035 -20.318  0.00  0.00    +0.264 C 
ATOM     30  C   UNL     1      35.240 -20.884 -18.628  0.00  0.00    +0.111 C 
ATOM     31  H   UNL     1      33.900 -20.463 -20.187  0.00  0.00    +0.150 HD
ENDBRANCH  25  29
ENDBRANCH  20  22
ENDBRANCH  19  20
ENDBRANCH   8  19
TORSDOF 5
ENDMDL
MODEL 6
REMARK VINA RESULT:     -10.9      7.697     12.108
REMARK  Name = 9808844
REMARK  5 active torsions:
REMARK  status: ('A' for Active; 'I' for Inactive)
REMARK    1  A    between atoms: N_2  and  C_13
REMARK    2  A    between atoms: C_8  and  O_19
REMARK    3  A    between atoms: O_19  and  C_20
REMARK    4  A    between atoms: C_20  and  C_22
REMARK    5  A    between atoms: C_25  and  C_29
REMARK                            x       y       z     vdW  Elec       q    Type
REMARK                         _______ _______ _______ _____ _____    ______ ____
ROOT
ATOM      1  O   UNL     1      32.439 -12.941 -24.510  0.00  0.00    -0.446 OA
ATOM      2  N   UNL     1      33.920 -16.948 -22.562  0.00  0.00    -0.296 N 
ATOM      3  N   UNL     1      33.504 -15.023 -21.208  0.00  0.00    -0.130 NA
ATOM      4  N   UNL     1      33.119 -13.698 -21.038  0.00  0.00    -0.106 NA
ATOM      5  C   UNL     1      33.150 -14.850 -23.534  0.00  0.00    +0.076 A 
ATOM      6  C   UNL     1      32.772 -13.531 -23.328  0.00  0.00    +0.202 A 
ATOM      7  C   UNL     1      33.525 -15.605 -22.428  0.00  0.00    +0.157 A 
ATOM      8  C   UNL     1      32.749 -12.935 -22.085  0.00  0.00    +0.279 A 
ATOM      9  C   UNL     1      33.037 -15.069 -24.932  0.00  0.00    +0.047 C 
ATOM     10  C   UNL     1      32.602 -13.883 -25.477  0.00  0.00    +0.180 C 
ATOM     11  H   UNL     1      33.900 -17.274 -23.490  0.00  0.00    +0.154 HD
ENDROOT
BRANCH   2  13
ATOM     12 CL   UNL     1      35.675 -21.032 -18.651  0.00  0.00    -0.082 Cl
ATOM     13  C   UNL     1      34.338 -17.922 -21.630  0.00  0.00    +0.049 C 
ATOM     14  C   UNL     1      33.425 -18.855 -21.141  0.00  0.00    +0.016 C 
ATOM     15  C   UNL     1      35.664 -17.949 -21.199  0.00  0.00    +0.016 C 
ATOM     16  C   UNL     1      33.839 -19.818 -20.220  0.00  0.00    +0.013 C 
ATOM     17  C   UNL     1      36.077 -18.912 -20.278  0.00  0.00    +0.013 C 
ATOM     18  C   UNL     1      35.165 -19.846 -19.789  0.00  0.00    +0.058 C 
ENDBRANCH   2  13
BRANCH   8  19
ATOM     19  O   UNL     1      32.378 -11.633 -21.872  0.00  0.00    -0.452 OA
BRANCH  19  20
ATOM     20  C   UNL     1      31.039 -11.411 -21.446  0.00  0.00    +0.234 C 
BRANCH  20  22
ATOM     21  N   UNL     1      31.060  -8.691 -18.133  0.00  0.00    -0.239 NA
ATOM     22  C   UNL     1      31.047 -10.458 -20.286  0.00  0.00    +0.024 C 
ATOM     23  C   UNL     1      31.278  -9.110 -20.504  0.00  0.00    +0.023 C 
ATOM     24  C   UNL     1      30.823 -10.934 -19.003  0.00  0.00    +0.020 C 
ATOM     25  C   UNL     1      31.274  -8.272 -19.400  0.00  0.00    +0.134 C 
ATOM     26  C   UNL     1      30.840 -10.014 -17.967  0.00  0.00    +0.099 C 
BRANCH  25  29
ATOM     27  O   UNL     1      32.169  -6.215 -18.716  0.00  0.00    -0.268 OA
ATOM     28  N   UNL     1      30.982  -6.240 -20.708  0.00  0.00    -0.298 N 
ATOM     29  C   UNL     1      31.509  -6.848 -19.561  0.00  0.00    +0.264 C 
ATOM     30  C   UNL     1      31.152  -4.839 -21.021  0.00  0.00    +0.111 C 
ATOM     31  H   UNL     1      30.470  -6.798 -21.336  0.00  0.00    +0.150 HD
ENDBRANCH  25  29
ENDBRANCH  20  22
ENDBRANCH  19  20
ENDBRANCH   8  19
TORSDOF 5
ENDMDL
MODEL 7
REMARK VINA RESULT:     -10.7      2.602      4.940
REMARK  Name = 9808844
REMARK  5 active torsions:
REMARK  status: ('A' for Active; 'I' for Inactive)
REMARK    1  A    between atoms: N_2  and  C_13
REMARK    2  A    between atoms: C_8  and  O_19
REMARK    3  A    between atoms: O_19  and  C_20
REMARK    4  A    between atoms: C_20  and  C_22
REMARK    5  A    between atoms: C_25  and  C_29
REMARK                            x       y       z     vdW  Elec       q    Type
REMARK                         _______ _______ _______ _____ _____    ______ ____
ROOT
ATOM      1  O   UNL     1      30.185 -24.072 -14.015  0.00  0.00    -0.446 OA
ATOM      2  N   UNL     1      31.695 -21.629 -17.728  0.00  0.00    -0.296 N 
ATOM      3  N   UNL     1      33.255 -22.647 -16.231  0.00  0.00    -0.130 NA
ATOM      4  N   UNL     1      33.568 -23.399 -15.105  0.00  0.00    -0.106 NA
ATOM      5  C   UNL     1      30.951 -22.905 -15.790  0.00  0.00    +0.076 A 
ATOM      6  C   UNL     1      31.300 -23.652 -14.673  0.00  0.00    +0.202 A 
ATOM      7  C   UNL     1      31.973 -22.394 -16.582  0.00  0.00    +0.157 A 
ATOM      8  C   UNL     1      32.606 -23.911 -14.313  0.00  0.00    +0.279 A 
ATOM      9  C   UNL     1      29.532 -22.874 -15.804  0.00  0.00    +0.047 C 
ATOM     10  C   UNL     1      29.117 -23.596 -14.709  0.00  0.00    +0.180 C 
ATOM     11  H   UNL     1      30.732 -21.504 -17.894  0.00  0.00    +0.154 HD
ENDROOT
BRANCH   2  13
ATOM     12 CL   UNL     1      35.154 -19.011 -21.757  0.00  0.00    -0.082 Cl
ATOM     13  C   UNL     1      32.519 -21.005 -18.689  0.00  0.00    +0.049 C 
ATOM     14  C   UNL     1      31.955 -20.181 -19.662  0.00  0.00    +0.016 C 
ATOM     15  C   UNL     1      33.898 -21.212 -18.663  0.00  0.00    +0.016 C 
ATOM     16  C   UNL     1      32.770 -19.564 -20.611  0.00  0.00    +0.013 C 
ATOM     17  C   UNL     1      34.713 -20.595 -19.612  0.00  0.00    +0.013 C 
ATOM     18  C   UNL     1      34.149 -19.771 -20.585  0.00  0.00    +0.058 C 
ENDBRANCH   2  13
BRANCH   8  19
ATOM     19  O   UNL     1      32.959 -24.646 -13.212  0.00  0.00    -0.452 OA
BRANCH  19  20
ATOM     20  C   UNL     1      33.321 -23.918 -12.045  0.00  0.00    +0.234 C 
BRANCH  20  22
ATOM     21  N   UNL     1      37.592 -23.888 -11.682  0.00  0.00    -0.239 NA
ATOM     22  C   UNL     1      34.817 -23.908 -11.918  0.00  0.00    +0.024 C 
ATOM     23  C   UNL     1      35.572 -24.845 -12.603  0.00  0.00    +0.023 C 
ATOM     24  C   UNL     1      35.433 -22.960 -11.115  0.00  0.00    +0.020 C 
ATOM     25  C   UNL     1      36.949 -24.792 -12.453  0.00  0.00    +0.134 C 
ATOM     26  C   UNL     1      36.815 -22.993 -11.031  0.00  0.00    +0.099 C 
BRANCH  25  29
ATOM     27  O   UNL     1      37.306 -26.592 -13.913  0.00  0.00    -0.268 OA
ATOM     28  N   UNL     1      39.178 -25.649 -12.923  0.00  0.00    -0.298 N 
ATOM     29  C   UNL     1      37.798 -25.746 -13.145  0.00  0.00    +0.264 C 
ATOM     30  C   UNL     1      40.152 -26.508 -13.556  0.00  0.00    +0.111 C 
ATOM     31  H   UNL     1      39.501 -24.956 -12.303  0.00  0.00    +0.150 HD
ENDBRANCH  25  29
ENDBRANCH  20  22
ENDBRANCH  19  20
ENDBRANCH   8  19
TORSDOF 5
ENDMDL
MODEL 8
REMARK VINA RESULT:     -10.6      7.842     13.037
REMARK  Name = 9808844
REMARK  5 active torsions:
REMARK  status: ('A' for Active; 'I' for Inactive)
REMARK    1  A    between atoms: N_2  and  C_13
REMARK    2  A    between atoms: C_8  and  O_19
REMARK    3  A    between atoms: O_19  and  C_20
REMARK    4  A    between atoms: C_20  and  C_22
REMARK    5  A    between atoms: C_25  and  C_29
REMARK                            x       y       z     vdW  Elec       q    Type
REMARK                         _______ _______ _______ _____ _____    ______ ____
ROOT
ATOM      1  O   UNL     1      32.356 -13.099 -24.851  0.00  0.00    -0.446 OA
ATOM      2  N   UNL     1      33.770 -17.033 -22.713  0.00  0.00    -0.296 N 
ATOM      3  N   UNL     1      33.719 -14.959 -21.526  0.00  0.00    -0.130 NA
ATOM      4  N   UNL     1      33.475 -13.593 -21.446  0.00  0.00    -0.106 NA
ATOM      5  C   UNL     1      33.042 -14.969 -23.786  0.00  0.00    +0.076 A 
ATOM      6  C   UNL     1      32.810 -13.606 -23.671  0.00  0.00    +0.202 A 
ATOM      7  C   UNL     1      33.512 -15.652 -22.669  0.00  0.00    +0.157 A 
ATOM      8  C   UNL     1      33.020 -12.898 -22.506  0.00  0.00    +0.279 A 
ATOM      9  C   UNL     1      32.707 -15.305 -25.124  0.00  0.00    +0.047 C 
ATOM     10  C   UNL     1      32.297 -14.137 -25.726  0.00  0.00    +0.180 C 
ATOM     11  H   UNL     1      33.586 -17.440 -23.590  0.00  0.00    +0.154 HD
ENDROOT
BRANCH   2  13
ATOM     12 CL   UNL     1      35.734 -20.889 -18.673  0.00  0.00    -0.082 Cl
ATOM     13  C   UNL     1      34.238 -17.952 -21.750  0.00  0.00    +0.049 C 
ATOM     14  C   UNL     1      33.364 -18.887 -21.197  0.00  0.00    +0.016 C 
ATOM     15  C   UNL     1      35.575 -17.925 -21.353  0.00  0.00    +0.016 C 
ATOM     16  C   UNL     1      33.827 -19.795 -20.245  0.00  0.00    +0.013 C 
ATOM     17  C   UNL     1      36.037 -18.833 -20.402  0.00  0.00    +0.013 C 
ATOM     18  C   UNL     1      35.164 -19.768 -19.848  0.00  0.00    +0.058 C 
ENDBRANCH   2  13
BRANCH   8  19
ATOM     19  O   UNL     1      32.794 -11.552 -22.383  0.00  0.00    -0.452 OA
BRANCH  19  20
ATOM     20  C   UNL     1      33.173 -10.736 -23.485  0.00  0.00    +0.234 C 
BRANCH  20  22
ATOM     21  N   UNL     1      33.335  -6.648 -22.207  0.00  0.00    -0.239 NA
ATOM     22  C   UNL     1      33.229  -9.304 -23.037  0.00  0.00    +0.024 C 
ATOM     23  C   UNL     1      32.220  -8.792 -22.239  0.00  0.00    +0.023 C 
ATOM     24  C   UNL     1      34.291  -8.503 -23.427  0.00  0.00    +0.020 C 
ATOM     25  C   UNL     1      32.319  -7.465 -21.852  0.00  0.00    +0.134 C 
ATOM     26  C   UNL     1      34.297  -7.189 -22.987  0.00  0.00    +0.099 C 
BRANCH  25  29
ATOM     27  O   UNL     1      30.164  -6.620 -21.475  0.00  0.00    -0.268 OA
ATOM     28  N   UNL     1      31.631  -6.613 -19.679  0.00  0.00    -0.298 N 
ATOM     29  C   UNL     1      31.294  -6.868 -21.014  0.00  0.00    +0.264 C 
ATOM     30  C   UNL     1      30.715  -6.044 -18.717  0.00  0.00    +0.111 C 
ATOM     31  H   UNL     1      32.542  -6.833 -19.380  0.00  0.00    +0.150 HD
ENDBRANCH  25  29
ENDBRANCH  20  22
ENDBRANCH  19  20
ENDBRANCH   8  19
TORSDOF 5
ENDMDL
MODEL 9
REMARK VINA RESULT:     -10.5      4.559     10.121
REMARK  Name = 9808844
REMARK  5 active torsions:
REMARK  status: ('A' for Active; 'I' for Inactive)
REMARK    1  A    between atoms: N_2  and  C_13
REMARK    2  A    between atoms: C_8  and  O_19
REMARK    3  A    between atoms: O_19  and  C_20
REMARK    4  A    between atoms: C_20  and  C_22
REMARK    5  A    between atoms: C_25  and  C_29
REMARK                            x       y       z     vdW  Elec       q    Type
REMARK                         _______ _______ _______ _____ _____    ______ ____
ROOT
ATOM      1  O   UNL     1      32.740 -20.059 -20.137  0.00  0.00    -0.446 OA
ATOM      2  N   UNL     1      34.018 -22.455 -16.307  0.00  0.00    -0.296 N 
ATOM      3  N   UNL     1      35.657 -21.340 -17.642  0.00  0.00    -0.130 NA
ATOM      4  N   UNL     1      36.035 -20.561 -18.729  0.00  0.00    -0.106 NA
ATOM      5  C   UNL     1      33.395 -21.201 -18.302  0.00  0.00    +0.076 A 
ATOM      6  C   UNL     1      33.809 -20.425 -19.377  0.00  0.00    +0.202 A 
ATOM      7  C   UNL     1      34.363 -21.665 -17.417  0.00  0.00    +0.157 A 
ATOM      8  C   UNL     1      35.127 -20.093 -19.608  0.00  0.00    +0.279 A 
ATOM      9  C   UNL     1      31.985 -21.309 -18.424  0.00  0.00    +0.047 C 
ATOM     10  C   UNL     1      31.639 -20.599 -19.551  0.00  0.00    +0.180 C 
ATOM     11  H   UNL     1      33.052 -22.633 -16.235  0.00  0.00    +0.154 HD
ENDROOT
BRANCH   2  13
ATOM     12 CL   UNL     1      37.212 -24.924 -11.976  0.00  0.00    -0.082 Cl
ATOM     13  C   UNL     1      34.779 -23.043 -15.275  0.00  0.00    +0.049 C 
ATOM     14  C   UNL     1      34.246 -24.092 -14.527  0.00  0.00    +0.016 C 
ATOM     15  C   UNL     1      36.065 -22.576 -15.004  0.00  0.00    +0.016 C 
ATOM     16  C   UNL     1      34.998 -24.674 -13.507  0.00  0.00    +0.013 C 
ATOM     17  C   UNL     1      36.817 -23.157 -13.984  0.00  0.00    +0.013 C 
ATOM     18  C   UNL     1      36.284 -24.206 -13.236  0.00  0.00    +0.058 C 
ENDBRANCH   2  13
BRANCH   8  19
ATOM     19  O   UNL     1      35.544 -19.329 -20.666  0.00  0.00    -0.452 OA
BRANCH  19  20
ATOM     20  C   UNL     1      35.092 -17.980 -20.699  0.00  0.00    +0.234 C 
BRANCH  20  22
ATOM     21  N   UNL     1      33.097 -17.269 -24.426  0.00  0.00    -0.239 NA
ATOM     22  C   UNL     1      34.393 -17.730 -22.004  0.00  0.00    +0.024 C 
ATOM     23  C   UNL     1      34.186 -16.431 -22.437  0.00  0.00    +0.023 C 
ATOM     24  C   UNL     1      33.959 -18.802 -22.768  0.00  0.00    +0.020 C 
ATOM     25  C   UNL     1      33.538 -16.254 -23.648  0.00  0.00    +0.134 C 
ATOM     26  C   UNL     1      33.320 -18.520 -23.964  0.00  0.00    +0.099 C 
BRANCH  25  29
ATOM     27  O   UNL     1      33.053 -14.734 -25.367  0.00  0.00    -0.268 OA
ATOM     28  N   UNL     1      33.309 -13.868 -23.232  0.00  0.00    -0.298 N 
ATOM     29  C   UNL     1      33.290 -14.917 -24.159  0.00  0.00    +0.264 C 
ATOM     30  C   UNL     1      33.058 -12.488 -23.581  0.00  0.00    +0.111 C 
ATOM     31  H   UNL     1      33.502 -14.082 -22.291  0.00  0.00    +0.150 HD
ENDBRANCH  25  29
ENDBRANCH  20  22
ENDBRANCH  19  20
ENDBRANCH   8  19
TORSDOF 5
ENDMDL
