MODEL 1
REMARK VINA RESULT:     -12.7      0.000      0.000
REMARK  Name = 10430360
REMARK  6 active torsions:
REMARK  status: ('A' for Active; 'I' for Inactive)
REMARK    1  A    between atoms: C_4  and  C_18
REMARK    2  A    between atoms: C_7  and  C_14
REMARK    3  A    between atoms: C_17  and  O_23
REMARK    4  A    between atoms: O_23  and  C_24
REMARK    5  A    between atoms: C_24  and  C_25
REMARK    6  A    between atoms: C_25  and  N_26
REMARK                            x       y       z     vdW  Elec       q    Type
REMARK                         _______ _______ _______ _____ _____    ______ ____
ROOT
ATOM      1  N   UNL     1      32.965 -24.540 -12.946  0.00  0.00    -0.276 N 
ATOM      2  N   UNL     1      33.914 -24.032 -13.751  0.00  0.00    -0.173 NA
ATOM      3  C   UNL     1      31.819 -23.477 -14.485  0.00  0.00    +0.036 A 
ATOM      4  C   UNL     1      33.215 -23.384 -14.689  0.00  0.00    +0.102 A 
ATOM      5  C   UNL     1      31.685 -24.243 -13.332  0.00  0.00    +0.075 A 
ATOM      6  C   UNL     1      30.666 -23.007 -15.136  0.00  0.00    +0.006 C 
ATOM      7  C   UNL     1      29.415 -23.329 -14.596  0.00  0.00    +0.033 C 
ATOM      8  C   UNL     1      30.448 -24.576 -12.778  0.00  0.00    +0.019 C 
ATOM      9  C   UNL     1      29.309 -24.101 -13.437  0.00  0.00    +0.004 C 
ATOM     10  H   UNL     1      33.172 -25.079 -12.150  0.00  0.00    +0.189 HD
ENDROOT
BRANCH   7  14
ATOM     11  N   UNL     1      27.813 -23.308 -16.465  0.00  0.00    -0.218 N 
ATOM     12  N   UNL     1      27.370 -21.964 -14.801  0.00  0.00    -0.206 NA
ATOM     13  N   UNL     1      26.673 -22.711 -16.847  0.00  0.00    -0.157 NA
ATOM     14  C   UNL     1      28.217 -22.857 -15.249  0.00  0.00    +0.149 C 
ATOM     15  C   UNL     1      26.447 -21.907 -15.807  0.00  0.00    +0.218 C 
ATOM     16  H   UNL     1      28.292 -23.985 -16.996  0.00  0.00    +0.176 HD
ENDBRANCH   7  14
BRANCH   4  18
ATOM     17  C   UNL     1      33.898 -21.776 -17.976  0.00  0.00    +0.138 C 
ATOM     18  C   UNL     1      33.893 -22.693 -15.750  0.00  0.00    +0.022 C 
ATOM     19  C   UNL     1      33.235 -22.446 -16.954  0.00  0.00    +0.038 C 
ATOM     20  C   UNL     1      35.212 -21.352 -17.809  0.00  0.00    +0.037 C 
ATOM     21  C   UNL     1      35.211 -22.270 -15.575  0.00  0.00    +0.002 C 
ATOM     22  C   UNL     1      35.870 -21.599 -16.605  0.00  0.00    +0.003 C 
BRANCH  17  23
ATOM     23  O   UNL     1      33.252 -21.532 -19.159  0.00  0.00    -0.478 OA
BRANCH  23  24
ATOM     24  C   UNL     1      33.106 -20.170 -19.541  0.00  0.00    +0.183 C 
BRANCH  24  25
ATOM     25  C   UNL     1      34.197 -19.824 -20.541  0.00  0.00    -0.029 C 
BRANCH  25  26
ATOM     26  N   UNL     1      33.783 -18.706 -21.390  0.00  0.00    +0.389 N 
ATOM     27  C   UNL     1      34.604 -17.519 -21.114  0.00  0.00    -0.077 C 
ATOM     28  C   UNL     1      33.854 -19.084 -22.808  0.00  0.00    -0.077 C 
ATOM     29  C   UNL     1      34.152 -16.327 -21.959  0.00  0.00    -0.023 C 
ATOM     30  C   UNL     1      33.378 -17.943 -23.708  0.00  0.00    -0.023 C 
ATOM     31  C   UNL     1      34.164 -16.664 -23.446  0.00  0.00    -0.004 C 
ATOM     32  H   UNL     1      32.813 -18.475 -21.175  0.00  0.00    -0.080 HD
ENDBRANCH  25  26
ENDBRANCH  24  25
ENDBRANCH  23  24
ENDBRANCH  17  23
ENDBRANCH   4  18
TORSDOF 6
ENDMDL
MODEL 2
REMARK VINA RESULT:     -11.9      1.504      2.660
REMARK  Name = 10430360
REMARK  6 active torsions:
REMARK  status: ('A' for Active; 'I' for Inactive)
REMARK    1  A    between atoms: C_4  and  C_18
REMARK    2  A    between atoms: C_7  and  C_14
REMARK    3  A    between atoms: C_17  and  O_23
REMARK    4  A    between atoms: O_23  and  C_24
REMARK    5  A    between atoms: C_24  and  C_25
REMARK    6  A    between atoms: C_25  and  N_26
REMARK                            x       y       z     vdW  Elec       q    Type
REMARK                         _______ _______ _______ _____ _____    ______ ____
ROOT
ATOM      1  N   UNL     1      34.138 -23.350 -15.268  0.00  0.00    -0.276 N 
ATOM      2  N   UNL     1      34.546 -22.656 -16.344  0.00  0.00    -0.173 NA
ATOM      3  C   UNL     1      32.269 -22.595 -16.131  0.00  0.00    +0.036 A 
ATOM      4  C   UNL     1      33.406 -22.196 -16.871  0.00  0.00    +0.102 A 
ATOM      5  C   UNL     1      32.781 -23.353 -15.084  0.00  0.00    +0.075 A 
ATOM      6  C   UNL     1      30.879 -22.406 -16.227  0.00  0.00    +0.006 C 
ATOM      7  C   UNL     1      30.056 -22.991 -15.257  0.00  0.00    +0.033 C 
ATOM      8  C   UNL     1      31.979 -23.944 -14.107  0.00  0.00    +0.019 C 
ATOM      9  C   UNL     1      30.598 -23.747 -14.216  0.00  0.00    +0.004 C 
ATOM     10  H   UNL     1      34.761 -23.815 -14.665  0.00  0.00    +0.189 HD
ENDROOT
BRANCH   7  14
ATOM     11  N   UNL     1      27.747 -23.551 -14.615  0.00  0.00    -0.218 N 
ATOM     12  N   UNL     1      27.978 -21.947 -16.080  0.00  0.00    -0.206 NA
ATOM     13  N   UNL     1      26.482 -23.185 -14.873  0.00  0.00    -0.157 NA
ATOM     14  C   UNL     1      28.626 -22.809 -15.337  0.00  0.00    +0.149 C 
ATOM     15  C   UNL     1      26.676 -22.212 -15.765  0.00  0.00    +0.218 C 
ATOM     16  H   UNL     1      28.003 -24.262 -13.984  0.00  0.00    +0.176 HD
ENDBRANCH   7  14
BRANCH   4  18
ATOM     17  C   UNL     1      34.660 -20.151 -19.716  0.00  0.00    +0.138 C 
ATOM     18  C   UNL     1      33.430 -21.390 -18.059  0.00  0.00    +0.022 C 
ATOM     19  C   UNL     1      34.646 -20.931 -18.566  0.00  0.00    +0.038 C 
ATOM     20  C   UNL     1      33.475 -19.823 -20.366  0.00  0.00    +0.037 C 
ATOM     21  C   UNL     1      32.237 -21.065 -18.705  0.00  0.00    +0.002 C 
ATOM     22  C   UNL     1      32.260 -20.282 -19.859  0.00  0.00    +0.003 C 
BRANCH  17  23
ATOM     23  O   UNL     1      35.854 -19.701 -20.216  0.00  0.00    -0.478 OA
BRANCH  23  24
ATOM     24  C   UNL     1      35.891 -18.355 -20.675  0.00  0.00    +0.183 C 
BRANCH  24  25
ATOM     25  C   UNL     1      35.422 -18.320 -22.121  0.00  0.00    -0.029 C 
BRANCH  25  26
ATOM     26  N   UNL     1      34.982 -16.974 -22.488  0.00  0.00    +0.389 N 
ATOM     27  C   UNL     1      34.139 -17.018 -23.691  0.00  0.00    -0.077 C 
ATOM     28  C   UNL     1      34.275 -16.340 -21.365  0.00  0.00    -0.077 C 
ATOM     29  C   UNL     1      33.710 -15.612 -24.115  0.00  0.00    -0.023 C 
ATOM     30  C   UNL     1      33.852 -14.913 -21.715  0.00  0.00    -0.023 C 
ATOM     31  C   UNL     1      33.002 -14.880 -22.981  0.00  0.00    -0.004 C 
ATOM     32  H   UNL     1      35.804 -16.408 -22.700  0.00  0.00    -0.080 HD
ENDBRANCH  25  26
ENDBRANCH  24  25
ENDBRANCH  23  24
ENDBRANCH  17  23
ENDBRANCH   4  18
TORSDOF 6
ENDMDL
MODEL 3
REMARK VINA RESULT:     -11.8      1.835      4.428
REMARK  Name = 10430360
REMARK  6 active torsions:
REMARK  status: ('A' for Active; 'I' for Inactive)
REMARK    1  A    between atoms: C_4  and  C_18
REMARK    2  A    between atoms: C_7  and  C_14
REMARK    3  A    between atoms: C_17  and  O_23
REMARK    4  A    between atoms: O_23  and  C_24
REMARK    5  A    between atoms: C_24  and  C_25
REMARK    6  A    between atoms: C_25  and  N_26
REMARK                            x       y       z     vdW  Elec       q    Type
REMARK                         _______ _______ _______ _____ _____    ______ ____
ROOT
ATOM      1  N   UNL     1      30.097 -22.599 -16.263  0.00  0.00    -0.276 N 
ATOM      2  N   UNL     1      30.815 -22.045 -17.255  0.00  0.00    -0.173 NA
ATOM      3  C   UNL     1      32.169 -22.799 -15.572  0.00  0.00    +0.036 A 
ATOM      4  C   UNL     1      32.079 -22.167 -16.833  0.00  0.00    +0.102 A 
ATOM      5  C   UNL     1      30.851 -23.071 -15.222  0.00  0.00    +0.075 A 
ATOM      6  C   UNL     1      33.203 -23.168 -14.694  0.00  0.00    +0.006 C 
ATOM      7  C   UNL     1      32.866 -23.801 -13.492  0.00  0.00    +0.033 C 
ATOM      8  C   UNL     1      30.493 -23.700 -14.028  0.00  0.00    +0.019 C 
ATOM      9  C   UNL     1      31.534 -24.061 -13.166  0.00  0.00    +0.004 C 
ATOM     10  H   UNL     1      29.115 -22.659 -16.284  0.00  0.00    +0.189 HD
ENDROOT
BRANCH   7  14
ATOM     11  N   UNL     1      34.960 -24.971 -12.940  0.00  0.00    -0.218 N 
ATOM     12  N   UNL     1      34.016 -23.864 -11.310  0.00  0.00    -0.206 NA
ATOM     13  N   UNL     1      35.788 -25.181 -11.905  0.00  0.00    -0.157 NA
ATOM     14  C   UNL     1      33.913 -24.187 -12.575  0.00  0.00    +0.149 C 
ATOM     15  C   UNL     1      35.173 -24.492 -10.944  0.00  0.00    +0.218 C 
ATOM     16  H   UNL     1      35.096 -25.335 -13.845  0.00  0.00    +0.176 HD
ENDBRANCH   7  14
BRANCH   4  18
ATOM     17  C   UNL     1      33.951 -20.482 -19.573  0.00  0.00    +0.138 C 
ATOM     18  C   UNL     1      33.162 -21.682 -17.641  0.00  0.00    +0.022 C 
ATOM     19  C   UNL     1      32.896 -20.948 -18.797  0.00  0.00    +0.038 C 
ATOM     20  C   UNL     1      35.268 -20.741 -19.209  0.00  0.00    +0.037 C 
ATOM     21  C   UNL     1      34.480 -21.946 -17.270  0.00  0.00    +0.002 C 
ATOM     22  C   UNL     1      35.534 -21.475 -18.054  0.00  0.00    +0.003 C 
BRANCH  17  23
ATOM     23  O   UNL     1      33.691 -19.759 -20.708  0.00  0.00    -0.478 OA
BRANCH  23  24
ATOM     24  C   UNL     1      34.191 -18.428 -20.750  0.00  0.00    +0.183 C 
BRANCH  24  25
ATOM     25  C   UNL     1      34.956 -18.235 -22.049  0.00  0.00    -0.029 C 
BRANCH  25  26
ATOM     26  N   UNL     1      34.628 -16.944 -22.654  0.00  0.00    +0.389 N 
ATOM     27  C   UNL     1      33.619 -17.112 -23.709  0.00  0.00    -0.077 C 
ATOM     28  C   UNL     1      34.172 -15.997 -21.627  0.00  0.00    -0.077 C 
ATOM     29  C   UNL     1      33.300 -15.778 -24.384  0.00  0.00    -0.023 C 
ATOM     30  C   UNL     1      33.871 -14.626 -22.236  0.00  0.00    -0.023 C 
ATOM     31  C   UNL     1      32.856 -14.732 -23.368  0.00  0.00    -0.004 C 
ATOM     32  H   UNL     1      35.471 -16.560 -23.082  0.00  0.00    -0.080 HD
ENDBRANCH  25  26
ENDBRANCH  24  25
ENDBRANCH  23  24
ENDBRANCH  17  23
ENDBRANCH   4  18
TORSDOF 6
ENDMDL
MODEL 4
REMARK VINA RESULT:     -11.7      2.451      3.858
REMARK  Name = 10430360
REMARK  6 active torsions:
REMARK  status: ('A' for Active; 'I' for Inactive)
REMARK    1  A    between atoms: C_4  and  C_18
REMARK    2  A    between atoms: C_7  and  C_14
REMARK    3  A    between atoms: C_17  and  O_23
REMARK    4  A    between atoms: O_23  and  C_24
REMARK    5  A    between atoms: C_24  and  C_25
REMARK    6  A    between atoms: C_25  and  N_26
REMARK                            x       y       z     vdW  Elec       q    Type
REMARK                         _______ _______ _______ _____ _____    ______ ____
ROOT
ATOM      1  N   UNL     1      36.855 -22.646 -15.265  0.00  0.00    -0.276 N 
ATOM      2  N   UNL     1      36.572 -22.060 -16.440  0.00  0.00    -0.173 NA
ATOM      3  C   UNL     1      34.663 -22.665 -15.332  0.00  0.00    +0.036 A 
ATOM      4  C   UNL     1      35.234 -22.071 -16.481  0.00  0.00    +0.102 A 
ATOM      5  C   UNL     1      35.753 -23.033 -14.551  0.00  0.00    +0.075 A 
ATOM      6  C   UNL     1      33.364 -22.930 -14.867  0.00  0.00    +0.006 C 
ATOM      7  C   UNL     1      33.212 -23.560 -13.626  0.00  0.00    +0.033 C 
ATOM      8  C   UNL     1      35.624 -23.662 -13.311  0.00  0.00    +0.019 C 
ATOM      9  C   UNL     1      34.324 -23.920 -12.863  0.00  0.00    +0.004 C 
ATOM     10  H   UNL     1      37.776 -22.786 -14.946  0.00  0.00    +0.189 HD
ENDROOT
BRANCH   7  14
ATOM     11  N   UNL     1      31.158 -22.946 -12.417  0.00  0.00    -0.218 N 
ATOM     12  N   UNL     1      31.205 -24.953 -13.280  0.00  0.00    -0.206 NA
ATOM     13  N   UNL     1      29.964 -23.456 -12.077  0.00  0.00    -0.157 NA
ATOM     14  C   UNL     1      31.886 -23.843 -13.131  0.00  0.00    +0.149 C 
ATOM     15  C   UNL     1      30.042 -24.671 -12.622  0.00  0.00    +0.218 C 
ATOM     16  H   UNL     1      31.464 -22.041 -12.181  0.00  0.00    +0.176 HD
ENDBRANCH   7  14
BRANCH   4  18
ATOM     17  C   UNL     1      34.550 -20.217 -19.635  0.00  0.00    +0.138 C 
ATOM     18  C   UNL     1      34.539 -21.517 -17.609  0.00  0.00    +0.022 C 
ATOM     19  C   UNL     1      35.231 -20.750 -18.546  0.00  0.00    +0.038 C 
ATOM     20  C   UNL     1      33.188 -20.440 -19.798  0.00  0.00    +0.037 C 
ATOM     21  C   UNL     1      33.172 -21.745 -17.765  0.00  0.00    +0.002 C 
ATOM     22  C   UNL     1      32.496 -21.207 -18.860  0.00  0.00    +0.003 C 
BRANCH  17  23
ATOM     23  O   UNL     1      35.229 -19.465 -20.557  0.00  0.00    -0.478 OA
BRANCH  23  24
ATOM     24  C   UNL     1      34.608 -18.259 -20.984  0.00  0.00    +0.183 C 
BRANCH  24  25
ATOM     25  C   UNL     1      34.831 -18.096 -22.478  0.00  0.00    -0.029 C 
BRANCH  25  26
ATOM     26  N   UNL     1      34.512 -16.733 -22.902  0.00  0.00    +0.389 N 
ATOM     27  C   UNL     1      33.477 -16.748 -23.946  0.00  0.00    -0.077 C 
ATOM     28  C   UNL     1      34.095 -15.921 -21.751  0.00  0.00    -0.077 C 
ATOM     29  C   UNL     1      33.166 -15.332 -24.434  0.00  0.00    -0.023 C 
ATOM     30  C   UNL     1      33.805 -14.478 -22.169  0.00  0.00    -0.023 C 
ATOM     31  C   UNL     1      32.762 -14.422 -23.280  0.00  0.00    -0.004 C 
ATOM     32  H   UNL     1      35.351 -16.308 -23.298  0.00  0.00    -0.080 HD
ENDBRANCH  25  26
ENDBRANCH  24  25
ENDBRANCH  23  24
ENDBRANCH  17  23
ENDBRANCH   4  18
TORSDOF 6
ENDMDL
MODEL 5
REMARK VINA RESULT:     -11.5      3.409      6.004
REMARK  Name = 10430360
REMARK  6 active torsions:
REMARK  status: ('A' for Active; 'I' for Inactive)
REMARK    1  A    between atoms: C_4  and  C_18
REMARK    2  A    between atoms: C_7  and  C_14
REMARK    3  A    between atoms: C_17  and  O_23
REMARK    4  A    between atoms: O_23  and  C_24
REMARK    5  A    between atoms: C_24  and  C_25
REMARK    6  A    between atoms: C_25  and  N_26
REMARK                            x       y       z     vdW  Elec       q    Type
REMARK                         _______ _______ _______ _____ _____    ______ ____
ROOT
ATOM      1  N   UNL     1      31.846 -24.738 -13.144  0.00  0.00    -0.276 N 
ATOM      2  N   UNL     1      32.858 -24.286 -13.905  0.00  0.00    -0.173 NA
ATOM      3  C   UNL     1      30.837 -23.551 -14.689  0.00  0.00    +0.036 A 
ATOM      4  C   UNL     1      32.243 -23.562 -14.847  0.00  0.00    +0.102 A 
ATOM      5  C   UNL     1      30.607 -24.333 -13.562  0.00  0.00    +0.075 A 
ATOM      6  C   UNL     1      29.746 -22.977 -15.363  0.00  0.00    +0.006 C 
ATOM      7  C   UNL     1      28.456 -23.214 -14.871  0.00  0.00    +0.033 C 
ATOM      8  C   UNL     1      29.330 -24.582 -13.056  0.00  0.00    +0.019 C 
ATOM      9  C   UNL     1      28.254 -24.003 -13.737  0.00  0.00    +0.004 C 
ATOM     10  H   UNL     1      31.985 -25.310 -12.357  0.00  0.00    +0.189 HD
ENDROOT
BRANCH   7  14
ATOM     11  N   UNL     1      27.078 -22.819 -16.872  0.00  0.00    -0.218 N 
ATOM     12  N   UNL     1      26.390 -21.875 -15.026  0.00  0.00    -0.206 NA
ATOM     13  N   UNL     1      25.964 -22.175 -17.252  0.00  0.00    -0.157 NA
ATOM     14  C   UNL     1      27.321 -22.635 -15.549  0.00  0.00    +0.149 C 
ATOM     15  C   UNL     1      25.586 -21.620 -16.100  0.00  0.00    +0.218 C 
ATOM     16  H   UNL     1      27.644 -23.356 -17.473  0.00  0.00    +0.176 HD
ENDBRANCH   7  14
BRANCH   4  18
ATOM     17  C   UNL     1      35.059 -21.885 -16.610  0.00  0.00    +0.138 C 
ATOM     18  C   UNL     1      33.007 -22.901 -15.867  0.00  0.00    +0.022 C 
ATOM     19  C   UNL     1      34.326 -22.524 -15.617  0.00  0.00    +0.038 C 
ATOM     20  C   UNL     1      34.490 -21.617 -17.850  0.00  0.00    +0.037 C 
ATOM     21  C   UNL     1      32.429 -22.636 -17.109  0.00  0.00    +0.002 C 
ATOM     22  C   UNL     1      33.170 -21.994 -18.101  0.00  0.00    +0.003 C 
BRANCH  17  23
ATOM     23  O   UNL     1      36.356 -21.516 -16.365  0.00  0.00    -0.478 OA
BRANCH  23  24
ATOM     24  C   UNL     1      36.861 -21.776 -15.062  0.00  0.00    +0.183 C 
BRANCH  24  25
ATOM     25  C   UNL     1      37.347 -23.215 -15.004  0.00  0.00    -0.029 C 
BRANCH  25  26
ATOM     26  N   UNL     1      37.140 -23.776 -13.669  0.00  0.00    +0.389 N 
ATOM     27  C   UNL     1      36.331 -22.865 -12.848  0.00  0.00    -0.077 C 
ATOM     28  C   UNL     1      36.518 -25.104 -13.760  0.00  0.00    -0.077 C 
ATOM     29  C   UNL     1      36.146 -23.415 -11.433  0.00  0.00    -0.023 C 
ATOM     30  C   UNL     1      36.340 -25.727 -12.375  0.00  0.00    -0.023 C 
ATOM     31  C   UNL     1      35.538 -24.813 -11.455  0.00  0.00    -0.004 C 
ATOM     32  H   UNL     1      38.048 -23.885 -13.216  0.00  0.00    -0.080 HD
ENDBRANCH  25  26
ENDBRANCH  24  25
ENDBRANCH  23  24
ENDBRANCH  17  23
ENDBRANCH   4  18
TORSDOF 6
ENDMDL
MODEL 6
REMARK VINA RESULT:     -11.0      5.947     12.358
REMARK  Name = 10430360
REMARK  6 active torsions:
REMARK  status: ('A' for Active; 'I' for Inactive)
REMARK    1  A    between atoms: C_4  and  C_18
REMARK    2  A    between atoms: C_7  and  C_14
REMARK    3  A    between atoms: C_17  and  O_23
REMARK    4  A    between atoms: O_23  and  C_24
REMARK    5  A    between atoms: C_24  and  C_25
REMARK    6  A    between atoms: C_25  and  N_26
REMARK                            x       y       z     vdW  Elec       q    Type
REMARK                         _______ _______ _______ _____ _____    ______ ____
ROOT
ATOM      1  N   UNL     1      30.750 -12.182 -19.885  0.00  0.00    -0.276 N 
ATOM      2  N   UNL     1      31.255 -13.329 -20.370  0.00  0.00    -0.173 NA
ATOM      3  C   UNL     1      31.835 -11.545 -21.681  0.00  0.00    +0.036 A 
ATOM      4  C   UNL     1      31.917 -12.940 -21.466  0.00  0.00    +0.102 A 
ATOM      5  C   UNL     1      31.061 -11.074 -20.626  0.00  0.00    +0.075 A 
ATOM      6  C   UNL     1      32.321 -10.637 -22.637  0.00  0.00    +0.006 C 
ATOM      7  C   UNL     1      32.006  -9.280 -22.491  0.00  0.00    +0.033 C 
ATOM      8  C   UNL     1      30.736  -9.726 -20.463  0.00  0.00    +0.019 C 
ATOM      9  C   UNL     1      31.227  -8.835 -21.422  0.00  0.00    +0.004 C 
ATOM     10  H   UNL     1      30.203 -12.143 -19.068  0.00  0.00    +0.189 HD
ENDROOT
BRANCH   7  14
ATOM     11  N   UNL     1      33.662  -8.497 -24.136  0.00  0.00    -0.218 N 
ATOM     12  N   UNL     1      31.922  -7.210 -23.832  0.00  0.00    -0.206 NA
ATOM     13  N   UNL     1      33.884  -7.474 -24.976  0.00  0.00    -0.157 NA
ATOM     14  C   UNL     1      32.494  -8.330 -23.462  0.00  0.00    +0.149 C 
ATOM     15  C   UNL     1      32.804  -6.724 -24.754  0.00  0.00    +0.218 C 
ATOM     16  H   UNL     1      34.265  -9.267 -24.025  0.00  0.00    +0.176 HD
ENDBRANCH   7  14
BRANCH   4  18
ATOM     17  C   UNL     1      34.134 -15.757 -22.467  0.00  0.00    +0.138 C 
ATOM     18  C   UNL     1      32.609 -13.904 -22.274  0.00  0.00    +0.022 C 
ATOM     19  C   UNL     1      33.469 -14.827 -21.677  0.00  0.00    +0.038 C 
ATOM     20  C   UNL     1      33.953 -15.777 -23.845  0.00  0.00    +0.037 C 
ATOM     21  C   UNL     1      32.422 -13.918 -23.656  0.00  0.00    +0.002 C 
ATOM     22  C   UNL     1      33.094 -14.854 -24.442  0.00  0.00    +0.003 C 
BRANCH  17  23
ATOM     23  O   UNL     1      34.978 -16.665 -21.881  0.00  0.00    -0.478 OA
BRANCH  23  24
ATOM     24  C   UNL     1      34.493 -17.339 -20.727  0.00  0.00    +0.183 C 
BRANCH  24  25
ATOM     25  C   UNL     1      35.018 -18.765 -20.738  0.00  0.00    -0.029 C 
BRANCH  25  26
ATOM     26  N   UNL     1      34.378 -19.559 -19.689  0.00  0.00    +0.389 N 
ATOM     27  C   UNL     1      33.025 -19.959 -20.100  0.00  0.00    -0.077 C 
ATOM     28  C   UNL     1      35.201 -20.730 -19.355  0.00  0.00    -0.077 C 
ATOM     29  C   UNL     1      32.324 -20.749 -18.994  0.00  0.00    -0.023 C 
ATOM     30  C   UNL     1      34.570 -21.544 -18.225  0.00  0.00    -0.023 C 
ATOM     31  C   UNL     1      33.144 -21.962 -18.571  0.00  0.00    -0.004 C 
ATOM     32  H   UNL     1      34.295 -18.985 -18.849  0.00  0.00    -0.080 HD
ENDBRANCH  25  26
ENDBRANCH  24  25
ENDBRANCH  23  24
ENDBRANCH  17  23
ENDBRANCH   4  18
TORSDOF 6
ENDMDL
MODEL 7
REMARK VINA RESULT:     -10.8      2.911      6.024
REMARK  Name = 10430360
REMARK  6 active torsions:
REMARK  status: ('A' for Active; 'I' for Inactive)
REMARK    1  A    between atoms: C_4  and  C_18
REMARK    2  A    between atoms: C_7  and  C_14
REMARK    3  A    between atoms: C_17  and  O_23
REMARK    4  A    between atoms: O_23  and  C_24
REMARK    5  A    between atoms: C_24  and  C_25
REMARK    6  A    between atoms: C_25  and  N_26
REMARK                            x       y       z     vdW  Elec       q    Type
REMARK                         _______ _______ _______ _____ _____    ______ ____
ROOT
ATOM      1  N   UNL     1      33.004 -23.520 -11.038  0.00  0.00    -0.276 N 
ATOM      2  N   UNL     1      32.227 -23.163 -12.076  0.00  0.00    -0.173 NA
ATOM      3  C   UNL     1      34.320 -23.771 -12.774  0.00  0.00    +0.036 A 
ATOM      4  C   UNL     1      33.030 -23.316 -13.135  0.00  0.00    +0.102 A 
ATOM      5  C   UNL     1      34.272 -23.895 -11.390  0.00  0.00    +0.075 A 
ATOM      6  C   UNL     1      35.509 -24.087 -13.453  0.00  0.00    +0.006 C 
ATOM      7  C   UNL     1      36.611 -24.519 -12.705  0.00  0.00    +0.033 C 
ATOM      8  C   UNL     1      35.359 -24.324 -10.626  0.00  0.00    +0.019 C 
ATOM      9  C   UNL     1      36.535 -24.635 -11.316  0.00  0.00    +0.004 C 
ATOM     10  H   UNL     1      32.687 -23.511 -10.107  0.00  0.00    +0.189 HD
ENDROOT
BRANCH   7  14
ATOM     11  N   UNL     1      38.540 -25.987 -13.133  0.00  0.00    -0.218 N 
ATOM     12  N   UNL     1      38.458 -24.140 -14.296  0.00  0.00    -0.206 NA
ATOM     13  N   UNL     1      39.645 -26.052 -13.892  0.00  0.00    -0.157 NA
ATOM     14  C   UNL     1      37.844 -24.849 -13.382  0.00  0.00    +0.149 C 
ATOM     15  C   UNL     1      39.549 -24.911 -14.577  0.00  0.00    +0.218 C 
ATOM     16  H   UNL     1      38.271 -26.676 -12.483  0.00  0.00    +0.176 HD
ENDBRANCH   7  14
BRANCH   4  18
ATOM     17  C   UNL     1      32.964 -22.715 -16.807  0.00  0.00    +0.138 C 
ATOM     18  C   UNL     1      32.549 -23.028 -14.457  0.00  0.00    +0.022 C 
ATOM     19  C   UNL     1      33.438 -22.993 -15.531  0.00  0.00    +0.038 C 
ATOM     20  C   UNL     1      31.612 -22.470 -17.024  0.00  0.00    +0.037 C 
ATOM     21  C   UNL     1      31.192 -22.784 -14.666  0.00  0.00    +0.002 C 
ATOM     22  C   UNL     1      30.723 -22.505 -15.950  0.00  0.00    +0.003 C 
BRANCH  17  23
ATOM     23  O   UNL     1      33.836 -22.682 -17.863  0.00  0.00    -0.478 OA
BRANCH  23  24
ATOM     24  C   UNL     1      34.367 -21.411 -18.217  0.00  0.00    +0.183 C 
BRANCH  24  25
ATOM     25  C   UNL     1      33.473 -20.785 -19.275  0.00  0.00    -0.029 C 
BRANCH  25  26
ATOM     26  N   UNL     1      34.114 -19.608 -19.862  0.00  0.00    +0.389 N 
ATOM     27  C   UNL     1      35.575 -19.766 -19.866  0.00  0.00    -0.077 C 
ATOM     28  C   UNL     1      33.601 -19.365 -21.217  0.00  0.00    -0.077 C 
ATOM     29  C   UNL     1      36.263 -18.523 -20.433  0.00  0.00    -0.023 C 
ATOM     30  C   UNL     1      34.225 -18.109 -21.827  0.00  0.00    -0.023 C 
ATOM     31  C   UNL     1      35.747 -18.190 -21.828  0.00  0.00    -0.004 C 
ATOM     32  H   UNL     1      33.888 -18.793 -19.290  0.00  0.00    -0.080 HD
ENDBRANCH  25  26
ENDBRANCH  24  25
ENDBRANCH  23  24
ENDBRANCH  17  23
ENDBRANCH   4  18
TORSDOF 6
ENDMDL
MODEL 8
REMARK VINA RESULT:     -10.7      7.738     13.971
REMARK  Name = 10430360
REMARK  6 active torsions:
REMARK  status: ('A' for Active; 'I' for Inactive)
REMARK    1  A    between atoms: C_4  and  C_18
REMARK    2  A    between atoms: C_7  and  C_14
REMARK    3  A    between atoms: C_17  and  O_23
REMARK    4  A    between atoms: O_23  and  C_24
REMARK    5  A    between atoms: C_24  and  C_25
REMARK    6  A    between atoms: C_25  and  N_26
REMARK                            x       y       z     vdW  Elec       q    Type
REMARK                         _______ _______ _______ _____ _____    ______ ____
ROOT
ATOM      1  N   UNL     1      34.532  -8.531 -24.944  0.00  0.00    -0.276 N 
ATOM      2  N   UNL     1      34.268  -9.848 -24.901  0.00  0.00    -0.173 NA
ATOM      3  C   UNL     1      33.295  -8.748 -23.146  0.00  0.00    +0.036 A 
ATOM      4  C   UNL     1      33.513  -9.981 -23.804  0.00  0.00    +0.102 A 
ATOM      5  C   UNL     1      33.977  -7.814 -23.918  0.00  0.00    +0.075 A 
ATOM      6  C   UNL     1      32.606  -8.321 -21.998  0.00  0.00    +0.006 C 
ATOM      7  C   UNL     1      32.632  -6.960 -21.671  0.00  0.00    +0.033 C 
ATOM      8  C   UNL     1      34.015  -6.453 -23.609  0.00  0.00    +0.019 C 
ATOM      9  C   UNL     1      33.325  -6.043 -22.463  0.00  0.00    +0.004 C 
ATOM     10  H   UNL     1      35.077  -8.119 -25.651  0.00  0.00    +0.189 HD
ENDROOT
BRANCH   7  14
ATOM     11  N   UNL     1      32.232  -6.929 -19.242  0.00  0.00    -0.218 N 
ATOM     12  N   UNL     1      30.945  -5.638 -20.447  0.00  0.00    -0.206 NA
ATOM     13  N   UNL     1      31.436  -6.349 -18.330  0.00  0.00    -0.157 NA
ATOM     14  C   UNL     1      31.932  -6.499 -20.494  0.00  0.00    +0.149 C 
ATOM     15  C   UNL     1      30.676  -5.579 -19.109  0.00  0.00    +0.218 C 
ATOM     16  H   UNL     1      32.941  -7.578 -19.029  0.00  0.00    +0.176 HD
ENDBRANCH   7  14
BRANCH   4  18
ATOM     17  C   UNL     1      32.482 -13.553 -23.965  0.00  0.00    +0.138 C 
ATOM     18  C   UNL     1      33.021 -11.272 -23.415  0.00  0.00    +0.022 C 
ATOM     19  C   UNL     1      32.959 -12.306 -24.350  0.00  0.00    +0.038 C 
ATOM     20  C   UNL     1      32.064 -13.781 -22.659  0.00  0.00    +0.037 C 
ATOM     21  C   UNL     1      32.603 -11.493 -22.103  0.00  0.00    +0.002 C 
ATOM     22  C   UNL     1      32.125 -12.747 -21.724  0.00  0.00    +0.003 C 
BRANCH  17  23
ATOM     23  O   UNL     1      32.422 -14.570 -24.883  0.00  0.00    -0.478 OA
BRANCH  23  24
ATOM     24  C   UNL     1      32.743 -15.874 -24.416  0.00  0.00    +0.183 C 
BRANCH  24  25
ATOM     25  C   UNL     1      34.228 -15.928 -24.097  0.00  0.00    -0.029 C 
BRANCH  25  26
ATOM     26  N   UNL     1      34.512 -16.997 -23.140  0.00  0.00    +0.389 N 
ATOM     27  C   UNL     1      34.395 -16.499 -21.762  0.00  0.00    -0.077 C 
ATOM     28  C   UNL     1      33.620 -18.142 -23.369  0.00  0.00    -0.077 C 
ATOM     29  C   UNL     1      34.736 -17.593 -20.750  0.00  0.00    -0.023 C 
ATOM     30  C   UNL     1      33.937 -19.289 -22.408  0.00  0.00    -0.023 C 
ATOM     31  C   UNL     1      33.871 -18.831 -20.956  0.00  0.00    -0.004 C 
ATOM     32  H   UNL     1      35.472 -17.314 -23.279  0.00  0.00    -0.080 HD
ENDBRANCH  25  26
ENDBRANCH  24  25
ENDBRANCH  23  24
ENDBRANCH  17  23
ENDBRANCH   4  18
TORSDOF 6
ENDMDL
MODEL 9
REMARK VINA RESULT:     -10.6      7.255     13.423
REMARK  Name = 10430360
REMARK  6 active torsions:
REMARK  status: ('A' for Active; 'I' for Inactive)
REMARK    1  A    between atoms: C_4  and  C_18
REMARK    2  A    between atoms: C_7  and  C_14
REMARK    3  A    between atoms: C_17  and  O_23
REMARK    4  A    between atoms: O_23  and  C_24
REMARK    5  A    between atoms: C_24  and  C_25
REMARK    6  A    between atoms: C_25  and  N_26
REMARK                            x       y       z     vdW  Elec       q    Type
REMARK                         _______ _______ _______ _____ _____    ______ ____
ROOT
ATOM      1  N   UNL     1      33.055  -9.841 -24.816  0.00  0.00    -0.276 N 
ATOM      2  N   UNL     1      33.018 -11.084 -24.306  0.00  0.00    -0.173 NA
ATOM      3  C   UNL     1      32.558  -9.516 -22.704  0.00  0.00    +0.036 A 
ATOM      4  C   UNL     1      32.715 -10.886 -23.018  0.00  0.00    +0.102 A 
ATOM      5  C   UNL     1      32.787  -8.854 -23.905  0.00  0.00    +0.075 A 
ATOM      6  C   UNL     1      32.252  -8.768 -21.555  0.00  0.00    +0.006 C 
ATOM      7  C   UNL     1      32.188  -7.373 -21.661  0.00  0.00    +0.033 C 
ATOM      8  C   UNL     1      32.729  -7.464 -24.033  0.00  0.00    +0.019 C 
ATOM      9  C   UNL     1      32.424  -6.734 -22.880  0.00  0.00    +0.004 C 
ATOM     10  H   UNL     1      33.257  -9.657 -25.761  0.00  0.00    +0.189 HD
ENDROOT
BRANCH   7  14
ATOM     11  N   UNL     1      32.352  -6.881 -19.255  0.00  0.00    -0.218 N 
ATOM     12  N   UNL     1      31.122  -5.515 -20.436  0.00  0.00    -0.206 NA
ATOM     13  N   UNL     1      31.914  -5.996 -18.345  0.00  0.00    -0.157 NA
ATOM     14  C   UNL     1      31.876  -6.585 -20.492  0.00  0.00    +0.149 C 
ATOM     15  C   UNL     1      31.175  -5.192 -19.110  0.00  0.00    +0.218 C 
ATOM     16  H   UNL     1      32.942  -7.643 -19.051  0.00  0.00    +0.176 HD
ENDBRANCH   7  14
BRANCH   4  18
ATOM     17  C   UNL     1      33.236 -14.213 -21.435  0.00  0.00    +0.138 C 
ATOM     18  C   UNL     1      32.581 -12.002 -22.125  0.00  0.00    +0.022 C 
ATOM     19  C   UNL     1      33.371 -13.137 -22.305  0.00  0.00    +0.038 C 
ATOM     20  C   UNL     1      32.321 -14.170 -20.389  0.00  0.00    +0.037 C 
ATOM     21  C   UNL     1      31.662 -11.950 -21.078  0.00  0.00    +0.002 C 
ATOM     22  C   UNL     1      31.531 -13.034 -20.209  0.00  0.00    +0.003 C 
BRANCH  17  23
ATOM     23  O   UNL     1      34.013 -15.329 -21.610  0.00  0.00    -0.478 OA
BRANCH  23  24
ATOM     24  C   UNL     1      34.278 -15.722 -22.951  0.00  0.00    +0.183 C 
BRANCH  24  25
ATOM     25  C   UNL     1      34.181 -17.236 -23.044  0.00  0.00    -0.029 C 
BRANCH  25  26
ATOM     26  N   UNL     1      34.374 -17.847 -21.729  0.00  0.00    +0.389 N 
ATOM     27  C   UNL     1      33.496 -19.015 -21.570  0.00  0.00    -0.077 C 
ATOM     28  C   UNL     1      35.784 -18.211 -21.533  0.00  0.00    -0.077 C 
ATOM     29  C   UNL     1      33.651 -19.637 -20.182  0.00  0.00    -0.023 C 
ATOM     30  C   UNL     1      36.013 -18.806 -20.143  0.00  0.00    -0.023 C 
ATOM     31  C   UNL     1      35.103 -20.004 -19.896  0.00  0.00    -0.004 C 
ATOM     32  H   UNL     1      34.123 -17.166 -21.012  0.00  0.00    -0.080 HD
ENDBRANCH  25  26
ENDBRANCH  24  25
ENDBRANCH  23  24
ENDBRANCH  17  23
ENDBRANCH   4  18
TORSDOF 6
ENDMDL
