MODEL 1
REMARK VINA RESULT:     -11.7      0.000      0.000
REMARK  Name = 24812758
REMARK  9 active torsions:
REMARK  status: ('A' for Active; 'I' for Inactive)
REMARK    1  A    between atoms: C_1  and  C_11
REMARK    2  A    between atoms: C_4  and  C_23
REMARK    3  A    between atoms: C_9  and  O_14
REMARK    4  A    between atoms: C_10  and  O_16
REMARK    5  A    between atoms: C_12  and  O_18
REMARK    6  A    between atoms: C_13  and  C_20
REMARK    7  A    between atoms: C_20  and  O_21
REMARK    8  A    between atoms: C_23  and  C_25
REMARK    9  A    between atoms: C_27  and  C_30
REMARK                            x       y       z     vdW  Elec       q    Type
REMARK                         _______ _______ _______ _____ _____    ______ ____
ROOT
ATOM      1  C   UNL     1      33.297 -23.855 -13.621  0.00  0.00    +0.007 C 
ATOM      2  C   UNL     1      33.101 -23.709 -14.994  0.00  0.00    -0.006 C 
ATOM      3  C   UNL     1      32.280 -23.508 -12.731  0.00  0.00    -0.002 C 
ATOM      4  C   UNL     1      31.889 -23.217 -15.478  0.00  0.00    -0.021 C 
ATOM      5  C   UNL     1      30.872 -22.870 -14.588  0.00  0.00    -0.025 C 
ATOM      6  C   UNL     1      31.068 -23.016 -13.215  0.00  0.00    -0.005 C 
ATOM      7  C   UNL     1      29.565 -22.342 -15.081  0.00  0.00    +0.031 C 
ENDROOT
BRANCH   1  11
ATOM      8  O   UNL     1      35.339 -23.288 -12.538  0.00  0.00    -0.347 OA
ATOM      9  C   UNL     1      35.434 -25.082 -14.196  0.00  0.00    +0.171 C 
ATOM     10  C   UNL     1      36.823 -25.470 -13.684  0.00  0.00    +0.169 C 
ATOM     11  C   UNL     1      34.614 -24.389 -13.096  0.00  0.00    +0.167 C 
ATOM     12  C   UNL     1      37.500 -24.300 -12.971  0.00  0.00    +0.169 C 
ATOM     13  C   UNL     1      36.566 -23.687 -11.926  0.00  0.00    +0.174 C 
BRANCH   9  14
ATOM     14  O   UNL     1      34.743 -26.262 -14.605  0.00  0.00    -0.379 OA
ATOM     15  H   UNL     1      35.067 -27.020 -14.094  0.00  0.00    +0.211 HD
ENDBRANCH   9  14
BRANCH  10  16
ATOM     16  O   UNL     1      37.647 -25.850 -14.787  0.00  0.00    -0.379 OA
ATOM     17  H   UNL     1      37.519 -26.793 -14.976  0.00  0.00    +0.211 HD
ENDBRANCH  10  16
BRANCH  12  18
ATOM     18  O   UNL     1      38.685 -24.761 -12.329  0.00  0.00    -0.379 OA
ATOM     19  H   UNL     1      39.058 -24.048 -11.786  0.00  0.00    +0.211 HD
ENDBRANCH  12  18
BRANCH  13  20
ATOM     20  C   UNL     1      37.177 -22.449 -11.278  0.00  0.00    +0.169 C 
BRANCH  20  21
ATOM     21  O   UNL     1      36.352 -22.052 -10.197  0.00  0.00    -0.379 OA
ATOM     22  H   UNL     1      35.822 -22.808  -9.900  0.00  0.00    +0.211 HD
ENDBRANCH  20  21
ENDBRANCH  13  20
ENDBRANCH   1  11
BRANCH   4  23
ATOM     23  C   UNL     1      31.701 -23.070 -16.952  0.00  0.00    +0.059 C 
BRANCH  23  25
ATOM     24  S   UNL     1      32.353 -21.214 -18.930  0.00  0.00    -0.091 S 
ATOM     25  C   UNL     1      32.775 -22.241 -17.626  0.00  0.00    +0.012 C 
ATOM     26  C   UNL     1      34.120 -22.179 -17.334  0.00  0.00    +0.003 C 
ATOM     27  C   UNL     1      33.971 -20.685 -19.107  0.00  0.00    +0.029 C 
ATOM     28  C   UNL     1      34.813 -21.277 -18.193  0.00  0.00    +0.007 C 
BRANCH  27  30
ATOM     29  F   UNL     1      35.171 -16.978 -23.093  0.00  0.00    -0.204 F 
ATOM     30  C   UNL     1      34.283 -19.724 -20.140  0.00  0.00    +0.006 C 
ATOM     31  C   UNL     1      33.317 -19.382 -21.088  0.00  0.00    +0.003 C 
ATOM     32  C   UNL     1      35.547 -19.138 -20.191  0.00  0.00    +0.003 C 
ATOM     33  C   UNL     1      33.617 -18.454 -22.085  0.00  0.00    +0.030 C 
ATOM     34  C   UNL     1      35.847 -18.211 -21.187  0.00  0.00    +0.030 C 
ATOM     35  C   UNL     1      34.882 -17.869 -22.135  0.00  0.00    +0.140 C 
ENDBRANCH  27  30
ENDBRANCH  23  25
ENDBRANCH   4  23
TORSDOF 9
ENDMDL
MODEL 2
REMARK VINA RESULT:     -11.7      0.910      2.296
REMARK  Name = 24812758
REMARK  9 active torsions:
REMARK  status: ('A' for Active; 'I' for Inactive)
REMARK    1  A    between atoms: C_1  and  C_11
REMARK    2  A    between atoms: C_4  and  C_23
REMARK    3  A    between atoms: C_9  and  O_14
REMARK    4  A    between atoms: C_10  and  O_16
REMARK    5  A    between atoms: C_12  and  O_18
REMARK    6  A    between atoms: C_13  and  C_20
REMARK    7  A    between atoms: C_20  and  O_21
REMARK    8  A    between atoms: C_23  and  C_25
REMARK    9  A    between atoms: C_27  and  C_30
REMARK                            x       y       z     vdW  Elec       q    Type
REMARK                         _______ _______ _______ _____ _____    ______ ____
ROOT
ATOM      1  C   UNL     1      33.486 -23.540 -13.884  0.00  0.00    +0.007 C 
ATOM      2  C   UNL     1      33.100 -23.237 -15.189  0.00  0.00    -0.006 C 
ATOM      3  C   UNL     1      32.537 -23.554 -12.861  0.00  0.00    -0.002 C 
ATOM      4  C   UNL     1      31.766 -22.947 -15.473  0.00  0.00    -0.021 C 
ATOM      5  C   UNL     1      30.817 -22.960 -14.450  0.00  0.00    -0.025 C 
ATOM      6  C   UNL     1      31.203 -23.263 -13.145  0.00  0.00    -0.005 C 
ATOM      7  C   UNL     1      29.382 -22.653 -14.729  0.00  0.00    +0.031 C 
ENDROOT
BRANCH   1  11
ATOM      8  O   UNL     1      35.212 -25.167 -14.079  0.00  0.00    -0.347 OA
ATOM      9  C   UNL     1      35.236 -23.774 -12.072  0.00  0.00    +0.171 C 
ATOM     10  C   UNL     1      36.659 -24.251 -11.768  0.00  0.00    +0.169 C 
ATOM     11  C   UNL     1      34.937 -23.856 -13.576  0.00  0.00    +0.167 C 
ATOM     12  C   UNL     1      36.953 -25.589 -12.445  0.00  0.00    +0.169 C 
ATOM     13  C   UNL     1      36.582 -25.541 -13.928  0.00  0.00    +0.174 C 
BRANCH   9  14
ATOM     14  O   UNL     1      35.103 -22.416 -11.653  0.00  0.00    -0.379 OA
ATOM     15  H   UNL     1      34.629 -21.912 -12.334  0.00  0.00    +0.211 HD
ENDBRANCH   9  14
BRANCH  10  16
ATOM     16  O   UNL     1      36.811 -24.426 -10.359  0.00  0.00    -0.379 OA
ATOM     17  H   UNL     1      36.074 -24.955 -10.017  0.00  0.00    +0.211 HD
ENDBRANCH  10  16
BRANCH  12  18
ATOM     18  O   UNL     1      38.341 -25.887 -12.317  0.00  0.00    -0.379 OA
ATOM     19  H   UNL     1      38.609 -26.490 -13.029  0.00  0.00    +0.211 HD
ENDBRANCH  12  18
BRANCH  13  20
ATOM     20  C   UNL     1      36.763 -26.898 -14.601  0.00  0.00    +0.169 C 
BRANCH  20  21
ATOM     21  O   UNL     1      35.763 -27.047 -15.592  0.00  0.00    -0.379 OA
ATOM     22  H   UNL     1      34.904 -27.192 -15.166  0.00  0.00    +0.211 HD
ENDBRANCH  20  21
ENDBRANCH  13  20
ENDBRANCH   1  11
BRANCH   4  23
ATOM     23  C   UNL     1      31.376 -22.626 -16.878  0.00  0.00    +0.059 C 
BRANCH  23  25
ATOM     24  S   UNL     1      32.064 -20.829 -18.898  0.00  0.00    -0.091 S 
ATOM     25  C   UNL     1      32.475 -21.964 -17.683  0.00  0.00    +0.012 C 
ATOM     26  C   UNL     1      33.837 -22.141 -17.581  0.00  0.00    +0.003 C 
ATOM     27  C   UNL     1      33.710 -20.574 -19.292  0.00  0.00    +0.029 C 
ATOM     28  C   UNL     1      34.553 -21.336 -18.514  0.00  0.00    +0.007 C 
BRANCH  27  30
ATOM     29  F   UNL     1      34.981 -16.967 -23.346  0.00  0.00    -0.204 F 
ATOM     30  C   UNL     1      34.040 -19.639 -20.343  0.00  0.00    +0.006 C 
ATOM     31  C   UNL     1      33.139 -19.413 -21.383  0.00  0.00    +0.003 C 
ATOM     32  C   UNL     1      35.259 -18.962 -20.317  0.00  0.00    +0.003 C 
ATOM     33  C   UNL     1      33.456 -18.511 -22.398  0.00  0.00    +0.030 C 
ATOM     34  C   UNL     1      35.577 -18.060 -21.331  0.00  0.00    +0.030 C 
ATOM     35  C   UNL     1      34.675 -17.834 -22.372  0.00  0.00    +0.140 C 
ENDBRANCH  27  30
ENDBRANCH  23  25
ENDBRANCH   4  23
TORSDOF 9
ENDMDL
MODEL 3
REMARK VINA RESULT:     -11.2      2.978      5.363
REMARK  Name = 24812758
REMARK  9 active torsions:
REMARK  status: ('A' for Active; 'I' for Inactive)
REMARK    1  A    between atoms: C_1  and  C_11
REMARK    2  A    between atoms: C_4  and  C_23
REMARK    3  A    between atoms: C_9  and  O_14
REMARK    4  A    between atoms: C_10  and  O_16
REMARK    5  A    between atoms: C_12  and  O_18
REMARK    6  A    between atoms: C_13  and  C_20
REMARK    7  A    between atoms: C_20  and  O_21
REMARK    8  A    between atoms: C_23  and  C_25
REMARK    9  A    between atoms: C_27  and  C_30
REMARK                            x       y       z     vdW  Elec       q    Type
REMARK                         _______ _______ _______ _____ _____    ______ ____
ROOT
ATOM      1  C   UNL     1      32.952 -22.923 -15.255  0.00  0.00    +0.007 C 
ATOM      2  C   UNL     1      33.479 -22.767 -16.537  0.00  0.00    -0.006 C 
ATOM      3  C   UNL     1      33.647 -22.430 -14.150  0.00  0.00    -0.002 C 
ATOM      4  C   UNL     1      34.700 -22.118 -16.715  0.00  0.00    -0.021 C 
ATOM      5  C   UNL     1      35.395 -21.625 -15.611  0.00  0.00    -0.025 C 
ATOM      6  C   UNL     1      34.869 -21.781 -14.329  0.00  0.00    -0.005 C 
ATOM      7  C   UNL     1      36.705 -20.926 -15.776  0.00  0.00    +0.031 C 
ENDROOT
BRANCH   1  11
ATOM      8  O   UNL     1      30.592 -22.740 -15.501  0.00  0.00    -0.347 OA
ATOM      9  C   UNL     1      31.401 -24.043 -13.599  0.00  0.00    +0.171 C 
ATOM     10  C   UNL     1      29.992 -24.607 -13.397  0.00  0.00    +0.169 C 
ATOM     11  C   UNL     1      31.624 -23.628 -15.061  0.00  0.00    +0.167 C 
ATOM     12  C   UNL     1      28.934 -23.690 -14.009  0.00  0.00    +0.169 C 
ATOM     13  C   UNL     1      29.294 -23.333 -15.453  0.00  0.00    +0.174 C 
BRANCH   9  14
ATOM     14  O   UNL     1      32.356 -25.048 -13.258  0.00  0.00    -0.379 OA
ATOM     15  H   UNL     1      32.949 -24.710 -12.568  0.00  0.00    +0.211 HD
ENDBRANCH   9  14
BRANCH  10  16
ATOM     16  O   UNL     1      29.722 -24.720 -11.999  0.00  0.00    -0.379 OA
ATOM     17  H   UNL     1      29.336 -23.891 -11.675  0.00  0.00    +0.211 HD
ENDBRANCH  10  16
BRANCH  12  18
ATOM     18  O   UNL     1      27.671 -24.350 -13.990  0.00  0.00    -0.379 OA
ATOM     19  H   UNL     1      27.571 -24.880 -14.797  0.00  0.00    +0.211 HD
ENDBRANCH  12  18
BRANCH  13  20
ATOM     20  C   UNL     1      28.310 -22.332 -16.050  0.00  0.00    +0.169 C 
BRANCH  20  21
ATOM     21  O   UNL     1      27.327 -23.045 -16.778  0.00  0.00    -0.379 OA
ATOM     22  H   UNL     1      27.155 -23.895 -16.344  0.00  0.00    +0.211 HD
ENDBRANCH  20  21
ENDBRANCH  13  20
ENDBRANCH   1  11
BRANCH   4  23
ATOM     23  C   UNL     1      35.244 -21.962 -18.097  0.00  0.00    +0.059 C 
BRANCH  23  25
ATOM     24  S   UNL     1      35.251 -19.990 -20.069  0.00  0.00    -0.091 S 
ATOM     25  C   UNL     1      34.439 -21.021 -18.969  0.00  0.00    +0.012 C 
ATOM     26  C   UNL     1      33.072 -20.859 -19.021  0.00  0.00    +0.003 C 
ATOM     27  C   UNL     1      33.773 -19.321 -20.617  0.00  0.00    +0.029 C 
ATOM     28  C   UNL     1      32.686 -19.874 -19.976  0.00  0.00    +0.007 C 
BRANCH  27  30
ATOM     29  F   UNL     1      33.891 -15.383 -24.558  0.00  0.00    -0.204 F 
ATOM     30  C   UNL     1      33.804 -18.301 -21.638  0.00  0.00    +0.006 C 
ATOM     31  C   UNL     1      33.392 -18.601 -22.937  0.00  0.00    +0.003 C 
ATOM     32  C   UNL     1      34.245 -17.014 -21.326  0.00  0.00    +0.003 C 
ATOM     33  C   UNL     1      33.421 -17.616 -23.923  0.00  0.00    +0.030 C 
ATOM     34  C   UNL     1      34.274 -16.029 -22.312  0.00  0.00    +0.030 C 
ATOM     35  C   UNL     1      33.862 -16.329 -23.611  0.00  0.00    +0.140 C 
ENDBRANCH  27  30
ENDBRANCH  23  25
ENDBRANCH   4  23
TORSDOF 9
ENDMDL
MODEL 4
REMARK VINA RESULT:     -10.5     11.229     15.920
REMARK  Name = 24812758
REMARK  9 active torsions:
REMARK  status: ('A' for Active; 'I' for Inactive)
REMARK    1  A    between atoms: C_1  and  C_11
REMARK    2  A    between atoms: C_4  and  C_23
REMARK    3  A    between atoms: C_9  and  O_14
REMARK    4  A    between atoms: C_10  and  O_16
REMARK    5  A    between atoms: C_12  and  O_18
REMARK    6  A    between atoms: C_13  and  C_20
REMARK    7  A    between atoms: C_20  and  O_21
REMARK    8  A    between atoms: C_23  and  C_25
REMARK    9  A    between atoms: C_27  and  C_30
REMARK                            x       y       z     vdW  Elec       q    Type
REMARK                         _______ _______ _______ _____ _____    ______ ____
ROOT
ATOM      1  C   UNL     1      32.395  -7.937 -22.649  0.00  0.00    +0.007 C 
ATOM      2  C   UNL     1      32.091  -9.166 -23.233  0.00  0.00    -0.006 C 
ATOM      3  C   UNL     1      33.637  -7.344 -22.876  0.00  0.00    -0.002 C 
ATOM      4  C   UNL     1      33.029  -9.804 -24.045  0.00  0.00    -0.021 C 
ATOM      5  C   UNL     1      34.271  -9.211 -24.273  0.00  0.00    -0.025 C 
ATOM      6  C   UNL     1      34.575  -7.982 -23.688  0.00  0.00    -0.005 C 
ATOM      7  C   UNL     1      35.292  -9.873 -25.138  0.00  0.00    +0.031 C 
ENDROOT
BRANCH   1  11
ATOM      8  O   UNL     1      31.144  -5.941 -22.310  0.00  0.00    -0.347 OA
ATOM      9  C   UNL     1      31.845  -7.152 -20.307  0.00  0.00    +0.171 C 
ATOM     10  C   UNL     1      30.878  -6.311 -19.470  0.00  0.00    +0.169 C 
ATOM     11  C   UNL     1      31.375  -7.244 -21.766  0.00  0.00    +0.167 C 
ATOM     12  C   UNL     1      30.551  -4.988 -20.161  0.00  0.00    +0.169 C 
ATOM     13  C   UNL     1      30.126  -5.223 -21.611  0.00  0.00    +0.174 C 
BRANCH   9  14
ATOM     14  O   UNL     1      31.906  -8.470 -19.762  0.00  0.00    -0.379 OA
ATOM     15  H   UNL     1      31.761  -9.119 -20.468  0.00  0.00    +0.211 HD
ENDBRANCH   9  14
BRANCH  10  16
ATOM     16  O   UNL     1      31.476  -6.014 -18.208  0.00  0.00    -0.379 OA
ATOM     17  H   UNL     1      32.431  -5.886 -18.324  0.00  0.00    +0.211 HD
ENDBRANCH  10  16
BRANCH  12  18
ATOM     18  O   UNL     1      29.493  -4.339 -19.460  0.00  0.00    -0.379 OA
ATOM     19  H   UNL     1      29.695  -4.324 -18.511  0.00  0.00    +0.211 HD
ENDBRANCH  12  18
BRANCH  13  20
ATOM     20  C   UNL     1      29.900  -3.910 -22.354  0.00  0.00    +0.169 C 
BRANCH  20  21
ATOM     21  O   UNL     1      30.595  -2.881 -21.673  0.00  0.00    -0.379 OA
ATOM     22  H   UNL     1      30.597  -2.077 -22.216  0.00  0.00    +0.211 HD
ENDBRANCH  20  21
ENDBRANCH  13  20
ENDBRANCH   1  11
BRANCH   4  23
ATOM     23  C   UNL     1      32.682 -11.119 -24.660  0.00  0.00    +0.059 C 
BRANCH  23  25
ATOM     24  S   UNL     1      33.038 -13.880 -24.487  0.00  0.00    -0.091 S 
ATOM     25  C   UNL     1      33.041 -12.312 -23.799  0.00  0.00    +0.012 C 
ATOM     26  C   UNL     1      33.394 -12.333 -22.468  0.00  0.00    +0.003 C 
ATOM     27  C   UNL     1      33.508 -14.591 -23.003  0.00  0.00    +0.029 C 
ATOM     28  C   UNL     1      33.664 -13.654 -22.006  0.00  0.00    +0.007 C 
BRANCH  27  30
ATOM     29  F   UNL     1      34.190 -20.117 -22.760  0.00  0.00    -0.204 F 
ATOM     30  C   UNL     1      33.685 -16.023 -22.940  0.00  0.00    +0.006 C 
ATOM     31  C   UNL     1      33.234 -16.829 -23.986  0.00  0.00    +0.003 C 
ATOM     32  C   UNL     1      34.307 -16.602 -21.833  0.00  0.00    +0.003 C 
ATOM     33  C   UNL     1      33.404 -18.211 -23.925  0.00  0.00    +0.030 C 
ATOM     34  C   UNL     1      34.478 -17.984 -21.773  0.00  0.00    +0.030 C 
ATOM     35  C   UNL     1      34.026 -18.790 -22.819  0.00  0.00    +0.140 C 
ENDBRANCH  27  30
ENDBRANCH  23  25
ENDBRANCH   4  23
TORSDOF 9
ENDMDL
MODEL 5
REMARK VINA RESULT:     -10.2     10.857     14.521
REMARK  Name = 24812758
REMARK  9 active torsions:
REMARK  status: ('A' for Active; 'I' for Inactive)
REMARK    1  A    between atoms: C_1  and  C_11
REMARK    2  A    between atoms: C_4  and  C_23
REMARK    3  A    between atoms: C_9  and  O_14
REMARK    4  A    between atoms: C_10  and  O_16
REMARK    5  A    between atoms: C_12  and  O_18
REMARK    6  A    between atoms: C_13  and  C_20
REMARK    7  A    between atoms: C_20  and  O_21
REMARK    8  A    between atoms: C_23  and  C_25
REMARK    9  A    between atoms: C_27  and  C_30
REMARK                            x       y       z     vdW  Elec       q    Type
REMARK                         _______ _______ _______ _____ _____    ______ ____
ROOT
ATOM      1  C   UNL     1      32.092 -12.182 -21.347  0.00  0.00    +0.007 C 
ATOM      2  C   UNL     1      31.681 -10.927 -21.797  0.00  0.00    -0.006 C 
ATOM      3  C   UNL     1      31.747 -12.611 -20.065  0.00  0.00    -0.002 C 
ATOM      4  C   UNL     1      30.926 -10.100 -20.965  0.00  0.00    -0.021 C 
ATOM      5  C   UNL     1      30.580 -10.530 -19.684  0.00  0.00    -0.025 C 
ATOM      6  C   UNL     1      30.991 -11.784 -19.234  0.00  0.00    -0.005 C 
ATOM      7  C   UNL     1      29.772  -9.664 -18.775  0.00  0.00    +0.031 C 
ENDROOT
BRANCH   1  11
ATOM      8  O   UNL     1      32.169 -13.279 -23.458  0.00  0.00    -0.347 OA
ATOM      9  C   UNL     1      33.242 -14.423 -21.583  0.00  0.00    +0.171 C 
ATOM     10  C   UNL     1      33.930 -15.372 -22.568  0.00  0.00    +0.169 C 
ATOM     11  C   UNL     1      32.914 -13.079 -22.251  0.00  0.00    +0.167 C 
ATOM     12  C   UNL     1      33.173 -15.443 -23.893  0.00  0.00    +0.169 C 
ATOM     13  C   UNL     1      32.887 -14.040 -24.430  0.00  0.00    +0.174 C 
BRANCH   9  14
ATOM     14  O   UNL     1      34.117 -14.183 -20.481  0.00  0.00    -0.379 OA
ATOM     15  H   UNL     1      34.502 -13.296 -20.560  0.00  0.00    +0.211 HD
ENDBRANCH   9  14
BRANCH  10  16
ATOM     16  O   UNL     1      33.969 -16.687 -22.011  0.00  0.00    -0.379 OA
ATOM     17  H   UNL     1      34.281 -16.641 -21.093  0.00  0.00    +0.211 HD
ENDBRANCH  10  16
BRANCH  12  18
ATOM     18  O   UNL     1      33.956 -16.160 -24.844  0.00  0.00    -0.379 OA
ATOM     19  H   UNL     1      33.449 -16.265 -25.666  0.00  0.00    +0.211 HD
ENDBRANCH  12  18
BRANCH  13  20
ATOM     20  C   UNL     1      32.037 -14.081 -25.696  0.00  0.00    +0.169 C 
BRANCH  20  21
ATOM     21  O   UNL     1      31.538 -15.397 -25.861  0.00  0.00    -0.379 OA
ATOM     22  H   UNL     1      30.669 -15.362 -26.291  0.00  0.00    +0.211 HD
ENDBRANCH  20  21
ENDBRANCH  13  20
ENDBRANCH   1  11
BRANCH   4  23
ATOM     23  C   UNL     1      30.497  -8.762 -21.468  0.00  0.00    +0.059 C 
BRANCH  23  25
ATOM     24  S   UNL     1      31.609  -7.555 -23.724  0.00  0.00    -0.091 S 
ATOM     25  C   UNL     1      31.625  -7.938 -22.054  0.00  0.00    +0.012 C 
ATOM     26  C   UNL     1      32.726  -7.414 -21.414  0.00  0.00    +0.003 C 
ATOM     27  C   UNL     1      33.079  -6.687 -23.593  0.00  0.00    +0.029 C 
ATOM     28  C   UNL     1      33.569  -6.690 -22.306  0.00  0.00    +0.007 C 
BRANCH  27  30
ATOM     29  F   UNL     1      35.223  -4.315 -28.158  0.00  0.00    -0.204 F 
ATOM     30  C   UNL     1      33.635  -6.073 -24.776  0.00  0.00    +0.006 C 
ATOM     31  C   UNL     1      33.822  -4.691 -24.822  0.00  0.00    +0.003 C 
ATOM     32  C   UNL     1      33.984  -6.860 -25.873  0.00  0.00    +0.003 C 
ATOM     33  C   UNL     1      34.359  -4.097 -25.964  0.00  0.00    +0.030 C 
ATOM     34  C   UNL     1      34.521  -6.267 -27.015  0.00  0.00    +0.030 C 
ATOM     35  C   UNL     1      34.708  -4.885 -27.061  0.00  0.00    +0.140 C 
ENDBRANCH  27  30
ENDBRANCH  23  25
ENDBRANCH   4  23
TORSDOF 9
ENDMDL
MODEL 6
REMARK VINA RESULT:      -9.9     12.132     16.294
REMARK  Name = 24812758
REMARK  9 active torsions:
REMARK  status: ('A' for Active; 'I' for Inactive)
REMARK    1  A    between atoms: C_1  and  C_11
REMARK    2  A    between atoms: C_4  and  C_23
REMARK    3  A    between atoms: C_9  and  O_14
REMARK    4  A    between atoms: C_10  and  O_16
REMARK    5  A    between atoms: C_12  and  O_18
REMARK    6  A    between atoms: C_13  and  C_20
REMARK    7  A    between atoms: C_20  and  O_21
REMARK    8  A    between atoms: C_23  and  C_25
REMARK    9  A    between atoms: C_27  and  C_30
REMARK                            x       y       z     vdW  Elec       q    Type
REMARK                         _______ _______ _______ _____ _____    ______ ____
ROOT
ATOM      1  C   UNL     1      31.875  -6.993 -20.999  0.00  0.00    +0.007 C 
ATOM      2  C   UNL     1      31.359  -8.209 -21.447  0.00  0.00    -0.006 C 
ATOM      3  C   UNL     1      32.023  -6.760 -19.631  0.00  0.00    -0.002 C 
ATOM      4  C   UNL     1      30.991  -9.192 -20.529  0.00  0.00    -0.021 C 
ATOM      5  C   UNL     1      31.139  -8.958 -19.161  0.00  0.00    -0.025 C 
ATOM      6  C   UNL     1      31.654  -7.743 -18.713  0.00  0.00    -0.005 C 
ATOM      7  C   UNL     1      30.752  -9.995 -18.158  0.00  0.00    +0.031 C 
ENDROOT
BRANCH   1  11
ATOM      8  O   UNL     1      31.076  -5.401 -22.577  0.00  0.00    -0.347 OA
ATOM      9  C   UNL     1      33.212  -6.475 -23.083  0.00  0.00    +0.171 C 
ATOM     10  C   UNL     1      33.473  -5.425 -24.167  0.00  0.00    +0.169 C 
ATOM     11  C   UNL     1      32.275  -5.925 -21.997  0.00  0.00    +0.167 C 
ATOM     12  C   UNL     1      32.170  -4.794 -24.654  0.00  0.00    +0.169 C 
ATOM     13  C   UNL     1      31.322  -4.317 -23.473  0.00  0.00    +0.174 C 
BRANCH   9  14
ATOM     14  O   UNL     1      34.453  -6.834 -22.477  0.00  0.00    -0.379 OA
ATOM     15  H   UNL     1      34.444  -6.573 -21.542  0.00  0.00    +0.211 HD
ENDBRANCH   9  14
BRANCH  10  16
ATOM     16  O   UNL     1      34.108  -6.045 -25.286  0.00  0.00    -0.379 OA
ATOM     17  H   UNL     1      34.559  -6.853 -24.995  0.00  0.00    +0.211 HD
ENDBRANCH  10  16
BRANCH  12  18
ATOM     18  O   UNL     1      32.470  -3.683 -25.495  0.00  0.00    -0.379 OA
ATOM     19  H   UNL     1      32.602  -2.891 -24.949  0.00  0.00    +0.211 HD
ENDBRANCH  12  18
BRANCH  13  20
ATOM     20  C   UNL     1      29.968  -3.782 -23.928  0.00  0.00    +0.169 C 
BRANCH  20  21
ATOM     21  O   UNL     1      29.286  -3.265 -22.800  0.00  0.00    -0.379 OA
ATOM     22  H   UNL     1      28.664  -3.930 -22.465  0.00  0.00    +0.211 HD
ENDBRANCH  20  21
ENDBRANCH  13  20
ENDBRANCH   1  11
BRANCH   4  23
ATOM     23  C   UNL     1      30.442 -10.486 -21.032  0.00  0.00    +0.059 C 
BRANCH  23  25
ATOM     24  S   UNL     1      31.579 -13.032 -20.969  0.00  0.00    -0.091 S 
ATOM     25  C   UNL     1      31.497 -11.431 -21.570  0.00  0.00    +0.012 C 
ATOM     26  C   UNL     1      32.456 -11.188 -22.528  0.00  0.00    +0.003 C 
ATOM     27  C   UNL     1      32.901 -13.404 -21.990  0.00  0.00    +0.029 C 
ATOM     28  C   UNL     1      33.270 -12.332 -22.772  0.00  0.00    +0.007 C 
BRANCH  27  30
ATOM     29  F   UNL     1      35.107 -18.519 -21.789  0.00  0.00    -0.204 F 
ATOM     30  C   UNL     1      33.473 -14.730 -21.938  0.00  0.00    +0.006 C 
ATOM     31  C   UNL     1      33.714 -15.433 -23.119  0.00  0.00    +0.003 C 
ATOM     32  C   UNL     1      33.784 -15.308 -20.707  0.00  0.00    +0.003 C 
ATOM     33  C   UNL     1      34.266 -16.712 -23.069  0.00  0.00    +0.030 C 
ATOM     34  C   UNL     1      34.336 -16.587 -20.657  0.00  0.00    +0.030 C 
ATOM     35  C   UNL     1      34.577 -17.290 -21.838  0.00  0.00    +0.140 C 
ENDBRANCH  27  30
ENDBRANCH  23  25
ENDBRANCH   4  23
TORSDOF 9
ENDMDL
MODEL 7
REMARK VINA RESULT:      -9.7      4.512      8.144
REMARK  Name = 24812758
REMARK  9 active torsions:
REMARK  status: ('A' for Active; 'I' for Inactive)
REMARK    1  A    between atoms: C_1  and  C_11
REMARK    2  A    between atoms: C_4  and  C_23
REMARK    3  A    between atoms: C_9  and  O_14
REMARK    4  A    between atoms: C_10  and  O_16
REMARK    5  A    between atoms: C_12  and  O_18
REMARK    6  A    between atoms: C_13  and  C_20
REMARK    7  A    between atoms: C_20  and  O_21
REMARK    8  A    between atoms: C_23  and  C_25
REMARK    9  A    between atoms: C_27  and  C_30
REMARK                            x       y       z     vdW  Elec       q    Type
REMARK                         _______ _______ _______ _____ _____    ______ ____
ROOT
ATOM      1  C   UNL     1      35.315 -21.674 -17.021  0.00  0.00    +0.007 C 
ATOM      2  C   UNL     1      34.755 -22.772 -16.368  0.00  0.00    -0.006 C 
ATOM      3  C   UNL     1      36.301 -20.915 -16.390  0.00  0.00    -0.002 C 
ATOM      4  C   UNL     1      35.180 -23.111 -15.084  0.00  0.00    -0.021 C 
ATOM      5  C   UNL     1      36.165 -22.352 -14.452  0.00  0.00    -0.025 C 
ATOM      6  C   UNL     1      36.725 -21.255 -15.105  0.00  0.00    -0.005 C 
ATOM      7  C   UNL     1      36.637 -22.696 -13.078  0.00  0.00    +0.031 C 
ENDROOT
BRANCH   1  11
ATOM      8  O   UNL     1      35.508 -20.087 -18.784  0.00  0.00    -0.347 OA
ATOM      9  C   UNL     1      33.326 -21.150 -18.495  0.00  0.00    +0.171 C 
ATOM     10  C   UNL     1      32.898 -20.623 -19.867  0.00  0.00    +0.169 C 
ATOM     11  C   UNL     1      34.853 -21.306 -18.417  0.00  0.00    +0.167 C 
ATOM     12  C   UNL     1      33.724 -19.405 -20.277  0.00  0.00    +0.169 C 
ATOM     13  C   UNL     1      35.220 -19.686 -20.124  0.00  0.00    +0.174 C 
BRANCH   9  14
ATOM     14  O   UNL     1      32.726 -22.427 -18.280  0.00  0.00    -0.379 OA
ATOM     15  H   UNL     1      32.351 -22.753 -19.114  0.00  0.00    +0.211 HD
ENDBRANCH   9  14
BRANCH  10  16
ATOM     16  O   UNL     1      31.526 -20.230 -19.817  0.00  0.00    -0.379 OA
ATOM     17  H   UNL     1      31.436 -19.323 -20.151  0.00  0.00    +0.211 HD
ENDBRANCH  10  16
BRANCH  12  18
ATOM     18  O   UNL     1      33.444 -19.082 -21.637  0.00  0.00    -0.379 OA
ATOM     19  H   UNL     1      34.055 -18.390 -21.937  0.00  0.00    +0.211 HD
ENDBRANCH  12  18
BRANCH  13  20
ATOM     20  C   UNL     1      36.061 -18.449 -20.422  0.00  0.00    +0.169 C 
BRANCH  20  21
ATOM     21  O   UNL     1      36.252 -18.361 -21.823  0.00  0.00    -0.379 OA
ATOM     22  H   UNL     1      36.774 -17.569 -22.029  0.00  0.00    +0.211 HD
ENDBRANCH  20  21
ENDBRANCH  13  20
ENDBRANCH   1  11
BRANCH   4  23
ATOM     23  C   UNL     1      34.566 -24.291 -14.404  0.00  0.00    +0.059 C 
BRANCH  23  25
ATOM     24  S   UNL     1      31.979 -23.627 -15.206  0.00  0.00    -0.091 S 
ATOM     25  C   UNL     1      33.117 -24.087 -14.013  0.00  0.00    +0.012 C 
ATOM     26  C   UNL     1      32.538 -24.225 -12.771  0.00  0.00    +0.003 C 
ATOM     27  C   UNL     1      30.706 -23.611 -14.062  0.00  0.00    +0.029 C 
ATOM     28  C   UNL     1      31.140 -23.949 -12.799  0.00  0.00    +0.007 C 
BRANCH  27  30
ATOM     29  F   UNL     1      25.572 -22.265 -15.763  0.00  0.00    -0.204 F 
ATOM     30  C   UNL     1      29.375 -23.262 -14.502  0.00  0.00    +0.006 C 
ATOM     31  C   UNL     1      28.821 -22.032 -14.145  0.00  0.00    +0.003 C 
ATOM     32  C   UNL     1      28.643 -24.155 -15.286  0.00  0.00    +0.003 C 
ATOM     33  C   UNL     1      27.537 -21.695 -14.570  0.00  0.00    +0.030 C 
ATOM     34  C   UNL     1      27.359 -23.818 -15.711  0.00  0.00    +0.030 C 
ATOM     35  C   UNL     1      26.805 -22.588 -15.354  0.00  0.00    +0.140 C 
ENDBRANCH  27  30
ENDBRANCH  23  25
ENDBRANCH   4  23
TORSDOF 9
ENDMDL
MODEL 8
REMARK VINA RESULT:      -9.7      2.684      5.169
REMARK  Name = 24812758
REMARK  9 active torsions:
REMARK  status: ('A' for Active; 'I' for Inactive)
REMARK    1  A    between atoms: C_1  and  C_11
REMARK    2  A    between atoms: C_4  and  C_23
REMARK    3  A    between atoms: C_9  and  O_14
REMARK    4  A    between atoms: C_10  and  O_16
REMARK    5  A    between atoms: C_12  and  O_18
REMARK    6  A    between atoms: C_13  and  C_20
REMARK    7  A    between atoms: C_20  and  O_21
REMARK    8  A    between atoms: C_23  and  C_25
REMARK    9  A    between atoms: C_27  and  C_30
REMARK                            x       y       z     vdW  Elec       q    Type
REMARK                         _______ _______ _______ _____ _____    ______ ____
ROOT
ATOM      1  C   UNL     1      33.912 -23.847 -14.347  0.00  0.00    +0.007 C 
ATOM      2  C   UNL     1      34.486 -22.836 -15.117  0.00  0.00    -0.006 C 
ATOM      3  C   UNL     1      34.725 -24.775 -13.695  0.00  0.00    -0.002 C 
ATOM      4  C   UNL     1      35.873 -22.752 -15.236  0.00  0.00    -0.021 C 
ATOM      5  C   UNL     1      36.686 -23.679 -14.583  0.00  0.00    -0.025 C 
ATOM      6  C   UNL     1      36.112 -24.690 -13.813  0.00  0.00    -0.005 C 
ATOM      7  C   UNL     1      38.174 -23.609 -14.694  0.00  0.00    +0.031 C 
ENDROOT
BRANCH   1  11
ATOM      8  O   UNL     1      31.832 -23.018 -15.153  0.00  0.00    -0.347 OA
ATOM      9  C   UNL     1      31.929 -23.633 -12.790  0.00  0.00    +0.171 C 
ATOM     10  C   UNL     1      30.400 -23.573 -12.721  0.00  0.00    +0.169 C 
ATOM     11  C   UNL     1      32.404 -23.939 -14.218  0.00  0.00    +0.167 C 
ATOM     12  C   UNL     1      29.828 -22.689 -13.827  0.00  0.00    +0.169 C 
ATOM     13  C   UNL     1      30.405 -23.082 -15.189  0.00  0.00    +0.174 C 
BRANCH   9  14
ATOM     14  O   UNL     1      32.393 -24.668 -11.923  0.00  0.00    -0.379 OA
ATOM     15  H   UNL     1      32.914 -25.308 -12.433  0.00  0.00    +0.211 HD
ENDBRANCH   9  14
BRANCH  10  16
ATOM     16  O   UNL     1      30.004 -23.021 -11.465  0.00  0.00    -0.379 OA
ATOM     17  H   UNL     1      29.342 -22.326 -11.611  0.00  0.00    +0.211 HD
ENDBRANCH  10  16
BRANCH  12  18
ATOM     18  O   UNL     1      28.411 -22.833 -13.859  0.00  0.00    -0.379 OA
ATOM     19  H   UNL     1      28.011 -22.019 -14.205  0.00  0.00    +0.211 HD
ENDBRANCH  12  18
BRANCH  13  20
ATOM     20  C   UNL     1      29.933 -22.143 -16.295  0.00  0.00    +0.169 C 
BRANCH  20  21
ATOM     21  O   UNL     1      28.532 -22.290 -16.444  0.00  0.00    -0.379 OA
ATOM     22  H   UNL     1      28.105 -22.213 -15.576  0.00  0.00    +0.211 HD
ENDBRANCH  20  21
ENDBRANCH  13  20
ENDBRANCH   1  11
BRANCH   4  23
ATOM     23  C   UNL     1      36.466 -21.660 -16.065  0.00  0.00    +0.059 C 
BRANCH  23  25
ATOM     24  S   UNL     1      36.172 -20.046 -18.320  0.00  0.00    -0.091 S 
ATOM     25  C   UNL     1      35.645 -21.307 -17.288  0.00  0.00    +0.012 C 
ATOM     26  C   UNL     1      34.471 -21.878 -17.727  0.00  0.00    +0.003 C 
ATOM     27  C   UNL     1      34.828 -20.261 -19.358  0.00  0.00    +0.029 C 
ATOM     28  C   UNL     1      33.997 -21.272 -18.927  0.00  0.00    +0.007 C 
BRANCH  27  30
ATOM     29  F   UNL     1      34.331 -16.982 -23.837  0.00  0.00    -0.204 F 
ATOM     30  C   UNL     1      34.699 -19.411 -20.519  0.00  0.00    +0.006 C 
ATOM     31  C   UNL     1      35.724 -18.526 -20.852  0.00  0.00    +0.003 C 
ATOM     32  C   UNL     1      33.550 -19.476 -21.307  0.00  0.00    +0.003 C 
ATOM     33  C   UNL     1      35.600 -17.705 -21.973  0.00  0.00    +0.030 C 
ATOM     34  C   UNL     1      33.426 -18.656 -22.428  0.00  0.00    +0.030 C 
ATOM     35  C   UNL     1      34.451 -17.770 -22.761  0.00  0.00    +0.140 C 
ENDBRANCH  27  30
ENDBRANCH  23  25
ENDBRANCH   4  23
TORSDOF 9
ENDMDL
MODEL 9
REMARK VINA RESULT:      -9.6     12.293     16.478
REMARK  Name = 24812758
REMARK  9 active torsions:
REMARK  status: ('A' for Active; 'I' for Inactive)
REMARK    1  A    between atoms: C_1  and  C_11
REMARK    2  A    between atoms: C_4  and  C_23
REMARK    3  A    between atoms: C_9  and  O_14
REMARK    4  A    between atoms: C_10  and  O_16
REMARK    5  A    between atoms: C_12  and  O_18
REMARK    6  A    between atoms: C_13  and  C_20
REMARK    7  A    between atoms: C_20  and  O_21
REMARK    8  A    between atoms: C_23  and  C_25
REMARK    9  A    between atoms: C_27  and  C_30
REMARK                            x       y       z     vdW  Elec       q    Type
REMARK                         _______ _______ _______ _____ _____    ______ ____
ROOT
ATOM      1  C   UNL     1      30.942  -7.195 -21.343  0.00  0.00    +0.007 C 
ATOM      2  C   UNL     1      30.573  -8.533 -21.481  0.00  0.00    -0.006 C 
ATOM      3  C   UNL     1      31.353  -6.708 -20.102  0.00  0.00    -0.002 C 
ATOM      4  C   UNL     1      30.614  -9.385 -20.378  0.00  0.00    -0.021 C 
ATOM      5  C   UNL     1      31.025  -8.898 -19.136  0.00  0.00    -0.025 C 
ATOM      6  C   UNL     1      31.394  -7.560 -18.999  0.00  0.00    -0.005 C 
ATOM      7  C   UNL     1      31.078  -9.791 -17.940  0.00  0.00    +0.031 C 
ENDROOT
BRANCH   1  11
ATOM      8  O   UNL     1      32.118  -6.440 -23.270  0.00  0.00    -0.347 OA
ATOM      9  C   UNL     1      30.708  -4.801 -22.130  0.00  0.00    +0.171 C 
ATOM     10  C   UNL     1      30.826  -3.871 -23.340  0.00  0.00    +0.169 C 
ATOM     11  C   UNL     1      30.897  -6.269 -22.543  0.00  0.00    +0.167 C 
ATOM     12  C   UNL     1      32.073  -4.186 -24.164  0.00  0.00    +0.169 C 
ATOM     13  C   UNL     1      32.152  -5.681 -24.480  0.00  0.00    +0.174 C 
BRANCH   9  14
ATOM     14  O   UNL     1      29.410  -4.652 -21.555  0.00  0.00    -0.379 OA
ATOM     15  H   UNL     1      29.255  -3.718 -21.344  0.00  0.00    +0.211 HD
ENDBRANCH   9  14
BRANCH  10  16
ATOM     16  O   UNL     1      30.924  -2.518 -22.891  0.00  0.00    -0.379 OA
ATOM     17  H   UNL     1      31.098  -1.938 -23.648  0.00  0.00    +0.211 HD
ENDBRANCH  10  16
BRANCH  12  18
ATOM     18  O   UNL     1      32.031  -3.451 -25.384  0.00  0.00    -0.379 OA
ATOM     19  H   UNL     1      31.313  -3.791 -25.941  0.00  0.00    +0.211 HD
ENDBRANCH  12  18
BRANCH  13  20
ATOM     20  C   UNL     1      33.444  -6.038 -25.207  0.00  0.00    +0.169 C 
BRANCH  20  21
ATOM     21  O   UNL     1      34.453  -5.127 -24.809  0.00  0.00    -0.379 OA
ATOM     22  H   UNL     1      35.128  -5.068 -25.504  0.00  0.00    +0.211 HD
ENDBRANCH  20  21
ENDBRANCH  13  20
ENDBRANCH   1  11
BRANCH   4  23
ATOM     23  C   UNL     1      30.215 -10.814 -20.548  0.00  0.00    +0.059 C 
BRANCH  23  25
ATOM     24  S   UNL     1      31.527 -13.273 -20.641  0.00  0.00    -0.091 S 
ATOM     25  C   UNL     1      31.279 -11.673 -21.199  0.00  0.00    +0.012 C 
ATOM     26  C   UNL     1      32.128 -11.349 -22.234  0.00  0.00    +0.003 C 
ATOM     27  C   UNL     1      32.774 -13.536 -21.784  0.00  0.00    +0.029 C 
ATOM     28  C   UNL     1      32.995 -12.429 -22.573  0.00  0.00    +0.007 C 
BRANCH  27  30
ATOM     29  F   UNL     1      35.339 -18.482 -21.886  0.00  0.00    -0.204 F 
ATOM     30  C   UNL     1      33.439 -14.818 -21.810  0.00  0.00    +0.006 C 
ATOM     31  C   UNL     1      33.738 -15.424 -23.031  0.00  0.00    +0.003 C 
ATOM     32  C   UNL     1      33.783 -15.450 -20.615  0.00  0.00    +0.003 C 
ATOM     33  C   UNL     1      34.379 -16.661 -23.057  0.00  0.00    +0.030 C 
ATOM     34  C   UNL     1      34.424 -16.688 -20.641  0.00  0.00    +0.030 C 
ATOM     35  C   UNL     1      34.723 -17.294 -21.862  0.00  0.00    +0.140 C 
ENDBRANCH  27  30
ENDBRANCH  23  25
ENDBRANCH   4  23
TORSDOF 9
ENDMDL
