MODEL 1
REMARK VINA RESULT:     -11.7      0.000      0.000
REMARK  Name = 11574606
REMARK  6 active torsions:
REMARK  status: ('A' for Active; 'I' for Inactive)
REMARK    1  A    between atoms: C_5  and  O_24
REMARK    2  A    between atoms: C_7  and  N_10
REMARK    3  A    between atoms: N_10  and  C_12
REMARK    4  A    between atoms: C_15  and  S_18
REMARK    5  A    between atoms: S_18  and  N_21
REMARK    6  A    between atoms: O_24  and  C_25
REMARK                            x       y       z     vdW  Elec       q    Type
REMARK                         _______ _______ _______ _____ _____    ______ ____
ROOT
ATOM      1  N   UNL     1      32.259 -23.140 -13.453  0.00  0.00    -0.299 NA
ATOM      2  N   UNL     1      31.199 -22.810 -15.586  0.00  0.00    -0.106 N 
ATOM      3  N   UNL     1      29.941 -22.665 -16.077  0.00  0.00    -0.139 NA
ATOM      4  N   UNL     1      29.869 -22.930 -13.817  0.00  0.00    -0.145 NA
ATOM      5  C   UNL     1      33.370 -23.137 -14.116  0.00  0.00    +0.291 C 
ATOM      6  C   UNL     1      33.553 -22.975 -15.575  0.00  0.00    +0.105 C 
ATOM      7  C   UNL     1      32.420 -22.811 -16.279  0.00  0.00    +0.142 C 
ATOM      8  C   UNL     1      31.130 -22.972 -14.198  0.00  0.00    +0.178 C 
ATOM      9  C   UNL     1      29.195 -22.744 -14.980  0.00  0.00    +0.230 C 
ENDROOT
BRANCH   7  10
ATOM     10  N   UNL     1      32.378 -22.645 -17.634  0.00  0.00    -0.299 N 
ATOM     11  H   UNL     1      31.808 -23.280 -18.126  0.00  0.00    +0.153 HD
BRANCH  10  12
ATOM     12  C   UNL     1      33.041 -21.691 -18.413  0.00  0.00    +0.049 C 
ATOM     13  C   UNL     1      34.440 -21.631 -18.423  0.00  0.00    +0.016 C 
ATOM     14  C   UNL     1      32.313 -20.783 -19.193  0.00  0.00    +0.016 C 
ATOM     15  C   UNL     1      34.368 -19.779 -19.973  0.00  0.00    +0.122 C 
ATOM     16  C   UNL     1      35.101 -20.679 -19.200  0.00  0.00    +0.021 C 
ATOM     17  C   UNL     1      32.973 -19.831 -19.969  0.00  0.00    +0.021 C 
BRANCH  15  18
ATOM     18  S   UNL     1      35.193 -18.587 -20.944  0.00  0.00    +0.057 S 
ATOM     19  O   UNL     1      36.607 -18.606 -20.590  0.00  0.00    -0.153 OA
ATOM     20  O   UNL     1      34.794 -18.763 -22.333  0.00  0.00    -0.153 OA
BRANCH  18  21
ATOM     21  N   UNL     1      34.496 -17.144 -20.352  0.00  0.00    -0.203 NA
ATOM     22  H   UNL     1      34.195 -16.565 -21.136  0.00  0.00    +0.144 HD
ATOM     23  H   UNL     1      35.186 -16.635 -19.798  0.00  0.00    +0.144 HD
ENDBRANCH  18  21
ENDBRANCH  15  18
ENDBRANCH  10  12
ENDBRANCH   7  10
BRANCH   5  24
ATOM     24  O   UNL     1      34.548 -23.297 -13.466  0.00  0.00    -0.455 OA
BRANCH  24  25
ATOM     25  C   UNL     1      34.713 -24.634 -12.997  0.00  0.00    +0.169 C 
ATOM     26  C   UNL     1      35.693 -25.383 -13.902  0.00  0.00    +0.044 C 
ATOM     27  C   UNL     1      35.205 -24.589 -11.550  0.00  0.00    +0.044 C 
ATOM     28  C   UNL     1      37.115 -24.832 -13.791  0.00  0.00    +0.004 C 
ATOM     29  C   UNL     1      36.629 -24.042 -11.442  0.00  0.00    +0.004 C 
ATOM     30  C   UNL     1      37.595 -24.806 -12.342  0.00  0.00    +0.000 C 
ENDBRANCH  24  25
ENDBRANCH   5  24
TORSDOF 6
ENDMDL
MODEL 2
REMARK VINA RESULT:     -10.3      3.696      7.301
REMARK  Name = 11574606
REMARK  6 active torsions:
REMARK  status: ('A' for Active; 'I' for Inactive)
REMARK    1  A    between atoms: C_5  and  O_24
REMARK    2  A    between atoms: C_7  and  N_10
REMARK    3  A    between atoms: N_10  and  C_12
REMARK    4  A    between atoms: C_15  and  S_18
REMARK    5  A    between atoms: S_18  and  N_21
REMARK    6  A    between atoms: O_24  and  C_25
REMARK                            x       y       z     vdW  Elec       q    Type
REMARK                         _______ _______ _______ _____ _____    ______ ____
ROOT
ATOM      1  N   UNL     1      36.351 -22.257 -15.684  0.00  0.00    -0.299 NA
ATOM      2  N   UNL     1      35.090 -23.575 -14.116  0.00  0.00    -0.106 N 
ATOM      3  N   UNL     1      35.334 -24.399 -13.064  0.00  0.00    -0.139 NA
ATOM      4  N   UNL     1      37.298 -23.614 -13.909  0.00  0.00    -0.145 NA
ATOM      5  C   UNL     1      35.201 -21.928 -16.179  0.00  0.00    +0.291 C 
ATOM      6  C   UNL     1      33.862 -22.365 -15.727  0.00  0.00    +0.105 C 
ATOM      7  C   UNL     1      33.859 -23.201 -14.675  0.00  0.00    +0.142 C 
ATOM      8  C   UNL     1      36.310 -23.106 -14.618  0.00  0.00    +0.178 C 
ATOM      9  C   UNL     1      36.661 -24.381 -12.989  0.00  0.00    +0.230 C 
ENDROOT
BRANCH   7  10
ATOM     10  N   UNL     1      32.726 -23.715 -14.110  0.00  0.00    -0.299 N 
ATOM     11  H   UNL     1      32.865 -24.324 -13.349  0.00  0.00    +0.153 HD
BRANCH  10  12
ATOM     12  C   UNL     1      31.395 -23.488 -14.474  0.00  0.00    +0.049 C 
ATOM     13  C   UNL     1      30.350 -24.042 -13.724  0.00  0.00    +0.016 C 
ATOM     14  C   UNL     1      31.090 -22.702 -15.594  0.00  0.00    +0.016 C 
ATOM     15  C   UNL     1      28.728 -23.033 -15.205  0.00  0.00    +0.122 C 
ATOM     16  C   UNL     1      29.022 -23.816 -14.088  0.00  0.00    +0.021 C 
ATOM     17  C   UNL     1      29.763 -22.477 -15.957  0.00  0.00    +0.021 C 
BRANCH  15  18
ATOM     18  S   UNL     1      27.068 -22.750 -15.661  0.00  0.00    +0.057 S 
ATOM     19  O   UNL     1      26.242 -22.835 -14.463  0.00  0.00    -0.153 OA
ATOM     20  O   UNL     1      27.012 -21.557 -16.493  0.00  0.00    -0.153 OA
BRANCH  18  21
ATOM     21  N   UNL     1      26.761 -24.116 -16.639  0.00  0.00    -0.203 NA
ATOM     22  H   UNL     1      26.898 -24.966 -16.090  0.00  0.00    +0.144 HD
ATOM     23  H   UNL     1      27.403 -24.118 -17.432  0.00  0.00    +0.144 HD
ENDBRANCH  18  21
ENDBRANCH  15  18
ENDBRANCH  10  12
ENDBRANCH   7  10
BRANCH   5  24
ATOM     24  O   UNL     1      35.136 -21.088 -17.241  0.00  0.00    -0.455 OA
BRANCH  24  25
ATOM     25  C   UNL     1      34.913 -21.795 -18.459  0.00  0.00    +0.169 C 
ATOM     26  C   UNL     1      33.427 -22.128 -18.600  0.00  0.00    +0.044 C 
ATOM     27  C   UNL     1      35.411 -20.937 -19.623  0.00  0.00    +0.044 C 
ATOM     28  C   UNL     1      32.574 -20.875 -18.802  0.00  0.00    +0.004 C 
ATOM     29  C   UNL     1      34.554 -19.688 -19.825  0.00  0.00    +0.004 C 
ATOM     30  C   UNL     1      33.076 -20.036 -19.975  0.00  0.00    +0.000 C 
ENDBRANCH  24  25
ENDBRANCH   5  24
TORSDOF 6
ENDMDL
MODEL 3
REMARK VINA RESULT:     -10.1      3.384      7.052
REMARK  Name = 11574606
REMARK  6 active torsions:
REMARK  status: ('A' for Active; 'I' for Inactive)
REMARK    1  A    between atoms: C_5  and  O_24
REMARK    2  A    between atoms: C_7  and  N_10
REMARK    3  A    between atoms: N_10  and  C_12
REMARK    4  A    between atoms: C_15  and  S_18
REMARK    5  A    between atoms: S_18  and  N_21
REMARK    6  A    between atoms: O_24  and  C_25
REMARK                            x       y       z     vdW  Elec       q    Type
REMARK                         _______ _______ _______ _____ _____    ______ ____
ROOT
ATOM      1  N   UNL     1      30.742 -22.736 -15.868  0.00  0.00    -0.299 NA
ATOM      2  N   UNL     1      31.309 -24.170 -14.023  0.00  0.00    -0.106 N 
ATOM      3  N   UNL     1      30.670 -24.991 -13.148  0.00  0.00    -0.139 NA
ATOM      4  N   UNL     1      29.165 -24.049 -14.574  0.00  0.00    -0.145 NA
ATOM      5  C   UNL     1      32.010 -22.485 -15.933  0.00  0.00    +0.291 C 
ATOM      6  C   UNL     1      33.085 -23.026 -15.073  0.00  0.00    +0.105 C 
ATOM      7  C   UNL     1      32.678 -23.879 -14.117  0.00  0.00    +0.142 C 
ATOM      8  C   UNL     1      30.365 -23.604 -14.887  0.00  0.00    +0.178 C 
ATOM      9  C   UNL     1      29.401 -24.878 -13.525  0.00  0.00    +0.230 C 
ENDROOT
BRANCH   7  10
ATOM     10  N   UNL     1      33.517 -24.484 -13.225  0.00  0.00    -0.299 N 
ATOM     11  H   UNL     1      33.096 -24.821 -12.401  0.00  0.00    +0.153 HD
BRANCH  10  12
ATOM     12  C   UNL     1      34.897 -24.687 -13.331  0.00  0.00    +0.049 C 
ATOM     13  C   UNL     1      35.790 -23.879 -12.617  0.00  0.00    +0.016 C 
ATOM     14  C   UNL     1      35.403 -25.704 -14.152  0.00  0.00    +0.016 C 
ATOM     15  C   UNL     1      37.660 -25.095 -13.543  0.00  0.00    +0.122 C 
ATOM     16  C   UNL     1      37.166 -24.082 -12.723  0.00  0.00    +0.021 C 
ATOM     17  C   UNL     1      36.778 -25.906 -14.258  0.00  0.00    +0.021 C 
BRANCH  15  18
ATOM     18  S   UNL     1      39.382 -25.349 -13.677  0.00  0.00    +0.057 S 
ATOM     19  O   UNL     1      40.055 -24.086 -13.403  0.00  0.00    -0.153 OA
ATOM     20  O   UNL     1      39.736 -26.537 -12.913  0.00  0.00    -0.153 OA
BRANCH  18  21
ATOM     21  N   UNL     1      39.531 -25.703 -15.341  0.00  0.00    -0.203 NA
ATOM     22  H   UNL     1      38.822 -25.187 -15.864  0.00  0.00    +0.144 HD
ATOM     23  H   UNL     1      39.401 -26.704 -15.490  0.00  0.00    +0.144 HD
ENDBRANCH  18  21
ENDBRANCH  15  18
ENDBRANCH  10  12
ENDBRANCH   7  10
BRANCH   5  24
ATOM     24  O   UNL     1      32.484 -21.634 -16.874  0.00  0.00    -0.455 OA
BRANCH  24  25
ATOM     25  C   UNL     1      32.615 -22.271 -18.144  0.00  0.00    +0.169 C 
ATOM     26  C   UNL     1      31.828 -21.489 -19.198  0.00  0.00    +0.044 C 
ATOM     27  C   UNL     1      34.099 -22.358 -18.499  0.00  0.00    +0.044 C 
ATOM     28  C   UNL     1      32.441 -20.115 -19.471  0.00  0.00    +0.004 C 
ATOM     29  C   UNL     1      34.708 -20.983 -18.775  0.00  0.00    +0.004 C 
ATOM     30  C   UNL     1      33.919 -20.221 -19.836  0.00  0.00    +0.000 C 
ENDBRANCH  24  25
ENDBRANCH   5  24
TORSDOF 6
ENDMDL
MODEL 4
REMARK VINA RESULT:     -10.0      2.041      4.934
REMARK  Name = 11574606
REMARK  6 active torsions:
REMARK  status: ('A' for Active; 'I' for Inactive)
REMARK    1  A    between atoms: C_5  and  O_24
REMARK    2  A    between atoms: C_7  and  N_10
REMARK    3  A    between atoms: N_10  and  C_12
REMARK    4  A    between atoms: C_15  and  S_18
REMARK    5  A    between atoms: S_18  and  N_21
REMARK    6  A    between atoms: O_24  and  C_25
REMARK                            x       y       z     vdW  Elec       q    Type
REMARK                         _______ _______ _______ _____ _____    ______ ____
ROOT
ATOM      1  N   UNL     1      32.111 -23.194 -14.378  0.00  0.00    -0.299 NA
ATOM      2  N   UNL     1      34.247 -22.822 -15.418  0.00  0.00    -0.106 N 
ATOM      3  N   UNL     1      35.556 -22.798 -15.055  0.00  0.00    -0.139 NA
ATOM      4  N   UNL     1      34.256 -23.268 -13.246  0.00  0.00    -0.145 NA
ATOM      5  C   UNL     1      31.614 -22.990 -15.555  0.00  0.00    +0.291 C 
ATOM      6  C   UNL     1      32.343 -22.678 -16.804  0.00  0.00    +0.105 C 
ATOM      7  C   UNL     1      33.680 -22.604 -16.682  0.00  0.00    +0.142 C 
ATOM      8  C   UNL     1      33.469 -23.112 -14.291  0.00  0.00    +0.178 C 
ATOM      9  C   UNL     1      35.498 -23.071 -13.756  0.00  0.00    +0.230 C 
ENDROOT
BRANCH   7  10
ATOM     10  N   UNL     1      34.528 -22.328 -17.717  0.00  0.00    -0.299 N 
ATOM     11  H   UNL     1      35.273 -22.960 -17.841  0.00  0.00    +0.153 HD
BRANCH  10  12
ATOM     12  C   UNL     1      34.475 -21.263 -18.622  0.00  0.00    +0.049 C 
ATOM     13  C   UNL     1      35.646 -20.596 -19.002  0.00  0.00    +0.016 C 
ATOM     14  C   UNL     1      33.249 -20.852 -19.162  0.00  0.00    +0.016 C 
ATOM     15  C   UNL     1      34.368 -19.131 -20.437  0.00  0.00    +0.122 C 
ATOM     16  C   UNL     1      35.593 -19.534 -19.905  0.00  0.00    +0.021 C 
ATOM     17  C   UNL     1      33.196 -19.790 -20.064  0.00  0.00    +0.021 C 
BRANCH  15  18
ATOM     18  S   UNL     1      34.300 -17.802 -21.566  0.00  0.00    +0.057 S 
ATOM     19  O   UNL     1      33.375 -18.154 -22.635  0.00  0.00    -0.153 OA
ATOM     20  O   UNL     1      34.104 -16.568 -20.819  0.00  0.00    -0.153 OA
BRANCH  18  21
ATOM     21  N   UNL     1      35.892 -17.820 -22.186  0.00  0.00    -0.203 NA
ATOM     22  H   UNL     1      35.876 -17.559 -23.173  0.00  0.00    +0.144 HD
ATOM     23  H   UNL     1      36.284 -18.757 -22.089  0.00  0.00    +0.144 HD
ENDBRANCH  18  21
ENDBRANCH  15  18
ENDBRANCH  10  12
ENDBRANCH   7  10
BRANCH   5  24
ATOM     24  O   UNL     1      30.274 -23.050 -15.745  0.00  0.00    -0.455 OA
BRANCH  24  25
ATOM     25  C   UNL     1      29.597 -23.517 -14.579  0.00  0.00    +0.169 C 
ATOM     26  C   UNL     1      28.902 -22.348 -13.879  0.00  0.00    +0.044 C 
ATOM     27  C   UNL     1      28.599 -24.599 -14.993  0.00  0.00    +0.044 C 
ATOM     28  C   UNL     1      27.748 -21.784 -14.710  0.00  0.00    +0.004 C 
ATOM     29  C   UNL     1      27.444 -24.032 -15.818  0.00  0.00    +0.004 C 
ATOM     30  C   UNL     1      26.755 -22.875 -15.103  0.00  0.00    +0.000 C 
ENDBRANCH  24  25
ENDBRANCH   5  24
TORSDOF 6
ENDMDL
MODEL 5
REMARK VINA RESULT:      -9.7      3.936      7.041
REMARK  Name = 11574606
REMARK  6 active torsions:
REMARK  status: ('A' for Active; 'I' for Inactive)
REMARK    1  A    between atoms: C_5  and  O_24
REMARK    2  A    between atoms: C_7  and  N_10
REMARK    3  A    between atoms: N_10  and  C_12
REMARK    4  A    between atoms: C_15  and  S_18
REMARK    5  A    between atoms: S_18  and  N_21
REMARK    6  A    between atoms: O_24  and  C_25
REMARK                            x       y       z     vdW  Elec       q    Type
REMARK                         _______ _______ _______ _____ _____    ______ ____
ROOT
ATOM      1  N   UNL     1      36.043 -23.540 -13.608  0.00  0.00    -0.299 NA
ATOM      2  N   UNL     1      34.270 -24.204 -12.126  0.00  0.00    -0.106 N 
ATOM      3  N   UNL     1      34.128 -24.598 -10.832  0.00  0.00    -0.139 NA
ATOM      4  N   UNL     1      36.321 -24.175 -11.283  0.00  0.00    -0.145 NA
ATOM      5  C   UNL     1      35.113 -23.406 -14.499  0.00  0.00    +0.291 C 
ATOM      6  C   UNL     1      33.663 -23.646 -14.336  0.00  0.00    +0.105 C 
ATOM      7  C   UNL     1      33.284 -24.050 -13.112  0.00  0.00    +0.142 C 
ATOM      8  C   UNL     1      35.623 -23.951 -12.378  0.00  0.00    +0.178 C 
ATOM      9  C   UNL     1      35.379 -24.560 -10.384  0.00  0.00    +0.230 C 
ENDROOT
BRANCH   7  10
ATOM     10  N   UNL     1      31.992 -24.323 -12.762  0.00  0.00    -0.299 N 
ATOM     11  H   UNL     1      31.872 -24.854 -11.941  0.00  0.00    +0.153 HD
BRANCH  10  12
ATOM     12  C   UNL     1      30.816 -23.948 -13.420  0.00  0.00    +0.049 C 
ATOM     13  C   UNL     1      30.669 -22.649 -13.924  0.00  0.00    +0.016 C 
ATOM     14  C   UNL     1      29.772 -24.867 -13.586  0.00  0.00    +0.016 C 
ATOM     15  C   UNL     1      28.461 -23.196 -14.740  0.00  0.00    +0.122 C 
ATOM     16  C   UNL     1      29.496 -22.275 -14.581  0.00  0.00    +0.021 C 
ATOM     17  C   UNL     1      28.600 -24.492 -14.242  0.00  0.00    +0.021 C 
BRANCH  15  18
ATOM     18  S   UNL     1      26.994 -22.729 -15.561  0.00  0.00    +0.057 S 
ATOM     19  O   UNL     1      25.920 -22.658 -14.578  0.00  0.00    -0.153 OA
ATOM     20  O   UNL     1      27.281 -21.576 -16.402  0.00  0.00    -0.153 OA
BRANCH  18  21
ATOM     21  N   UNL     1      26.734 -24.088 -16.563  0.00  0.00    -0.203 NA
ATOM     22  H   UNL     1      25.977 -24.654 -16.179  0.00  0.00    +0.144 HD
ATOM     23  H   UNL     1      27.587 -24.646 -16.607  0.00  0.00    +0.144 HD
ENDBRANCH  18  21
ENDBRANCH  15  18
ENDBRANCH  10  12
ENDBRANCH   7  10
BRANCH   5  24
ATOM     24  O   UNL     1      35.429 -23.002 -15.753  0.00  0.00    -0.455 OA
BRANCH  24  25
ATOM     25  C   UNL     1      34.919 -21.700 -16.032  0.00  0.00    +0.169 C 
ATOM     26  C   UNL     1      35.882 -20.954 -16.957  0.00  0.00    +0.044 C 
ATOM     27  C   UNL     1      33.532 -21.840 -16.658  0.00  0.00    +0.044 C 
ATOM     28  C   UNL     1      35.937 -21.577 -18.353  0.00  0.00    +0.004 C 
ATOM     29  C   UNL     1      33.589 -22.458 -18.055  0.00  0.00    +0.004 C 
ATOM     30  C   UNL     1      34.545 -21.698 -18.969  0.00  0.00    +0.000 C 
ENDBRANCH  24  25
ENDBRANCH   5  24
TORSDOF 6
ENDMDL
MODEL 6
REMARK VINA RESULT:      -9.3      3.242      8.426
REMARK  Name = 11574606
REMARK  6 active torsions:
REMARK  status: ('A' for Active; 'I' for Inactive)
REMARK    1  A    between atoms: C_5  and  O_24
REMARK    2  A    between atoms: C_7  and  N_10
REMARK    3  A    between atoms: N_10  and  C_12
REMARK    4  A    between atoms: C_15  and  S_18
REMARK    5  A    between atoms: S_18  and  N_21
REMARK    6  A    between atoms: O_24  and  C_25
REMARK                            x       y       z     vdW  Elec       q    Type
REMARK                         _______ _______ _______ _____ _____    ______ ____
ROOT
ATOM      1  N   UNL     1      33.310 -21.236 -18.985  0.00  0.00    -0.299 NA
ATOM      2  N   UNL     1      34.159 -22.253 -16.977  0.00  0.00    -0.106 N 
ATOM      3  N   UNL     1      33.697 -23.040 -15.970  0.00  0.00    -0.139 NA
ATOM      4  N   UNL     1      32.025 -22.616 -17.457  0.00  0.00    -0.145 NA
ATOM      5  C   UNL     1      34.507 -20.766 -19.134  0.00  0.00    +0.291 C 
ATOM      6  C   UNL     1      35.674 -20.965 -18.247  0.00  0.00    +0.105 C 
ATOM      7  C   UNL     1      35.447 -21.728 -17.165  0.00  0.00    +0.142 C 
ATOM      8  C   UNL     1      33.115 -22.006 -17.877  0.00  0.00    +0.178 C 
ATOM      9  C   UNL     1      32.426 -23.223 -16.311  0.00  0.00    +0.230 C 
ENDROOT
BRANCH   7  10
ATOM     10  N   UNL     1      36.395 -22.029 -16.228  0.00  0.00    -0.299 N 
ATOM     11  H   UNL     1      37.317 -21.766 -16.451  0.00  0.00    +0.153 HD
BRANCH  10  12
ATOM     12  C   UNL     1      36.224 -22.664 -14.993  0.00  0.00    +0.049 C 
ATOM     13  C   UNL     1      36.944 -23.826 -14.687  0.00  0.00    +0.016 C 
ATOM     14  C   UNL     1      35.330 -22.145 -14.046  0.00  0.00    +0.016 C 
ATOM     15  C   UNL     1      35.881 -23.935 -12.519  0.00  0.00    +0.122 C 
ATOM     16  C   UNL     1      36.773 -24.458 -13.455  0.00  0.00    +0.021 C 
ATOM     17  C   UNL     1      35.160 -22.778 -12.816  0.00  0.00    +0.021 C 
BRANCH  15  18
ATOM     18  S   UNL     1      35.666 -24.726 -10.979  0.00  0.00    +0.057 S 
ATOM     19  O   UNL     1      36.055 -26.123 -11.122  0.00  0.00    -0.153 OA
ATOM     20  O   UNL     1      36.284 -23.906  -9.946  0.00  0.00    -0.153 OA
BRANCH  18  21
ATOM     21  N   UNL     1      33.969 -24.642 -10.803  0.00  0.00    -0.203 NA
ATOM     22  H   UNL     1      33.680 -23.665 -10.752  0.00  0.00    +0.144 HD
ATOM     23  H   UNL     1      33.691 -25.124  -9.948  0.00  0.00    +0.144 HD
ENDBRANCH  18  21
ENDBRANCH  15  18
ENDBRANCH  10  12
ENDBRANCH   7  10
BRANCH   5  24
ATOM     24  O   UNL     1      34.801 -19.989 -20.203  0.00  0.00    -0.455 OA
BRANCH  24  25
ATOM     25  C   UNL     1      33.801 -18.996 -20.425  0.00  0.00    +0.169 C 
ATOM     26  C   UNL     1      34.449 -17.611 -20.476  0.00  0.00    +0.044 C 
ATOM     27  C   UNL     1      33.065 -19.322 -21.724  0.00  0.00    +0.044 C 
ATOM     28  C   UNL     1      35.341 -17.439 -21.706  0.00  0.00    +0.004 C 
ATOM     29  C   UNL     1      33.958 -19.144 -22.952  0.00  0.00    +0.004 C 
ATOM     30  C   UNL     1      34.588 -17.756 -22.995  0.00  0.00    +0.000 C 
ENDBRANCH  24  25
ENDBRANCH   5  24
TORSDOF 6
ENDMDL
MODEL 7
REMARK VINA RESULT:      -9.2      3.406      8.827
REMARK  Name = 11574606
REMARK  6 active torsions:
REMARK  status: ('A' for Active; 'I' for Inactive)
REMARK    1  A    between atoms: C_5  and  O_24
REMARK    2  A    between atoms: C_7  and  N_10
REMARK    3  A    between atoms: N_10  and  C_12
REMARK    4  A    between atoms: C_15  and  S_18
REMARK    5  A    between atoms: S_18  and  N_21
REMARK    6  A    between atoms: O_24  and  C_25
REMARK                            x       y       z     vdW  Elec       q    Type
REMARK                         _______ _______ _______ _____ _____    ______ ____
ROOT
ATOM      1  N   UNL     1      34.940 -19.674 -19.570  0.00  0.00    -0.299 NA
ATOM      2  N   UNL     1      34.230 -21.409 -18.063  0.00  0.00    -0.106 N 
ATOM      3  N   UNL     1      34.748 -22.125 -17.030  0.00  0.00    -0.139 NA
ATOM      4  N   UNL     1      36.301 -20.657 -17.818  0.00  0.00    -0.145 NA
ATOM      5  C   UNL     1      33.752 -19.765 -20.076  0.00  0.00    +0.291 C 
ATOM      6  C   UNL     1      32.658 -20.670 -19.660  0.00  0.00    +0.105 C 
ATOM      7  C   UNL     1      32.950 -21.486 -18.633  0.00  0.00    +0.142 C 
ATOM      8  C   UNL     1      35.201 -20.516 -18.529  0.00  0.00    +0.178 C 
ATOM      9  C   UNL     1      35.979 -21.633 -16.931  0.00  0.00    +0.230 C 
ENDROOT
BRANCH   7  10
ATOM     10  N   UNL     1      32.075 -22.392 -18.103  0.00  0.00    -0.299 N 
ATOM     11  H   UNL     1      31.528 -22.890 -18.752  0.00  0.00    +0.153 HD
BRANCH  10  12
ATOM     12  C   UNL     1      31.857 -22.702 -16.756  0.00  0.00    +0.049 C 
ATOM     13  C   UNL     1      30.646 -22.368 -16.139  0.00  0.00    +0.016 C 
ATOM     14  C   UNL     1      32.848 -23.353 -16.009  0.00  0.00    +0.016 C 
ATOM     15  C   UNL     1      31.421 -23.325 -14.060  0.00  0.00    +0.122 C 
ATOM     16  C   UNL     1      30.428 -22.678 -14.796  0.00  0.00    +0.021 C 
ATOM     17  C   UNL     1      32.630 -23.662 -14.667  0.00  0.00    +0.021 C 
BRANCH  15  18
ATOM     18  S   UNL     1      31.150 -23.713 -12.379  0.00  0.00    +0.057 S 
ATOM     19  O   UNL     1      31.028 -22.466 -11.635  0.00  0.00    -0.153 OA
ATOM     20  O   UNL     1      30.091 -24.709 -12.298  0.00  0.00    -0.153 OA
BRANCH  18  21
ATOM     21  N   UNL     1      32.634 -24.455 -11.973  0.00  0.00    -0.203 NA
ATOM     22  H   UNL     1      32.460 -25.243 -11.348  0.00  0.00    +0.144 HD
ATOM     23  H   UNL     1      33.237 -23.777 -11.506  0.00  0.00    +0.144 HD
ENDBRANCH  18  21
ENDBRANCH  15  18
ENDBRANCH  10  12
ENDBRANCH   7  10
BRANCH   5  24
ATOM     24  O   UNL     1      33.395 -18.971 -21.113  0.00  0.00    -0.455 OA
BRANCH  24  25
ATOM     25  C   UNL     1      34.436 -18.872 -22.084  0.00  0.00    +0.169 C 
ATOM     26  C   UNL     1      33.887 -19.218 -23.469  0.00  0.00    +0.044 C 
ATOM     27  C   UNL     1      35.011 -17.456 -22.044  0.00  0.00    +0.044 C 
ATOM     28  C   UNL     1      32.888 -18.173 -23.970  0.00  0.00    +0.004 C 
ATOM     29  C   UNL     1      34.013 -16.414 -22.549  0.00  0.00    +0.004 C 
ATOM     30  C   UNL     1      33.482 -16.767 -23.935  0.00  0.00    +0.000 C 
ENDBRANCH  24  25
ENDBRANCH   5  24
TORSDOF 6
ENDMDL
MODEL 8
REMARK VINA RESULT:      -8.8      3.381      7.188
REMARK  Name = 11574606
REMARK  6 active torsions:
REMARK  status: ('A' for Active; 'I' for Inactive)
REMARK    1  A    between atoms: C_5  and  O_24
REMARK    2  A    between atoms: C_7  and  N_10
REMARK    3  A    between atoms: N_10  and  C_12
REMARK    4  A    between atoms: C_15  and  S_18
REMARK    5  A    between atoms: S_18  and  N_21
REMARK    6  A    between atoms: O_24  and  C_25
REMARK                            x       y       z     vdW  Elec       q    Type
REMARK                         _______ _______ _______ _____ _____    ______ ____
ROOT
ATOM      1  N   UNL     1      29.995 -22.018 -16.675  0.00  0.00    -0.299 NA
ATOM      2  N   UNL     1      29.922 -23.551 -14.823  0.00  0.00    -0.106 N 
ATOM      3  N   UNL     1      28.985 -24.237 -14.116  0.00  0.00    -0.139 NA
ATOM      4  N   UNL     1      27.982 -23.007 -15.749  0.00  0.00    -0.145 NA
ATOM      5  C   UNL     1      31.278 -22.021 -16.497  0.00  0.00    +0.291 C 
ATOM      6  C   UNL     1      32.049 -22.770 -15.481  0.00  0.00    +0.105 C 
ATOM      7  C   UNL     1      31.314 -23.534 -14.654  0.00  0.00    +0.142 C 
ATOM      8  C   UNL     1      29.282 -22.804 -15.819  0.00  0.00    +0.178 C 
ATOM      9  C   UNL     1      27.854 -23.874 -14.713  0.00  0.00    +0.230 C 
ENDROOT
BRANCH   7  10
ATOM     10  N   UNL     1      31.839 -24.299 -13.651  0.00  0.00    -0.299 N 
ATOM     11  H   UNL     1      31.207 -24.900 -13.195  0.00  0.00    +0.153 HD
BRANCH  10  12
ATOM     12  C   UNL     1      33.159 -24.339 -13.190  0.00  0.00    +0.049 C 
ATOM     13  C   UNL     1      33.480 -23.854 -11.916  0.00  0.00    +0.016 C 
ATOM     14  C   UNL     1      34.176 -24.867 -13.996  0.00  0.00    +0.016 C 
ATOM     15  C   UNL     1      35.803 -24.420 -12.266  0.00  0.00    +0.122 C 
ATOM     16  C   UNL     1      34.797 -23.894 -11.456  0.00  0.00    +0.021 C 
ATOM     17  C   UNL     1      35.492 -24.906 -13.536  0.00  0.00    +0.021 C 
BRANCH  15  18
ATOM     18  S   UNL     1      37.450 -24.469 -11.692  0.00  0.00    +0.057 S 
ATOM     19  O   UNL     1      37.579 -25.585 -10.763  0.00  0.00    -0.153 OA
ATOM     20  O   UNL     1      38.344 -24.375 -12.837  0.00  0.00    -0.153 OA
BRANCH  18  21
ATOM     21  N   UNL     1      37.532 -23.007 -10.811  0.00  0.00    -0.203 NA
ATOM     22  H   UNL     1      37.176 -22.243 -11.387  0.00  0.00    +0.144 HD
ATOM     23  H   UNL     1      38.501 -22.817 -10.556  0.00  0.00    +0.144 HD
ENDBRANCH  18  21
ENDBRANCH  15  18
ENDBRANCH  10  12
ENDBRANCH   7  10
BRANCH   5  24
ATOM     24  O   UNL     1      32.074 -21.272 -17.297  0.00  0.00    -0.455 OA
BRANCH  24  25
ATOM     25  C   UNL     1      32.252 -21.875 -18.577  0.00  0.00    +0.169 C 
ATOM     26  C   UNL     1      32.023 -20.835 -19.676  0.00  0.00    +0.044 C 
ATOM     27  C   UNL     1      33.658 -22.470 -18.648  0.00  0.00    +0.044 C 
ATOM     28  C   UNL     1      33.108 -19.757 -19.682  0.00  0.00    +0.004 C 
ATOM     29  C   UNL     1      34.741 -21.390 -18.659  0.00  0.00    +0.004 C 
ATOM     30  C   UNL     1      34.505 -20.367 -19.766  0.00  0.00    +0.000 C 
ENDBRANCH  24  25
ENDBRANCH   5  24
TORSDOF 6
ENDMDL
