MODEL 1
REMARK VINA RESULT:     -11.3      0.000      0.000
REMARK  Name = 447653
REMARK  8 active torsions:
REMARK  status: ('A' for Active; 'I' for Inactive)
REMARK    1  A    between atoms: N_2  and  C_20
REMARK    2  A    between atoms: C_4  and  C_11
REMARK    3  A    between atoms: C_19  and  O_25
REMARK    4  A    between atoms: O_25  and  C_26
REMARK    5  A    between atoms: C_26  and  C_27
REMARK    6  A    between atoms: C_27  and  O_28
REMARK    7  A    between atoms: C_27  and  C_30
REMARK    8  A    between atoms: C_30  and  N_31
REMARK                            x       y       z     vdW  Elec       q    Type
REMARK                         _______ _______ _______ _____ _____    ______ ____
ROOT
ATOM      1  N   UNL     1      33.541 -22.710 -15.974  0.00  0.00    -0.340 NA
ATOM      2  N   UNL     1      31.772 -22.025 -17.355  0.00  0.00    -0.247 N 
ATOM      3  N   UNL     1      31.256 -23.224 -15.405  0.00  0.00    -0.170 NA
ATOM      4  C   UNL     1      33.919 -23.350 -14.851  0.00  0.00    +0.148 C 
ATOM      5  C   UNL     1      33.047 -23.943 -13.967  0.00  0.00    +0.052 C 
ATOM      6  C   UNL     1      32.210 -22.685 -16.187  0.00  0.00    +0.148 C 
ATOM      7  C   UNL     1      31.711 -23.848 -14.299  0.00  0.00    +0.114 C 
ATOM      8  H   UNL     1      30.793 -22.031 -17.469  0.00  0.00    +0.165 HD
ENDROOT
BRANCH   4  11
ATOM      9  N   UNL     1      35.994 -24.279 -13.825  0.00  0.00    -0.251 N 
ATOM     10  N   UNL     1      37.570 -22.927 -14.656  0.00  0.00    -0.393 NA
ATOM     11  C   UNL     1      35.346 -23.374 -14.626  0.00  0.00    +0.181 C 
ATOM     12  C   UNL     1      37.350 -23.965 -13.875  0.00  0.00    +0.187 C 
ATOM     13  C   UNL     1      36.334 -22.557 -15.124  0.00  0.00    +0.114 C 
ATOM     14  C   UNL     1      35.474 -25.332 -13.077  0.00  0.00    +0.068 C 
ATOM     15  C   UNL     1      38.232 -24.782 -13.108  0.00  0.00    +0.048 C 
ATOM     16  C   UNL     1      36.205 -21.411 -16.039  0.00  0.00    +0.064 C 
ATOM     17  C   UNL     1      36.312 -26.096 -12.357  0.00  0.00    +0.016 C 
ATOM     18  C   UNL     1      37.736 -25.801 -12.382  0.00  0.00    +0.005 C 
ENDBRANCH   4  11
BRANCH   2  20
ATOM     19  C   UNL     1      33.816 -20.032 -20.435  0.00  0.00    +0.139 C 
ATOM     20  C   UNL     1      32.457 -21.358 -18.387  0.00  0.00    +0.058 C 
ATOM     21  C   UNL     1      34.504 -20.906 -19.593  0.00  0.00    +0.038 C 
ATOM     22  C   UNL     1      32.450 -19.820 -20.254  0.00  0.00    +0.038 C 
ATOM     23  C   UNL     1      33.825 -21.568 -18.570  0.00  0.00    +0.018 C 
ATOM     24  C   UNL     1      31.771 -20.482 -19.231  0.00  0.00    +0.018 C 
BRANCH  19  25
ATOM     25  O   UNL     1      34.480 -19.386 -21.434  0.00  0.00    -0.473 OA
BRANCH  25  26
ATOM     26  C   UNL     1      33.689 -18.667 -22.378  0.00  0.00    +0.232 C 
BRANCH  26  27
ATOM     27  C   UNL     1      34.140 -17.209 -22.390  0.00  0.00    +0.133 C 
BRANCH  27  28
ATOM     28  O   UNL     1      35.547 -17.162 -22.135  0.00  0.00    -0.383 OA
ATOM     29  H   UNL     1      35.917 -18.056 -22.198  0.00  0.00    +0.210 HD
ENDBRANCH  27  28
BRANCH  27  30
ATOM     30  C   UNL     1      33.873 -16.503 -23.721  0.00  0.00    -0.044 C 
BRANCH  30  31
ATOM     31  N   UNL     1      33.041 -15.318 -23.556  0.00  0.00    +0.386 N 
ATOM     32  C   UNL     1      33.732 -14.312 -22.745  0.00  0.00    -0.101 C 
ATOM     33  C   UNL     1      32.677 -14.756 -24.858  0.00  0.00    -0.101 C 
ATOM     34  H   UNL     1      32.189 -15.595 -23.071  0.00  0.00    -0.080 HD
ENDBRANCH  30  31
ENDBRANCH  27  30
ENDBRANCH  26  27
ENDBRANCH  25  26
ENDBRANCH  19  25
ENDBRANCH   2  20
TORSDOF 8
ENDMDL
MODEL 2
REMARK VINA RESULT:     -11.2      1.349      1.753
REMARK  Name = 447653
REMARK  8 active torsions:
REMARK  status: ('A' for Active; 'I' for Inactive)
REMARK    1  A    between atoms: N_2  and  C_20
REMARK    2  A    between atoms: C_4  and  C_11
REMARK    3  A    between atoms: C_19  and  O_25
REMARK    4  A    between atoms: O_25  and  C_26
REMARK    5  A    between atoms: C_26  and  C_27
REMARK    6  A    between atoms: C_27  and  O_28
REMARK    7  A    between atoms: C_27  and  C_30
REMARK    8  A    between atoms: C_30  and  N_31
REMARK                            x       y       z     vdW  Elec       q    Type
REMARK                         _______ _______ _______ _____ _____    ______ ____
ROOT
ATOM      1  N   UNL     1      33.081 -22.528 -15.798  0.00  0.00    -0.340 NA
ATOM      2  N   UNL     1      31.656 -22.035 -17.596  0.00  0.00    -0.247 N 
ATOM      3  N   UNL     1      30.775 -23.230 -15.779  0.00  0.00    -0.170 NA
ATOM      4  C   UNL     1      33.222 -23.105 -14.589  0.00  0.00    +0.148 C 
ATOM      5  C   UNL     1      32.210 -23.752 -13.918  0.00  0.00    +0.052 C 
ATOM      6  C   UNL     1      31.846 -22.626 -16.329  0.00  0.00    +0.148 C 
ATOM      7  C   UNL     1      30.993 -23.784 -14.569  0.00  0.00    +0.114 C 
ATOM      8  H   UNL     1      30.740 -22.130 -17.944  0.00  0.00    +0.165 HD
ENDROOT
BRANCH   4  11
ATOM      9  N   UNL     1      34.884 -23.377 -12.750  0.00  0.00    -0.251 N 
ATOM     10  N   UNL     1      36.755 -22.597 -13.694  0.00  0.00    -0.393 NA
ATOM     11  C   UNL     1      34.547 -22.997 -14.023  0.00  0.00    +0.181 C 
ATOM     12  C   UNL     1      36.243 -23.112 -12.596  0.00  0.00    +0.187 C 
ATOM     13  C   UNL     1      35.711 -22.523 -14.581  0.00  0.00    +0.114 C 
ATOM     14  C   UNL     1      34.088 -23.925 -11.748  0.00  0.00    +0.068 C 
ATOM     15  C   UNL     1      36.825 -23.430 -11.333  0.00  0.00    +0.048 C 
ATOM     16  C   UNL     1      35.929 -21.984 -15.933  0.00  0.00    +0.064 C 
ATOM     17  C   UNL     1      34.644 -24.222 -10.562  0.00  0.00    +0.016 C 
ATOM     18  C   UNL     1      36.060 -23.961 -10.361  0.00  0.00    +0.005 C 
ENDBRANCH   4  11
BRANCH   2  20
ATOM     19  C   UNL     1      34.232 -19.945 -20.173  0.00  0.00    +0.139 C 
ATOM     20  C   UNL     1      32.519 -21.334 -18.459  0.00  0.00    +0.058 C 
ATOM     21  C   UNL     1      32.860 -19.690 -20.200  0.00  0.00    +0.038 C 
ATOM     22  C   UNL     1      34.747 -20.894 -19.291  0.00  0.00    +0.038 C 
ATOM     23  C   UNL     1      32.005 -20.384 -19.343  0.00  0.00    +0.018 C 
ATOM     24  C   UNL     1      33.892 -21.588 -18.435  0.00  0.00    +0.018 C 
BRANCH  19  25
ATOM     25  O   UNL     1      35.066 -19.267 -21.009  0.00  0.00    -0.473 OA
BRANCH  25  26
ATOM     26  C   UNL     1      35.141 -17.852 -20.844  0.00  0.00    +0.232 C 
BRANCH  26  27
ATOM     27  C   UNL     1      34.805 -17.182 -22.173  0.00  0.00    +0.133 C 
BRANCH  27  28
ATOM     28  O   UNL     1      34.239 -18.160 -23.050  0.00  0.00    -0.383 OA
ATOM     29  H   UNL     1      34.068 -17.758 -23.916  0.00  0.00    +0.210 HD
ENDBRANCH  27  28
BRANCH  27  30
ATOM     30  C   UNL     1      33.807 -16.030 -22.036  0.00  0.00    -0.044 C 
BRANCH  30  31
ATOM     31  N   UNL     1      34.064 -14.965 -22.996  0.00  0.00    +0.386 N 
ATOM     32  C   UNL     1      33.347 -15.215 -24.248  0.00  0.00    -0.101 C 
ATOM     33  C   UNL     1      33.678 -13.666 -22.443  0.00  0.00    -0.101 C 
ATOM     34  H   UNL     1      35.065 -14.951 -23.193  0.00  0.00    -0.080 HD
ENDBRANCH  30  31
ENDBRANCH  27  30
ENDBRANCH  26  27
ENDBRANCH  25  26
ENDBRANCH  19  25
ENDBRANCH   2  20
TORSDOF 8
ENDMDL
MODEL 3
REMARK VINA RESULT:     -10.3      1.897      4.073
REMARK  Name = 447653
REMARK  8 active torsions:
REMARK  status: ('A' for Active; 'I' for Inactive)
REMARK    1  A    between atoms: N_2  and  C_20
REMARK    2  A    between atoms: C_4  and  C_11
REMARK    3  A    between atoms: C_19  and  O_25
REMARK    4  A    between atoms: O_25  and  C_26
REMARK    5  A    between atoms: C_26  and  C_27
REMARK    6  A    between atoms: C_27  and  O_28
REMARK    7  A    between atoms: C_27  and  C_30
REMARK    8  A    between atoms: C_30  and  N_31
REMARK                            x       y       z     vdW  Elec       q    Type
REMARK                         _______ _______ _______ _____ _____    ______ ____
ROOT
ATOM      1  N   UNL     1      34.276 -21.825 -16.815  0.00  0.00    -0.340 NA
ATOM      2  N   UNL     1      36.062 -20.860 -17.992  0.00  0.00    -0.247 N 
ATOM      3  N   UNL     1      36.545 -22.072 -16.041  0.00  0.00    -0.170 NA
ATOM      4  C   UNL     1      33.881 -22.557 -15.756  0.00  0.00    +0.148 C 
ATOM      5  C   UNL     1      34.736 -23.074 -14.810  0.00  0.00    +0.052 C 
ATOM      6  C   UNL     1      35.606 -21.623 -16.896  0.00  0.00    +0.148 C 
ATOM      7  C   UNL     1      36.074 -22.796 -15.006  0.00  0.00    +0.114 C 
ATOM      8  H   UNL     1      37.039 -20.739 -18.011  0.00  0.00    +0.165 HD
ENDROOT
BRANCH   4  11
ATOM      9  N   UNL     1      31.821 -23.422 -14.646  0.00  0.00    -0.251 N 
ATOM     10  N   UNL     1      30.223 -22.803 -16.082  0.00  0.00    -0.393 NA
ATOM     11  C   UNL     1      32.454 -22.771 -15.674  0.00  0.00    +0.181 C 
ATOM     12  C   UNL     1      30.461 -23.416 -14.941  0.00  0.00    +0.187 C 
ATOM     13  C   UNL     1      31.453 -22.401 -16.540  0.00  0.00    +0.114 C 
ATOM     14  C   UNL     1      32.359 -24.003 -13.500  0.00  0.00    +0.068 C 
ATOM     15  C   UNL     1      29.592 -24.047 -14.002  0.00  0.00    +0.048 C 
ATOM     16  C   UNL     1      31.562 -21.672 -17.814  0.00  0.00    +0.064 C 
ATOM     17  C   UNL     1      31.535 -24.594 -12.621  0.00  0.00    +0.016 C 
ATOM     18  C   UNL     1      30.106 -24.610 -12.892  0.00  0.00    +0.005 C 
ENDBRANCH   4  11
BRANCH   2  20
ATOM     19  C   UNL     1      34.069 -19.007 -21.192  0.00  0.00    +0.139 C 
ATOM     20  C   UNL     1      35.395 -20.239 -19.065  0.00  0.00    +0.058 C 
ATOM     21  C   UNL     1      35.394 -18.674 -20.908  0.00  0.00    +0.038 C 
ATOM     22  C   UNL     1      33.407 -19.955 -20.412  0.00  0.00    +0.038 C 
ATOM     23  C   UNL     1      36.056 -19.290 -19.846  0.00  0.00    +0.018 C 
ATOM     24  C   UNL     1      34.068 -20.570 -19.350  0.00  0.00    +0.018 C 
BRANCH  19  25
ATOM     25  O   UNL     1      33.424 -18.406 -22.229  0.00  0.00    -0.473 OA
BRANCH  25  26
ATOM     26  C   UNL     1      34.218 -17.629 -23.124  0.00  0.00    +0.232 C 
BRANCH  26  27
ATOM     27  C   UNL     1      33.800 -16.165 -23.010  0.00  0.00    +0.133 C 
BRANCH  27  28
ATOM     28  O   UNL     1      34.976 -15.354 -22.965  0.00  0.00    -0.383 OA
ATOM     29  H   UNL     1      35.593 -15.639 -23.657  0.00  0.00    +0.210 HD
ENDBRANCH  27  28
BRANCH  27  30
ATOM     30  C   UNL     1      32.936 -15.689 -24.180  0.00  0.00    -0.044 C 
BRANCH  30  31
ATOM     31  N   UNL     1      32.970 -14.241 -24.332  0.00  0.00    +0.386 N 
ATOM     32  C   UNL     1      32.424 -13.846 -25.632  0.00  0.00    -0.101 C 
ATOM     33  C   UNL     1      32.226 -13.591 -23.252  0.00  0.00    -0.101 C 
ATOM     34  H   UNL     1      33.943 -13.941 -24.284  0.00  0.00    -0.080 HD
ENDBRANCH  30  31
ENDBRANCH  27  30
ENDBRANCH  26  27
ENDBRANCH  25  26
ENDBRANCH  19  25
ENDBRANCH   2  20
TORSDOF 8
ENDMDL
MODEL 4
REMARK VINA RESULT:     -10.2      1.634      2.213
REMARK  Name = 447653
REMARK  8 active torsions:
REMARK  status: ('A' for Active; 'I' for Inactive)
REMARK    1  A    between atoms: N_2  and  C_20
REMARK    2  A    between atoms: C_4  and  C_11
REMARK    3  A    between atoms: C_19  and  O_25
REMARK    4  A    between atoms: O_25  and  C_26
REMARK    5  A    between atoms: C_26  and  C_27
REMARK    6  A    between atoms: C_27  and  O_28
REMARK    7  A    between atoms: C_27  and  C_30
REMARK    8  A    between atoms: C_30  and  N_31
REMARK                            x       y       z     vdW  Elec       q    Type
REMARK                         _______ _______ _______ _____ _____    ______ ____
ROOT
ATOM      1  N   UNL     1      33.097 -23.684 -14.797  0.00  0.00    -0.340 NA
ATOM      2  N   UNL     1      31.507 -22.640 -16.171  0.00  0.00    -0.247 N 
ATOM      3  N   UNL     1      30.745 -23.813 -14.286  0.00  0.00    -0.170 NA
ATOM      4  C   UNL     1      33.332 -24.427 -13.699  0.00  0.00    +0.148 C 
ATOM      5  C   UNL     1      32.350 -24.895 -12.856  0.00  0.00    +0.052 C 
ATOM      6  C   UNL     1      31.797 -23.417 -15.028  0.00  0.00    +0.148 C 
ATOM      7  C   UNL     1      31.059 -24.553 -13.204  0.00  0.00    +0.114 C 
ATOM      8  H   UNL     1      30.546 -22.470 -16.300  0.00  0.00    +0.165 HD
ENDROOT
BRANCH   4  11
ATOM      9  N   UNL     1      35.500 -24.077 -12.514  0.00  0.00    -0.251 N 
ATOM     10  N   UNL     1      36.827 -25.569 -13.521  0.00  0.00    -0.393 NA
ATOM     11  C   UNL     1      34.728 -24.712 -13.454  0.00  0.00    +0.181 C 
ATOM     12  C   UNL     1      36.773 -24.635 -12.594  0.00  0.00    +0.187 C 
ATOM     13  C   UNL     1      35.564 -25.622 -14.057  0.00  0.00    +0.114 C 
ATOM     14  C   UNL     1      35.156 -23.067 -11.620  0.00  0.00    +0.068 C 
ATOM     15  C   UNL     1      37.760 -24.126 -11.700  0.00  0.00    +0.048 C 
ATOM     16  C   UNL     1      35.261 -26.573 -15.138  0.00  0.00    +0.064 C 
ATOM     17  C   UNL     1      36.091 -22.593 -10.781  0.00  0.00    +0.016 C 
ATOM     18  C   UNL     1      37.434 -23.149 -10.833  0.00  0.00    +0.005 C 
ENDBRANCH   4  11
BRANCH   2  20
ATOM     19  C   UNL     1      33.938 -20.909 -19.126  0.00  0.00    +0.139 C 
ATOM     20  C   UNL     1      32.322 -22.061 -17.161  0.00  0.00    +0.058 C 
ATOM     21  C   UNL     1      34.515 -21.646 -18.092  0.00  0.00    +0.038 C 
ATOM     22  C   UNL     1      32.554 -20.746 -19.178  0.00  0.00    +0.038 C 
ATOM     23  C   UNL     1      33.708 -22.222 -17.111  0.00  0.00    +0.018 C 
ATOM     24  C   UNL     1      31.747 -21.321 -18.197  0.00  0.00    +0.018 C 
BRANCH  19  25
ATOM     25  O   UNL     1      34.726 -20.347 -20.084  0.00  0.00    -0.473 OA
BRANCH  25  26
ATOM     26  C   UNL     1      34.115 -19.393 -20.950  0.00  0.00    +0.232 C 
BRANCH  26  27
ATOM     27  C   UNL     1      34.787 -18.038 -20.744  0.00  0.00    +0.133 C 
BRANCH  27  28
ATOM     28  O   UNL     1      36.029 -18.241 -20.067  0.00  0.00    -0.383 OA
ATOM     29  H   UNL     1      36.372 -19.124 -20.276  0.00  0.00    +0.210 HD
ENDBRANCH  27  28
BRANCH  27  30
ATOM     30  C   UNL     1      35.072 -17.299 -22.054  0.00  0.00    -0.044 C 
BRANCH  30  31
ATOM     31  N   UNL     1      33.880 -16.657 -22.591  0.00  0.00    +0.386 N 
ATOM     32  C   UNL     1      34.040 -15.201 -22.608  0.00  0.00    -0.101 C 
ATOM     33  C   UNL     1      33.591 -17.150 -23.940  0.00  0.00    -0.101 C 
ATOM     34  H   UNL     1      33.094 -16.889 -21.984  0.00  0.00    -0.080 HD
ENDBRANCH  30  31
ENDBRANCH  27  30
ENDBRANCH  26  27
ENDBRANCH  25  26
ENDBRANCH  19  25
ENDBRANCH   2  20
TORSDOF 8
ENDMDL
MODEL 5
REMARK VINA RESULT:     -10.1      5.259     13.878
REMARK  Name = 447653
REMARK  8 active torsions:
REMARK  status: ('A' for Active; 'I' for Inactive)
REMARK    1  A    between atoms: N_2  and  C_20
REMARK    2  A    between atoms: C_4  and  C_11
REMARK    3  A    between atoms: C_19  and  O_25
REMARK    4  A    between atoms: O_25  and  C_26
REMARK    5  A    between atoms: C_26  and  C_27
REMARK    6  A    between atoms: C_27  and  O_28
REMARK    7  A    between atoms: C_27  and  C_30
REMARK    8  A    between atoms: C_30  and  N_31
REMARK                            x       y       z     vdW  Elec       q    Type
REMARK                         _______ _______ _______ _____ _____    ______ ____
ROOT
ATOM      1  N   UNL     1      31.933 -10.486 -21.777  0.00  0.00    -0.340 NA
ATOM      2  N   UNL     1      31.332 -12.372 -20.519  0.00  0.00    -0.247 N 
ATOM      3  N   UNL     1      30.243 -10.344 -20.064  0.00  0.00    -0.170 NA
ATOM      4  C   UNL     1      31.740  -9.174 -22.016  0.00  0.00    +0.148 C 
ATOM      5  C   UNL     1      30.836  -8.389 -21.337  0.00  0.00    +0.052 C 
ATOM      6  C   UNL     1      31.161 -11.000 -20.800  0.00  0.00    +0.148 C 
ATOM      7  C   UNL     1      30.107  -9.035 -20.360  0.00  0.00    +0.114 C 
ATOM      8  H   UNL     1      30.747 -12.705 -19.799  0.00  0.00    +0.165 HD
ENDROOT
BRANCH   4  11
ATOM      9  N   UNL     1      32.680  -7.290 -23.354  0.00  0.00    -0.251 N 
ATOM     10  N   UNL     1      34.009  -8.363 -24.798  0.00  0.00    -0.393 NA
ATOM     11  C   UNL     1      32.570  -8.626 -23.064  0.00  0.00    +0.181 C 
ATOM     12  C   UNL     1      33.569  -7.181 -24.420  0.00  0.00    +0.187 C 
ATOM     13  C   UNL     1      33.394  -9.262 -23.963  0.00  0.00    +0.114 C 
ATOM     14  C   UNL     1      32.061  -6.199 -22.751  0.00  0.00    +0.068 C 
ATOM     15  C   UNL     1      33.842  -5.866 -24.902  0.00  0.00    +0.048 C 
ATOM     16  C   UNL     1      33.661 -10.702 -24.106  0.00  0.00    +0.064 C 
ATOM     17  C   UNL     1      32.323  -4.965 -23.211  0.00  0.00    +0.016 C 
ATOM     18  C   UNL     1      33.246  -4.806 -24.323  0.00  0.00    +0.005 C 
ENDBRANCH   4  11
BRANCH   2  20
ATOM     19  C   UNL     1      33.843 -15.320 -22.146  0.00  0.00    +0.139 C 
ATOM     20  C   UNL     1      32.174 -13.359 -21.065  0.00  0.00    +0.058 C 
ATOM     21  C   UNL     1      33.030 -14.556 -22.983  0.00  0.00    +0.038 C 
ATOM     22  C   UNL     1      33.821 -15.105 -20.768  0.00  0.00    +0.038 C 
ATOM     23  C   UNL     1      32.196 -13.576 -22.443  0.00  0.00    +0.018 C 
ATOM     24  C   UNL     1      32.988 -14.126 -20.228  0.00  0.00    +0.018 C 
BRANCH  19  25
ATOM     25  O   UNL     1      34.656 -16.276 -22.674  0.00  0.00    -0.473 OA
BRANCH  25  26
ATOM     26  C   UNL     1      34.083 -17.563 -22.899  0.00  0.00    +0.232 C 
BRANCH  26  27
ATOM     27  C   UNL     1      34.805 -18.584 -22.024  0.00  0.00    +0.133 C 
BRANCH  27  28
ATOM     28  O   UNL     1      36.176 -18.196 -21.903  0.00  0.00    -0.383 OA
ATOM     29  H   UNL     1      36.386 -18.036 -20.969  0.00  0.00    +0.210 HD
ENDBRANCH  27  28
BRANCH  27  30
ATOM     30  C   UNL     1      34.216 -18.700 -20.617  0.00  0.00    -0.044 C 
BRANCH  30  31
ATOM     31  N   UNL     1      33.961 -20.084 -20.242  0.00  0.00    +0.386 N 
ATOM     32  C   UNL     1      34.981 -20.562 -19.306  0.00  0.00    -0.101 C 
ATOM     33  C   UNL     1      32.628 -20.223 -19.652  0.00  0.00    -0.101 C 
ATOM     34  H   UNL     1      34.004 -20.654 -21.087  0.00  0.00    -0.080 HD
ENDBRANCH  30  31
ENDBRANCH  27  30
ENDBRANCH  26  27
ENDBRANCH  25  26
ENDBRANCH  19  25
ENDBRANCH   2  20
TORSDOF 8
ENDMDL
MODEL 6
REMARK VINA RESULT:     -10.1      6.376     13.829
REMARK  Name = 447653
REMARK  8 active torsions:
REMARK  status: ('A' for Active; 'I' for Inactive)
REMARK    1  A    between atoms: N_2  and  C_20
REMARK    2  A    between atoms: C_4  and  C_11
REMARK    3  A    between atoms: C_19  and  O_25
REMARK    4  A    between atoms: O_25  and  C_26
REMARK    5  A    between atoms: C_26  and  C_27
REMARK    6  A    between atoms: C_27  and  O_28
REMARK    7  A    between atoms: C_27  and  C_30
REMARK    8  A    between atoms: C_30  and  N_31
REMARK                            x       y       z     vdW  Elec       q    Type
REMARK                         _______ _______ _______ _____ _____    ______ ____
ROOT
ATOM      1  N   UNL     1      32.466  -8.697 -22.891  0.00  0.00    -0.340 NA
ATOM      2  N   UNL     1      33.232  -9.752 -24.842  0.00  0.00    -0.247 N 
ATOM      3  N   UNL     1      33.196  -7.406 -24.791  0.00  0.00    -0.170 NA
ATOM      4  C   UNL     1      32.210  -7.538 -22.256  0.00  0.00    +0.148 C 
ATOM      5  C   UNL     1      32.415  -6.293 -22.805  0.00  0.00    +0.052 C 
ATOM      6  C   UNL     1      32.951  -8.560 -24.141  0.00  0.00    +0.148 C 
ATOM      7  C   UNL     1      32.915  -6.288 -24.092  0.00  0.00    +0.114 C 
ATOM      8  H   UNL     1      33.585  -9.604 -25.749  0.00  0.00    +0.165 HD
ENDROOT
BRANCH   4  11
ATOM      9  N   UNL     1      31.300  -8.881 -20.361  0.00  0.00    -0.251 N 
ATOM     10  N   UNL     1      30.964  -7.316 -18.800  0.00  0.00    -0.393 NA
ATOM     11  C   UNL     1      31.690  -7.689 -20.916  0.00  0.00    +0.181 C 
ATOM     12  C   UNL     1      30.864  -8.601 -19.069  0.00  0.00    +0.187 C 
ATOM     13  C   UNL     1      31.474  -6.746 -19.939  0.00  0.00    +0.114 C 
ATOM     14  C   UNL     1      31.306 -10.159 -20.913  0.00  0.00    +0.068 C 
ATOM     15  C   UNL     1      30.403  -9.703 -18.289  0.00  0.00    +0.048 C 
ATOM     16  C   UNL     1      31.718  -5.295 -19.992  0.00  0.00    +0.064 C 
ATOM     17  C   UNL     1      30.871 -11.191 -20.172  0.00  0.00    +0.016 C 
ATOM     18  C   UNL     1      30.407 -10.942 -18.816  0.00  0.00    +0.005 C 
ENDBRANCH   4  11
BRANCH   2  20
ATOM     19  C   UNL     1      32.864 -13.809 -23.820  0.00  0.00    +0.139 C 
ATOM     20  C   UNL     1      33.109 -11.111 -24.499  0.00  0.00    +0.058 C 
ATOM     21  C   UNL     1      33.327 -12.891 -22.877  0.00  0.00    +0.038 C 
ATOM     22  C   UNL     1      32.525 -13.379 -25.103  0.00  0.00    +0.038 C 
ATOM     23  C   UNL     1      33.448 -11.544 -23.216  0.00  0.00    +0.018 C 
ATOM     24  C   UNL     1      32.647 -12.032 -25.442  0.00  0.00    +0.018 C 
BRANCH  19  25
ATOM     25  O   UNL     1      32.746 -15.124 -23.489  0.00  0.00    -0.473 OA
BRANCH  25  26
ATOM     26  C   UNL     1      33.902 -15.764 -22.951  0.00  0.00    +0.232 C 
BRANCH  26  27
ATOM     27  C   UNL     1      33.726 -17.276 -23.065  0.00  0.00    +0.133 C 
BRANCH  27  28
ATOM     28  O   UNL     1      33.604 -17.621 -24.447  0.00  0.00    -0.383 OA
ATOM     29  H   UNL     1      33.582 -18.586 -24.540  0.00  0.00    +0.210 HD
ENDBRANCH  27  28
BRANCH  27  30
ATOM     30  C   UNL     1      34.897 -18.068 -22.477  0.00  0.00    -0.044 C 
BRANCH  30  31
ATOM     31  N   UNL     1      34.795 -18.202 -21.030  0.00  0.00    +0.386 N 
ATOM     32  C   UNL     1      33.837 -19.251 -20.674  0.00  0.00    -0.101 C 
ATOM     33  C   UNL     1      36.106 -18.495 -20.445  0.00  0.00    -0.101 C 
ATOM     34  H   UNL     1      34.461 -17.316 -20.652  0.00  0.00    -0.080 HD
ENDBRANCH  30  31
ENDBRANCH  27  30
ENDBRANCH  26  27
ENDBRANCH  25  26
ENDBRANCH  19  25
ENDBRANCH   2  20
TORSDOF 8
ENDMDL
MODEL 7
REMARK VINA RESULT:     -10.0      8.504     15.670
REMARK  Name = 447653
REMARK  8 active torsions:
REMARK  status: ('A' for Active; 'I' for Inactive)
REMARK    1  A    between atoms: N_2  and  C_20
REMARK    2  A    between atoms: C_4  and  C_11
REMARK    3  A    between atoms: C_19  and  O_25
REMARK    4  A    between atoms: O_25  and  C_26
REMARK    5  A    between atoms: C_26  and  C_27
REMARK    6  A    between atoms: C_27  and  O_28
REMARK    7  A    between atoms: C_27  and  C_30
REMARK    8  A    between atoms: C_30  and  N_31
REMARK                            x       y       z     vdW  Elec       q    Type
REMARK                         _______ _______ _______ _____ _____    ______ ____
ROOT
ATOM      1  N   UNL     1      31.534  -7.561 -20.699  0.00  0.00    -0.340 NA
ATOM      2  N   UNL     1      31.018  -9.334 -19.253  0.00  0.00    -0.247 N 
ATOM      3  N   UNL     1      30.770  -7.143 -18.452  0.00  0.00    -0.170 NA
ATOM      4  C   UNL     1      31.611  -6.228 -20.875  0.00  0.00    +0.148 C 
ATOM      5  C   UNL     1      31.292  -5.300 -19.910  0.00  0.00    +0.052 C 
ATOM      6  C   UNL     1      31.112  -7.944 -19.478  0.00  0.00    +0.148 C 
ATOM      7  C   UNL     1      30.873  -5.822 -18.703  0.00  0.00    +0.114 C 
ATOM      8  H   UNL     1      30.705  -9.568 -18.349  0.00  0.00    +0.165 HD
ENDROOT
BRANCH   4  11
ATOM      9  N   UNL     1      31.356  -5.014 -23.039  0.00  0.00    -0.251 N 
ATOM     10  N   UNL     1      33.266  -5.522 -24.086  0.00  0.00    -0.393 NA
ATOM     11  C   UNL     1      32.064  -5.820 -22.185  0.00  0.00    +0.181 C 
ATOM     12  C   UNL     1      32.131  -4.861 -24.186  0.00  0.00    +0.187 C 
ATOM     13  C   UNL     1      33.230  -6.117 -22.850  0.00  0.00    +0.114 C 
ATOM     14  C   UNL     1      30.106  -4.425 -22.870  0.00  0.00    +0.068 C 
ATOM     15  C   UNL     1      31.591  -4.052 -25.229  0.00  0.00    +0.048 C 
ATOM     16  C   UNL     1      34.358  -6.949 -22.400  0.00  0.00    +0.064 C 
ATOM     17  C   UNL     1      29.605  -3.664 -23.857  0.00  0.00    +0.016 C 
ATOM     18  C   UNL     1      30.383  -3.480 -25.072  0.00  0.00    +0.005 C 
ENDBRANCH   4  11
BRANCH   2  20
ATOM     19  C   UNL     1      31.805 -12.671 -21.679  0.00  0.00    +0.139 C 
ATOM     20  C   UNL     1      31.282 -10.452 -20.066  0.00  0.00    +0.058 C 
ATOM     21  C   UNL     1      31.957 -11.384 -22.193  0.00  0.00    +0.038 C 
ATOM     22  C   UNL     1      31.390 -12.851 -20.359  0.00  0.00    +0.038 C 
ATOM     23  C   UNL     1      31.696 -10.275 -21.387  0.00  0.00    +0.018 C 
ATOM     24  C   UNL     1      31.129 -11.743 -19.554  0.00  0.00    +0.018 C 
BRANCH  19  25
ATOM     25  O   UNL     1      32.059 -13.753 -22.466  0.00  0.00    -0.473 OA
BRANCH  25  26
ATOM     26  C   UNL     1      32.541 -13.496 -23.784  0.00  0.00    +0.232 C 
BRANCH  26  27
ATOM     27  C   UNL     1      32.640 -14.819 -24.539  0.00  0.00    +0.133 C 
BRANCH  27  28
ATOM     28  O   UNL     1      32.761 -14.542 -25.937  0.00  0.00    -0.383 OA
ATOM     29  H   UNL     1      32.268 -15.207 -26.442  0.00  0.00    +0.210 HD
ENDBRANCH  27  28
BRANCH  27  30
ATOM     30  C   UNL     1      33.840 -15.670 -24.116  0.00  0.00    -0.044 C 
BRANCH  30  31
ATOM     31  N   UNL     1      33.480 -16.668 -23.118  0.00  0.00    +0.386 N 
ATOM     32  C   UNL     1      33.413 -18.001 -23.722  0.00  0.00    -0.101 C 
ATOM     33  C   UNL     1      34.438 -16.662 -22.011  0.00  0.00    -0.101 C 
ATOM     34  H   UNL     1      32.558 -16.431 -22.752  0.00  0.00    -0.080 HD
ENDBRANCH  30  31
ENDBRANCH  27  30
ENDBRANCH  26  27
ENDBRANCH  25  26
ENDBRANCH  19  25
ENDBRANCH   2  20
TORSDOF 8
ENDMDL
MODEL 8
REMARK VINA RESULT:     -10.0      6.087     14.010
REMARK  Name = 447653
REMARK  8 active torsions:
REMARK  status: ('A' for Active; 'I' for Inactive)
REMARK    1  A    between atoms: N_2  and  C_20
REMARK    2  A    between atoms: C_4  and  C_11
REMARK    3  A    between atoms: C_19  and  O_25
REMARK    4  A    between atoms: O_25  and  C_26
REMARK    5  A    between atoms: C_26  and  C_27
REMARK    6  A    between atoms: C_27  and  O_28
REMARK    7  A    between atoms: C_27  and  C_30
REMARK    8  A    between atoms: C_30  and  N_31
REMARK                            x       y       z     vdW  Elec       q    Type
REMARK                         _______ _______ _______ _____ _____    ______ ____
ROOT
ATOM      1  N   UNL     1      31.936 -10.263 -21.818  0.00  0.00    -0.340 NA
ATOM      2  N   UNL     1      31.370 -12.193 -20.610  0.00  0.00    -0.247 N 
ATOM      3  N   UNL     1      30.314 -10.177 -20.037  0.00  0.00    -0.170 NA
ATOM      4  C   UNL     1      31.743  -8.942 -21.998  0.00  0.00    +0.148 C 
ATOM      5  C   UNL     1      30.872  -8.178 -21.255  0.00  0.00    +0.052 C 
ATOM      6  C   UNL     1      31.198 -10.810 -20.832  0.00  0.00    +0.148 C 
ATOM      7  C   UNL     1      30.176  -8.858 -20.276  0.00  0.00    +0.114 C 
ATOM      8  H   UNL     1      30.811 -12.550 -19.882  0.00  0.00    +0.165 HD
ENDROOT
BRANCH   4  11
ATOM      9  N   UNL     1      32.560  -7.023 -23.367  0.00  0.00    -0.251 N 
ATOM     10  N   UNL     1      33.955  -8.031 -24.795  0.00  0.00    -0.393 NA
ATOM     11  C   UNL     1      32.536  -8.359 -23.056  0.00  0.00    +0.181 C 
ATOM     12  C   UNL     1      33.440  -6.873 -24.436  0.00  0.00    +0.187 C 
ATOM     13  C   UNL     1      33.399  -8.954 -23.945  0.00  0.00    +0.114 C 
ATOM     14  C   UNL     1      31.871  -5.964 -22.781  0.00  0.00    +0.068 C 
ATOM     15  C   UNL     1      33.628  -5.552 -24.939  0.00  0.00    +0.048 C 
ATOM     16  C   UNL     1      33.758 -10.377 -24.066  0.00  0.00    +0.064 C 
ATOM     17  C   UNL     1      32.054  -4.723 -23.261  0.00  0.00    +0.016 C 
ATOM     18  C   UNL     1      32.965  -4.523 -24.376  0.00  0.00    +0.005 C 
ENDBRANCH   4  11
BRANCH   2  20
ATOM     19  C   UNL     1      33.796 -15.086 -22.450  0.00  0.00    +0.139 C 
ATOM     20  C   UNL     1      32.183 -13.163 -21.226  0.00  0.00    +0.058 C 
ATOM     21  C   UNL     1      33.847 -14.910 -21.066  0.00  0.00    +0.038 C 
ATOM     22  C   UNL     1      32.941 -14.301 -23.221  0.00  0.00    +0.038 C 
ATOM     23  C   UNL     1      33.040 -13.950 -20.455  0.00  0.00    +0.018 C 
ATOM     24  C   UNL     1      32.135 -13.340 -22.611  0.00  0.00    +0.018 C 
BRANCH  19  25
ATOM     25  O   UNL     1      34.583 -16.024 -23.045  0.00  0.00    -0.473 OA
BRANCH  25  26
ATOM     26  C   UNL     1      33.953 -16.903 -23.975  0.00  0.00    +0.232 C 
BRANCH  26  27
ATOM     27  C   UNL     1      33.156 -17.951 -23.202  0.00  0.00    +0.133 C 
BRANCH  27  28
ATOM     28  O   UNL     1      32.290 -18.633 -24.113  0.00  0.00    -0.383 OA
ATOM     29  H   UNL     1      32.034 -18.031 -24.829  0.00  0.00    +0.210 HD
ENDBRANCH  27  28
BRANCH  27  30
ATOM     30  C   UNL     1      34.038 -18.993 -22.510  0.00  0.00    -0.044 C 
BRANCH  30  31
ATOM     31  N   UNL     1      34.354 -18.619 -21.138  0.00  0.00    +0.386 N 
ATOM     32  C   UNL     1      33.776 -19.580 -20.195  0.00  0.00    -0.101 C 
ATOM     33  C   UNL     1      35.803 -18.532 -20.947  0.00  0.00    -0.101 C 
ATOM     34  H   UNL     1      33.945 -17.703 -20.958  0.00  0.00    -0.080 HD
ENDBRANCH  30  31
ENDBRANCH  27  30
ENDBRANCH  26  27
ENDBRANCH  25  26
ENDBRANCH  19  25
ENDBRANCH   2  20
TORSDOF 8
ENDMDL
MODEL 9
REMARK VINA RESULT:     -10.0      7.900     12.097
REMARK  Name = 447653
REMARK  8 active torsions:
REMARK  status: ('A' for Active; 'I' for Inactive)
REMARK    1  A    between atoms: N_2  and  C_20
REMARK    2  A    between atoms: C_4  and  C_11
REMARK    3  A    between atoms: C_19  and  O_25
REMARK    4  A    between atoms: O_25  and  C_26
REMARK    5  A    between atoms: C_26  and  C_27
REMARK    6  A    between atoms: C_27  and  O_28
REMARK    7  A    between atoms: C_27  and  C_30
REMARK    8  A    between atoms: C_30  and  N_31
REMARK                            x       y       z     vdW  Elec       q    Type
REMARK                         _______ _______ _______ _____ _____    ______ ____
ROOT
ATOM      1  N   UNL     1      32.972 -12.748 -23.805  0.00  0.00    -0.340 NA
ATOM      2  N   UNL     1      32.712 -10.871 -25.189  0.00  0.00    -0.247 N 
ATOM      3  N   UNL     1      32.496 -12.999 -26.155  0.00  0.00    -0.170 NA
ATOM      4  C   UNL     1      32.979 -14.091 -23.707  0.00  0.00    +0.148 C 
ATOM      5  C   UNL     1      32.757 -14.946 -24.764  0.00  0.00    +0.052 C 
ATOM      6  C   UNL     1      32.727 -12.275 -25.043  0.00  0.00    +0.148 C 
ATOM      7  C   UNL     1      32.519 -14.336 -25.978  0.00  0.00    +0.114 C 
ATOM      8  H   UNL     1      32.528 -10.571 -26.109  0.00  0.00    +0.165 HD
ENDROOT
BRANCH   4  11
ATOM      9  N   UNL     1      33.854 -15.791 -22.105  0.00  0.00    -0.251 N 
ATOM     10  N   UNL     1      33.385 -14.854 -20.130  0.00  0.00    -0.393 NA
ATOM     11  C   UNL     1      33.242 -14.595 -22.379  0.00  0.00    +0.181 C 
ATOM     12  C   UNL     1      33.918 -15.904 -20.719  0.00  0.00    +0.187 C 
ATOM     13  C   UNL     1      32.965 -14.040 -21.152  0.00  0.00    +0.114 C 
ATOM     14  C   UNL     1      34.343 -16.757 -22.980  0.00  0.00    +0.068 C 
ATOM     15  C   UNL     1      34.522 -17.084 -20.193  0.00  0.00    +0.048 C 
ATOM     16  C   UNL     1      32.311 -12.756 -20.850  0.00  0.00    +0.064 C 
ATOM     17  C   UNL     1      34.910 -17.865 -22.477  0.00  0.00    +0.016 C 
ATOM     18  C   UNL     1      34.997 -18.022 -21.034  0.00  0.00    +0.005 C 
ENDBRANCH   4  11
BRANCH   2  20
ATOM     19  C   UNL     1      33.292  -7.721 -22.472  0.00  0.00    +0.139 C 
ATOM     20  C   UNL     1      32.906  -9.816 -24.278  0.00  0.00    +0.058 C 
ATOM     21  C   UNL     1      32.020  -8.266 -22.648  0.00  0.00    +0.038 C 
ATOM     22  C   UNL     1      34.371  -8.223 -23.200  0.00  0.00    +0.038 C 
ATOM     23  C   UNL     1      31.827  -9.313 -23.549  0.00  0.00    +0.018 C 
ATOM     24  C   UNL     1      34.178  -9.268 -24.102  0.00  0.00    +0.018 C 
BRANCH  19  25
ATOM     25  O   UNL     1      33.480  -6.700 -21.592  0.00  0.00    -0.473 OA
BRANCH  25  26
ATOM     26  C   UNL     1      32.337  -6.253 -20.864  0.00  0.00    +0.232 C 
BRANCH  26  27
ATOM     27  C   UNL     1      32.221  -7.070 -19.580  0.00  0.00    +0.133 C 
BRANCH  27  28
ATOM     28  O   UNL     1      32.336  -6.186 -18.461  0.00  0.00    -0.383 OA
ATOM     29  H   UNL     1      33.048  -6.491 -17.879  0.00  0.00    +0.210 HD
ENDBRANCH  27  28
BRANCH  27  30
ATOM     30  C   UNL     1      30.894  -7.823 -19.458  0.00  0.00    -0.044 C 
BRANCH  30  31
ATOM     31  N   UNL     1      31.087  -9.264 -19.372  0.00  0.00    +0.386 N 
ATOM     32  C   UNL     1      30.987  -9.716 -17.983  0.00  0.00    -0.101 C 
ATOM     33  C   UNL     1      30.109  -9.967 -20.205  0.00  0.00    -0.101 C 
ATOM     34  H   UNL     1      32.022  -9.479 -19.716  0.00  0.00    -0.080 HD
ENDBRANCH  30  31
ENDBRANCH  27  30
ENDBRANCH  26  27
ENDBRANCH  25  26
ENDBRANCH  19  25
ENDBRANCH   2  20
TORSDOF 8
ENDMDL
