MODEL 1
REMARK VINA RESULT:     -12.5      0.000      0.000
REMARK  Name = 25184541
REMARK  4 active torsions:
REMARK  status: ('A' for Active; 'I' for Inactive)
REMARK    1  A    between atoms: C_4  and  N_19
REMARK    2  A    between atoms: C_5  and  N_11
REMARK    3  A    between atoms: C_20  and  C_23
REMARK    4  A    between atoms: C_23  and  N_25
REMARK                            x       y       z     vdW  Elec       q    Type
REMARK                         _______ _______ _______ _____ _____    ______ ____
ROOT
ATOM      1  F   UNL     1      31.434 -21.321 -18.333  0.00  0.00    -0.200 F 
ATOM      2  F   UNL     1      31.547 -19.643 -20.466  0.00  0.00    -0.200 F 
ATOM      3  F   UNL     1      36.290 -19.644 -20.215  0.00  0.00    -0.203 F 
ATOM      4  C   UNL     1      33.803 -21.344 -18.179  0.00  0.00    +0.089 C 
ATOM      5  C   UNL     1      33.919 -19.620 -20.369  0.00  0.00    +0.110 C 
ATOM      6  C   UNL     1      32.626 -20.912 -18.790  0.00  0.00    +0.182 C 
ATOM      7  C   UNL     1      35.039 -20.914 -18.664  0.00  0.00    +0.048 C 
ATOM      8  C   UNL     1      32.685 -20.050 -19.885  0.00  0.00    +0.184 C 
ATOM      9  C   UNL     1      35.096 -20.052 -19.758  0.00  0.00    +0.157 C 
ENDROOT
BRANCH   5  11
ATOM     10  O   UNL     1      34.088 -16.164 -24.635  0.00  0.00    -0.291 OA
ATOM     11  N   UNL     1      33.979 -18.740 -21.481  0.00  0.00    -0.282 N 
ATOM     12  C   UNL     1      34.609 -17.425 -21.274  0.00  0.00    +0.104 C 
ATOM     13  C   UNL     1      34.039 -16.388 -22.241  0.00  0.00    +0.091 C 
ATOM     14  C   UNL     1      33.643 -19.122 -22.772  0.00  0.00    +0.068 C 
ATOM     15  C   UNL     1      33.968 -16.906 -23.663  0.00  0.00    +0.176 C 
ATOM     16  C   UNL     1      33.650 -18.339 -23.855  0.00  0.00    +0.054 C 
ENDBRANCH   5  11
BRANCH   4  19
ATOM     17  O   UNL     1      34.254 -23.322 -15.156  0.00  0.00    -0.434 OA
ATOM     18  O   UNL     1      35.747 -21.776 -15.879  0.00  0.00    -0.226 OA
ATOM     19  N   UNL     1      33.748 -22.225 -17.062  0.00  0.00    -0.219 N 
ATOM     20  C   UNL     1      32.902 -23.679 -15.472  0.00  0.00    +0.210 C 
ATOM     21  C   UNL     1      32.715 -23.214 -16.900  0.00  0.00    +0.147 C 
ATOM     22  C   UNL     1      34.682 -22.356 -16.038  0.00  0.00    +0.409 C 
BRANCH  20  23
ATOM     23  C   UNL     1      31.968 -22.985 -14.488  0.00  0.00    +0.134 C 
BRANCH  23  25
ATOM     24  O   UNL     1      28.115 -22.299 -16.312  0.00  0.00    -0.349 OA
ATOM     25  N   UNL     1      30.720 -23.701 -14.407  0.00  0.00    -0.312 N 
ATOM     26  N   UNL     1      29.435 -22.263 -15.881  0.00  0.00    -0.062 NA
ATOM     27  C   UNL     1      29.567 -23.323 -15.077  0.00  0.00    +0.171 C 
ATOM     28  C   UNL     1      28.374 -24.057 -14.964  0.00  0.00    +0.081 C 
ATOM     29  C   UNL     1      27.493 -23.373 -15.759  0.00  0.00    +0.215 C 
ATOM     30  H   UNL     1      30.685 -24.507 -13.841  0.00  0.00    +0.148 HD
ENDBRANCH  23  25
ENDBRANCH  20  23
ENDBRANCH   4  19
TORSDOF 4
ENDMDL
MODEL 2
REMARK VINA RESULT:     -12.1      0.668      1.787
REMARK  Name = 25184541
REMARK  4 active torsions:
REMARK  status: ('A' for Active; 'I' for Inactive)
REMARK    1  A    between atoms: C_4  and  N_19
REMARK    2  A    between atoms: C_5  and  N_11
REMARK    3  A    between atoms: C_20  and  C_23
REMARK    4  A    between atoms: C_23  and  N_25
REMARK                            x       y       z     vdW  Elec       q    Type
REMARK                         _______ _______ _______ _____ _____    ______ ____
ROOT
ATOM      1  F   UNL     1      35.908 -21.514 -17.922  0.00  0.00    -0.200 F 
ATOM      2  F   UNL     1      36.142 -19.861 -20.065  0.00  0.00    -0.200 F 
ATOM      3  F   UNL     1      31.412 -19.722 -20.472  0.00  0.00    -0.203 F 
ATOM      4  C   UNL     1      33.540 -21.466 -18.097  0.00  0.00    +0.089 C 
ATOM      5  C   UNL     1      33.780 -19.770 -20.298  0.00  0.00    +0.110 C 
ATOM      6  C   UNL     1      34.803 -21.078 -18.544  0.00  0.00    +0.182 C 
ATOM      7  C   UNL     1      32.397 -21.006 -18.750  0.00  0.00    +0.048 C 
ATOM      8  C   UNL     1      34.923 -20.230 -19.645  0.00  0.00    +0.184 C 
ATOM      9  C   UNL     1      32.517 -20.158 -19.851  0.00  0.00    +0.157 C 
ENDROOT
BRANCH   5  11
ATOM     10  O   UNL     1      34.193 -16.383 -24.603  0.00  0.00    -0.291 OA
ATOM     11  N   UNL     1      33.902 -18.909 -21.420  0.00  0.00    -0.282 N 
ATOM     12  C   UNL     1      34.625 -17.640 -21.228  0.00  0.00    +0.104 C 
ATOM     13  C   UNL     1      34.130 -16.576 -22.207  0.00  0.00    +0.091 C 
ATOM     14  C   UNL     1      33.539 -19.280 -22.707  0.00  0.00    +0.068 C 
ATOM     15  C   UNL     1      34.021 -17.103 -23.622  0.00  0.00    +0.176 C 
ATOM     16  C   UNL     1      33.601 -18.512 -23.799  0.00  0.00    +0.054 C 
ENDBRANCH   5  11
BRANCH   4  19
ATOM     17  O   UNL     1      33.794 -23.392 -15.017  0.00  0.00    -0.434 OA
ATOM     18  O   UNL     1      35.313 -21.833 -15.652  0.00  0.00    -0.226 OA
ATOM     19  N   UNL     1      33.414 -22.332 -16.973  0.00  0.00    -0.219 N 
ATOM     20  C   UNL     1      32.474 -23.775 -15.427  0.00  0.00    +0.210 C 
ATOM     21  C   UNL     1      32.388 -23.334 -16.873  0.00  0.00    +0.147 C 
ATOM     22  C   UNL     1      34.272 -22.432 -15.881  0.00  0.00    +0.409 C 
BRANCH  20  23
ATOM     23  C   UNL     1      31.459 -23.082 -14.527  0.00  0.00    +0.134 C 
BRANCH  23  25
ATOM     24  O   UNL     1      27.765 -22.035 -16.500  0.00  0.00    -0.349 OA
ATOM     25  N   UNL     1      30.187 -23.754 -14.614  0.00  0.00    -0.312 N 
ATOM     26  N   UNL     1      29.052 -22.103 -15.984  0.00  0.00    -0.062 NA
ATOM     27  C   UNL     1      29.095 -23.254 -15.307  0.00  0.00    +0.171 C 
ATOM     28  C   UNL     1      27.875 -23.949 -15.360  0.00  0.00    +0.081 C 
ATOM     29  C   UNL     1      27.073 -23.142 -16.122  0.00  0.00    +0.215 C 
ATOM     30  H   UNL     1      30.088 -24.619 -14.153  0.00  0.00    +0.148 HD
ENDBRANCH  23  25
ENDBRANCH  20  23
ENDBRANCH   4  19
TORSDOF 4
ENDMDL
MODEL 3
REMARK VINA RESULT:     -11.3      3.315      9.088
REMARK  Name = 25184541
REMARK  4 active torsions:
REMARK  status: ('A' for Active; 'I' for Inactive)
REMARK    1  A    between atoms: C_4  and  N_19
REMARK    2  A    between atoms: C_5  and  N_11
REMARK    3  A    between atoms: C_20  and  C_23
REMARK    4  A    between atoms: C_23  and  N_25
REMARK                            x       y       z     vdW  Elec       q    Type
REMARK                         _______ _______ _______ _____ _____    ______ ____
ROOT
ATOM      1  F   UNL     1      36.347 -20.576 -17.648  0.00  0.00    -0.200 F 
ATOM      2  F   UNL     1      36.882 -21.931 -15.356  0.00  0.00    -0.200 F 
ATOM      3  F   UNL     1      32.524 -23.818 -15.457  0.00  0.00    -0.203 F 
ATOM      4  C   UNL     1      34.162 -21.501 -17.730  0.00  0.00    +0.089 C 
ATOM      5  C   UNL     1      34.710 -22.892 -15.375  0.00  0.00    +0.110 C 
ATOM      6  C   UNL     1      35.407 -21.368 -17.115  0.00  0.00    +0.182 C 
ATOM      7  C   UNL     1      33.191 -22.330 -17.167  0.00  0.00    +0.048 C 
ATOM      8  C   UNL     1      35.681 -22.064 -15.937  0.00  0.00    +0.184 C 
ATOM      9  C   UNL     1      33.465 -23.025 -15.990  0.00  0.00    +0.157 C 
ENDROOT
BRANCH   5  11
ATOM     10  O   UNL     1      35.834 -25.556 -10.704  0.00  0.00    -0.291 OA
ATOM     11  N   UNL     1      34.987 -23.598 -14.175  0.00  0.00    -0.282 N 
ATOM     12  C   UNL     1      34.379 -23.091 -12.932  0.00  0.00    +0.104 C 
ATOM     13  C   UNL     1      35.230 -23.460 -11.718  0.00  0.00    +0.091 C 
ATOM     14  C   UNL     1      35.641 -24.821 -14.145  0.00  0.00    +0.068 C 
ATOM     15  C   UNL     1      35.658 -24.913 -11.736  0.00  0.00    +0.176 C 
ATOM     16  C   UNL     1      35.957 -25.523 -13.052  0.00  0.00    +0.054 C 
ENDBRANCH   5  11
BRANCH   4  19
ATOM     17  O   UNL     1      32.795 -19.746 -20.612  0.00  0.00    -0.434 OA
ATOM     18  O   UNL     1      31.522 -20.594 -18.938  0.00  0.00    -0.226 OA
ATOM     19  N   UNL     1      33.879 -20.793 -18.933  0.00  0.00    -0.219 N 
ATOM     20  C   UNL     1      34.191 -19.490 -20.820  0.00  0.00    +0.210 C 
ATOM     21  C   UNL     1      34.893 -20.467 -19.901  0.00  0.00    +0.147 C 
ATOM     22  C   UNL     1      32.633 -20.404 -19.414  0.00  0.00    +0.409 C 
BRANCH  20  23
ATOM     23  C   UNL     1      34.480 -18.034 -20.479  0.00  0.00    +0.134 C 
BRANCH  23  25
ATOM     24  O   UNL     1      33.522 -13.876 -21.134  0.00  0.00    -0.349 OA
ATOM     25  N   UNL     1      34.433 -17.231 -21.675  0.00  0.00    -0.312 N 
ATOM     26  N   UNL     1      33.774 -15.143 -20.626  0.00  0.00    -0.062 NA
ATOM     27  C   UNL     1      34.098 -15.886 -21.689  0.00  0.00    +0.171 C 
ATOM     28  C   UNL     1      34.066 -15.147 -22.884  0.00  0.00    +0.081 C 
ATOM     29  C   UNL     1      33.699 -13.890 -22.481  0.00  0.00    +0.215 C 
ATOM     30  H   UNL     1      34.652 -17.664 -22.532  0.00  0.00    +0.148 HD
ENDBRANCH  23  25
ENDBRANCH  20  23
ENDBRANCH   4  19
TORSDOF 4
ENDMDL
MODEL 4
REMARK VINA RESULT:     -11.0      2.386      4.111
REMARK  Name = 25184541
REMARK  4 active torsions:
REMARK  status: ('A' for Active; 'I' for Inactive)
REMARK    1  A    between atoms: C_4  and  N_19
REMARK    2  A    between atoms: C_5  and  N_11
REMARK    3  A    between atoms: C_20  and  C_23
REMARK    4  A    between atoms: C_23  and  N_25
REMARK                            x       y       z     vdW  Elec       q    Type
REMARK                         _______ _______ _______ _____ _____    ______ ____
ROOT
ATOM      1  F   UNL     1      35.935 -21.486 -17.967  0.00  0.00    -0.200 F 
ATOM      2  F   UNL     1      36.152 -19.784 -20.073  0.00  0.00    -0.200 F 
ATOM      3  F   UNL     1      31.419 -19.670 -20.465  0.00  0.00    -0.203 F 
ATOM      4  C   UNL     1      33.567 -21.452 -18.135  0.00  0.00    +0.089 C 
ATOM      5  C   UNL     1      33.789 -19.705 -20.298  0.00  0.00    +0.110 C 
ATOM      6  C   UNL     1      34.826 -21.045 -18.576  0.00  0.00    +0.182 C 
ATOM      7  C   UNL     1      32.419 -20.985 -18.775  0.00  0.00    +0.048 C 
ATOM      8  C   UNL     1      34.936 -20.171 -19.658  0.00  0.00    +0.184 C 
ATOM      9  C   UNL     1      32.530 -20.112 -19.857  0.00  0.00    +0.157 C 
ENDROOT
BRANCH   5  11
ATOM     10  O   UNL     1      34.164 -16.220 -24.528  0.00  0.00    -0.291 OA
ATOM     11  N   UNL     1      33.901 -18.818 -21.401  0.00  0.00    -0.282 N 
ATOM     12  C   UNL     1      34.579 -17.530 -21.171  0.00  0.00    +0.104 C 
ATOM     13  C   UNL     1      34.066 -16.463 -22.138  0.00  0.00    +0.091 C 
ATOM     14  C   UNL     1      33.572 -19.175 -22.701  0.00  0.00    +0.068 C 
ATOM     15  C   UNL     1      33.999 -16.965 -23.565  0.00  0.00    +0.176 C 
ATOM     16  C   UNL     1      33.628 -18.383 -23.776  0.00  0.00    +0.054 C 
ENDBRANCH   5  11
BRANCH   4  19
ATOM     17  O   UNL     1      33.036 -24.168 -15.769  0.00  0.00    -0.434 OA
ATOM     18  O   UNL     1      32.588 -24.328 -17.986  0.00  0.00    -0.226 OA
ATOM     19  N   UNL     1      33.450 -22.343 -17.030  0.00  0.00    -0.219 N 
ATOM     20  C   UNL     1      33.742 -23.251 -14.922  0.00  0.00    +0.210 C 
ATOM     21  C   UNL     1      33.700 -21.937 -15.673  0.00  0.00    +0.147 C 
ATOM     22  C   UNL     1      32.998 -23.659 -17.047  0.00  0.00    +0.409 C 
BRANCH  20  23
ATOM     23  C   UNL     1      35.157 -23.772 -14.704  0.00  0.00    +0.134 C 
BRANCH  23  25
ATOM     24  O   UNL     1      34.354 -24.582 -10.540  0.00  0.00    -0.349 OA
ATOM     25  N   UNL     1      35.702 -23.219 -13.491  0.00  0.00    -0.312 N 
ATOM     26  N   UNL     1      34.396 -24.540 -11.928  0.00  0.00    -0.062 NA
ATOM     27  C   UNL     1      35.313 -23.612 -12.219  0.00  0.00    +0.171 C 
ATOM     28  C   UNL     1      35.877 -23.041 -11.066  0.00  0.00    +0.081 C 
ATOM     29  C   UNL     1      35.241 -23.684 -10.038  0.00  0.00    +0.215 C 
ATOM     30  H   UNL     1      36.392 -22.520 -13.570  0.00  0.00    +0.148 HD
ENDBRANCH  23  25
ENDBRANCH  20  23
ENDBRANCH   4  19
TORSDOF 4
ENDMDL
MODEL 5
REMARK VINA RESULT:     -10.8      9.034     13.779
REMARK  Name = 25184541
REMARK  4 active torsions:
REMARK  status: ('A' for Active; 'I' for Inactive)
REMARK    1  A    between atoms: C_4  and  N_19
REMARK    2  A    between atoms: C_5  and  N_11
REMARK    3  A    between atoms: C_20  and  C_23
REMARK    4  A    between atoms: C_23  and  N_25
REMARK                            x       y       z     vdW  Elec       q    Type
REMARK                         _______ _______ _______ _____ _____    ______ ____
ROOT
ATOM      1  F   UNL     1      30.245 -10.426 -20.041  0.00  0.00    -0.200 F 
ATOM      2  F   UNL     1      31.109 -12.812 -21.008  0.00  0.00    -0.200 F 
ATOM      3  F   UNL     1      33.726 -10.545 -24.260  0.00  0.00    -0.203 F 
ATOM      4  C   UNL     1      31.542  -9.260 -21.653  0.00  0.00    +0.089 C 
ATOM      5  C   UNL     1      32.428 -11.711 -22.648  0.00  0.00    +0.110 C 
ATOM      6  C   UNL     1      31.098 -10.449 -21.075  0.00  0.00    +0.182 C 
ATOM      7  C   UNL     1      32.430  -9.297 -22.728  0.00  0.00    +0.048 C 
ATOM      8  C   UNL     1      31.541 -11.675 -21.573  0.00  0.00    +0.184 C 
ATOM      9  C   UNL     1      32.873 -10.522 -23.225  0.00  0.00    +0.157 C 
ENDROOT
BRANCH   5  11
ATOM     10  O   UNL     1      34.082 -16.565 -24.617  0.00  0.00    -0.291 OA
ATOM     11  N   UNL     1      32.877 -12.958 -23.157  0.00  0.00    -0.282 N 
ATOM     12  C   UNL     1      32.570 -13.268 -24.564  0.00  0.00    +0.104 C 
ATOM     13  C   UNL     1      32.482 -14.778 -24.783  0.00  0.00    +0.091 C 
ATOM     14  C   UNL     1      33.730 -13.801 -22.460  0.00  0.00    +0.068 C 
ATOM     15  C   UNL     1      33.638 -15.520 -24.147  0.00  0.00    +0.176 C 
ATOM     16  C   UNL     1      34.168 -14.997 -22.867  0.00  0.00    +0.054 C 
ENDBRANCH   5  11
BRANCH   4  19
ATOM     17  O   UNL     1      30.786  -6.200 -19.831  0.00  0.00    -0.434 OA
ATOM     18  O   UNL     1      32.189  -7.807 -19.060  0.00  0.00    -0.226 OA
ATOM     19  N   UNL     1      31.092  -8.007 -21.147  0.00  0.00    -0.219 N 
ATOM     20  C   UNL     1      30.158  -5.891 -21.082  0.00  0.00    +0.210 C 
ATOM     21  C   UNL     1      30.082  -7.220 -21.803  0.00  0.00    +0.147 C 
ATOM     22  C   UNL     1      31.446  -7.403 -19.944  0.00  0.00    +0.409 C 
BRANCH  20  23
ATOM     23  C   UNL     1      31.006  -4.859 -21.816  0.00  0.00    +0.134 C 
BRANCH  23  25
ATOM     24  O   UNL     1      34.369  -6.301 -24.106  0.00  0.00    -0.349 OA
ATOM     25  N   UNL     1      31.141  -5.231 -23.201  0.00  0.00    -0.312 N 
ATOM     26  N   UNL     1      33.492  -5.835 -23.136  0.00  0.00    -0.062 NA
ATOM     27  C   UNL     1      32.325  -5.680 -23.768  0.00  0.00    +0.171 C 
ATOM     28  C   UNL     1      32.405  -6.030 -25.126  0.00  0.00    +0.081 C 
ATOM     29  C   UNL     1      33.709  -6.414 -25.289  0.00  0.00    +0.215 C 
ATOM     30  H   UNL     1      30.347  -5.160 -23.780  0.00  0.00    +0.148 HD
ENDBRANCH  23  25
ENDBRANCH  20  23
ENDBRANCH   4  19
TORSDOF 4
ENDMDL
MODEL 6
REMARK VINA RESULT:     -10.7      2.761      5.058
REMARK  Name = 25184541
REMARK  4 active torsions:
REMARK  status: ('A' for Active; 'I' for Inactive)
REMARK    1  A    between atoms: C_4  and  N_19
REMARK    2  A    between atoms: C_5  and  N_11
REMARK    3  A    between atoms: C_20  and  C_23
REMARK    4  A    between atoms: C_23  and  N_25
REMARK                            x       y       z     vdW  Elec       q    Type
REMARK                         _______ _______ _______ _____ _____    ______ ____
ROOT
ATOM      1  F   UNL     1      36.061 -21.588 -17.507  0.00  0.00    -0.200 F 
ATOM      2  F   UNL     1      36.241 -20.035 -19.729  0.00  0.00    -0.200 F 
ATOM      3  F   UNL     1      31.505 -20.003 -20.088  0.00  0.00    -0.203 F 
ATOM      4  C   UNL     1      33.691 -21.592 -17.657  0.00  0.00    +0.089 C 
ATOM      5  C   UNL     1      33.876 -19.999 -19.939  0.00  0.00    +0.110 C 
ATOM      6  C   UNL     1      34.942 -21.203 -18.136  0.00  0.00    +0.182 C 
ATOM      7  C   UNL     1      32.533 -21.184 -18.318  0.00  0.00    +0.048 C 
ATOM      8  C   UNL     1      35.034 -20.406 -19.278  0.00  0.00    +0.184 C 
ATOM      9  C   UNL     1      32.625 -20.388 -19.459  0.00  0.00    +0.157 C 
ENDROOT
BRANCH   5  11
ATOM     10  O   UNL     1      34.176 -16.816 -24.407  0.00  0.00    -0.291 OA
ATOM     11  N   UNL     1      33.969 -19.191 -21.103  0.00  0.00    -0.282 N 
ATOM     12  C   UNL     1      34.620 -17.876 -20.966  0.00  0.00    +0.104 C 
ATOM     13  C   UNL     1      34.084 -16.891 -22.005  0.00  0.00    +0.091 C 
ATOM     14  C   UNL     1      33.648 -19.646 -22.373  0.00  0.00    +0.068 C 
ATOM     15  C   UNL     1      34.027 -17.495 -23.393  0.00  0.00    +0.176 C 
ATOM     16  C   UNL     1      33.686 -18.931 -23.502  0.00  0.00    +0.054 C 
ENDBRANCH   5  11
BRANCH   4  19
ATOM     17  O   UNL     1      32.908 -23.941 -14.988  0.00  0.00    -0.434 OA
ATOM     18  O   UNL     1      31.713 -23.779 -16.909  0.00  0.00    -0.226 OA
ATOM     19  N   UNL     1      33.594 -22.404 -16.491  0.00  0.00    -0.219 N 
ATOM     20  C   UNL     1      34.173 -23.459 -14.514  0.00  0.00    +0.210 C 
ATOM     21  C   UNL     1      34.433 -22.216 -15.338  0.00  0.00    +0.147 C 
ATOM     22  C   UNL     1      32.656 -23.399 -16.228  0.00  0.00    +0.409 C 
BRANCH  20  23
ATOM     23  C   UNL     1      35.221 -24.545 -14.720  0.00  0.00    +0.134 C 
BRANCH  23  25
ATOM     24  O   UNL     1      38.901 -26.676 -13.975  0.00  0.00    -0.349 OA
ATOM     25  N   UNL     1      36.475 -24.133 -14.142  0.00  0.00    -0.312 N 
ATOM     26  N   UNL     1      37.622 -26.264 -14.328  0.00  0.00    -0.062 NA
ATOM     27  C   UNL     1      37.565 -24.975 -13.981  0.00  0.00    +0.171 C 
ATOM     28  C   UNL     1      38.766 -24.523 -13.410  0.00  0.00    +0.081 C 
ATOM     29  C   UNL     1      39.573 -25.630 -13.429  0.00  0.00    +0.215 C 
ATOM     30  H   UNL     1      36.561 -23.198 -13.842  0.00  0.00    +0.148 HD
ENDBRANCH  23  25
ENDBRANCH  20  23
ENDBRANCH   4  19
TORSDOF 4
ENDMDL
MODEL 7
REMARK VINA RESULT:     -10.7      2.340      3.342
REMARK  Name = 25184541
REMARK  4 active torsions:
REMARK  status: ('A' for Active; 'I' for Inactive)
REMARK    1  A    between atoms: C_4  and  N_19
REMARK    2  A    between atoms: C_5  and  N_11
REMARK    3  A    between atoms: C_20  and  C_23
REMARK    4  A    between atoms: C_23  and  N_25
REMARK                            x       y       z     vdW  Elec       q    Type
REMARK                         _______ _______ _______ _____ _____    ______ ____
ROOT
ATOM      1  F   UNL     1      31.898 -21.444 -18.223  0.00  0.00    -0.200 F 
ATOM      2  F   UNL     1      31.756 -19.787 -20.371  0.00  0.00    -0.200 F 
ATOM      3  F   UNL     1      36.485 -19.346 -20.342  0.00  0.00    -0.203 F 
ATOM      4  C   UNL     1      34.264 -21.246 -18.180  0.00  0.00    +0.089 C 
ATOM      5  C   UNL     1      34.118 -19.544 -20.385  0.00  0.00    +0.110 C 
ATOM      6  C   UNL     1      33.025 -20.932 -18.738  0.00  0.00    +0.182 C 
ATOM      7  C   UNL     1      35.431 -20.709 -18.725  0.00  0.00    +0.048 C 
ATOM      8  C   UNL     1      32.953 -20.081 -19.841  0.00  0.00    +0.184 C 
ATOM      9  C   UNL     1      35.357 -19.858 -19.827  0.00  0.00    +0.157 C 
ENDROOT
BRANCH   5  11
ATOM     10  O   UNL     1      33.772 -16.132 -24.677  0.00  0.00    -0.291 OA
ATOM     11  N   UNL     1      34.044 -18.675 -21.505  0.00  0.00    -0.282 N 
ATOM     12  C   UNL     1      34.639 -17.334 -21.366  0.00  0.00    +0.104 C 
ATOM     13  C   UNL     1      33.945 -16.331 -22.287  0.00  0.00    +0.091 C 
ATOM     14  C   UNL     1      33.611 -19.083 -22.758  0.00  0.00    +0.068 C 
ATOM     15  C   UNL     1      33.768 -16.867 -23.692  0.00  0.00    +0.176 C 
ATOM     16  C   UNL     1      33.490 -18.313 -23.844  0.00  0.00    +0.054 C 
ENDBRANCH   5  11
BRANCH   4  19
ATOM     17  O   UNL     1      35.100 -23.250 -15.258  0.00  0.00    -0.434 OA
ATOM     18  O   UNL     1      36.562 -21.851 -16.281  0.00  0.00    -0.226 OA
ATOM     19  N   UNL     1      34.342 -22.116 -17.055  0.00  0.00    -0.219 N 
ATOM     20  C   UNL     1      33.686 -23.481 -15.306  0.00  0.00    +0.210 C 
ATOM     21  C   UNL     1      33.274 -23.004 -16.682  0.00  0.00    +0.147 C 
ATOM     22  C   UNL     1      35.438 -22.330 -16.224  0.00  0.00    +0.409 C 
BRANCH  20  23
ATOM     23  C   UNL     1      33.022 -22.701 -14.178  0.00  0.00    +0.134 C 
BRANCH  23  25
ATOM     24  O   UNL     1      36.075 -23.149 -11.158  0.00  0.00    -0.349 OA
ATOM     25  N   UNL     1      33.068 -23.467 -12.958  0.00  0.00    -0.312 N 
ATOM     26  N   UNL     1      35.301 -22.816 -12.263  0.00  0.00    -0.062 NA
ATOM     27  C   UNL     1      34.157 -23.487 -12.099  0.00  0.00    +0.171 C 
ATOM     28  C   UNL     1      34.152 -24.252 -10.921  0.00  0.00    +0.081 C 
ATOM     29  C   UNL     1      35.379 -24.005 -10.366  0.00  0.00    +0.215 C 
ATOM     30  H   UNL     1      32.281 -24.010 -12.722  0.00  0.00    +0.148 HD
ENDBRANCH  23  25
ENDBRANCH  20  23
ENDBRANCH   4  19
TORSDOF 4
ENDMDL
MODEL 8
REMARK VINA RESULT:     -10.6      8.840     13.965
REMARK  Name = 25184541
REMARK  4 active torsions:
REMARK  status: ('A' for Active; 'I' for Inactive)
REMARK    1  A    between atoms: C_4  and  N_19
REMARK    2  A    between atoms: C_5  and  N_11
REMARK    3  A    between atoms: C_20  and  C_23
REMARK    4  A    between atoms: C_23  and  N_25
REMARK                            x       y       z     vdW  Elec       q    Type
REMARK                         _______ _______ _______ _____ _____    ______ ____
ROOT
ATOM      1  F   UNL     1      32.968  -8.472 -23.191  0.00  0.00    -0.200 F 
ATOM      2  F   UNL     1      33.780 -10.861 -24.196  0.00  0.00    -0.200 F 
ATOM      3  F   UNL     1      31.093 -13.120 -20.995  0.00  0.00    -0.203 F 
ATOM      4  C   UNL     1      31.613  -9.569 -21.577  0.00  0.00    +0.089 C 
ATOM      5  C   UNL     1      32.448 -12.022 -22.609  0.00  0.00    +0.110 C 
ATOM      6  C   UNL     1      32.506  -9.608 -22.648  0.00  0.00    +0.182 C 
ATOM      7  C   UNL     1      31.138 -10.757 -21.022  0.00  0.00    +0.048 C 
ATOM      8  C   UNL     1      32.923 -10.835 -23.164  0.00  0.00    +0.184 C 
ATOM      9  C   UNL     1      31.556 -11.983 -21.538  0.00  0.00    +0.157 C 
ENDROOT
BRANCH   5  11
ATOM     10  O   UNL     1      34.016 -16.885 -24.629  0.00  0.00    -0.291 OA
ATOM     11  N   UNL     1      32.875 -13.271 -23.132  0.00  0.00    -0.282 N 
ATOM     12  C   UNL     1      32.496 -13.593 -24.519  0.00  0.00    +0.104 C 
ATOM     13  C   UNL     1      32.402 -15.104 -24.723  0.00  0.00    +0.091 C 
ATOM     14  C   UNL     1      33.767 -14.106 -22.475  0.00  0.00    +0.068 C 
ATOM     15  C   UNL     1      33.593 -15.838 -24.142  0.00  0.00    +0.176 C 
ATOM     16  C   UNL     1      34.187 -15.303 -22.896  0.00  0.00    +0.054 C 
ENDBRANCH   5  11
BRANCH   4  19
ATOM     17  O   UNL     1      30.776  -6.598 -19.646  0.00  0.00    -0.434 OA
ATOM     18  O   UNL     1      31.829  -8.408 -18.774  0.00  0.00    -0.226 OA
ATOM     19  N   UNL     1      31.185  -8.318 -21.049  0.00  0.00    -0.219 N 
ATOM     20  C   UNL     1      30.460  -6.122 -20.961  0.00  0.00    +0.210 C 
ATOM     21  C   UNL     1      30.415  -7.373 -21.813  0.00  0.00    +0.147 C 
ATOM     22  C   UNL     1      31.331  -7.854 -19.745  0.00  0.00    +0.409 C 
BRANCH  20  23
ATOM     23  C   UNL     1      31.536  -5.137 -21.400  0.00  0.00    +0.134 C 
BRANCH  23  25
ATOM     24  O   UNL     1      34.253  -5.391 -24.744  0.00  0.00    -0.349 OA
ATOM     25  N   UNL     1      31.377  -4.827 -22.798  0.00  0.00    -0.312 N 
ATOM     26  N   UNL     1      33.622  -5.417 -23.507  0.00  0.00    -0.062 NA
ATOM     27  C   UNL     1      32.383  -4.975 -23.741  0.00  0.00    +0.171 C 
ATOM     28  C   UNL     1      32.177  -4.658 -25.094  0.00  0.00    +0.081 C 
ATOM     29  C   UNL     1      33.382  -4.937 -25.682  0.00  0.00    +0.215 C 
ATOM     30  H   UNL     1      30.503  -4.488 -23.101  0.00  0.00    +0.148 HD
ENDBRANCH  23  25
ENDBRANCH  20  23
ENDBRANCH   4  19
TORSDOF 4
ENDMDL
MODEL 9
REMARK VINA RESULT:     -10.6      9.405     14.129
REMARK  Name = 25184541
REMARK  4 active torsions:
REMARK  status: ('A' for Active; 'I' for Inactive)
REMARK    1  A    between atoms: C_4  and  N_19
REMARK    2  A    between atoms: C_5  and  N_11
REMARK    3  A    between atoms: C_20  and  C_23
REMARK    4  A    between atoms: C_23  and  N_25
REMARK                            x       y       z     vdW  Elec       q    Type
REMARK                         _______ _______ _______ _____ _____    ______ ____
ROOT
ATOM      1  F   UNL     1      30.237 -10.611 -20.006  0.00  0.00    -0.200 F 
ATOM      2  F   UNL     1      31.076 -13.030 -20.912  0.00  0.00    -0.200 F 
ATOM      3  F   UNL     1      33.755 -10.871 -24.188  0.00  0.00    -0.203 F 
ATOM      4  C   UNL     1      31.565  -9.499 -21.631  0.00  0.00    +0.089 C 
ATOM      5  C   UNL     1      32.426 -11.983 -22.563  0.00  0.00    +0.110 C 
ATOM      6  C   UNL     1      31.098 -10.669 -21.032  0.00  0.00    +0.182 C 
ATOM      7  C   UNL     1      32.462  -9.572 -22.697  0.00  0.00    +0.048 C 
ATOM      8  C   UNL     1      31.530 -11.911 -21.498  0.00  0.00    +0.184 C 
ATOM      9  C   UNL     1      32.892 -10.813 -23.162  0.00  0.00    +0.157 C 
ENDROOT
BRANCH   5  11
ATOM     10  O   UNL     1      34.031 -16.904 -24.404  0.00  0.00    -0.291 OA
ATOM     11  N   UNL     1      32.862 -13.247 -23.039  0.00  0.00    -0.282 N 
ATOM     12  C   UNL     1      32.508 -13.612 -24.422  0.00  0.00    +0.104 C 
ATOM     13  C   UNL     1      32.418 -15.129 -24.581  0.00  0.00    +0.091 C 
ATOM     14  C   UNL     1      33.743 -14.061 -22.342  0.00  0.00    +0.068 C 
ATOM     15  C   UNL     1      33.599 -15.843 -23.958  0.00  0.00    +0.176 C 
ATOM     16  C   UNL     1      34.171 -15.270 -22.718  0.00  0.00    +0.054 C 
ENDBRANCH   5  11
BRANCH   4  19
ATOM     17  O   UNL     1      30.810  -6.403 -19.872  0.00  0.00    -0.434 OA
ATOM     18  O   UNL     1      32.124  -8.043 -19.020  0.00  0.00    -0.226 OA
ATOM     19  N   UNL     1      31.127  -8.229 -21.158  0.00  0.00    -0.219 N 
ATOM     20  C   UNL     1      30.255  -6.086 -21.155  0.00  0.00    +0.210 C 
ATOM     21  C   UNL     1      30.175  -7.419 -21.869  0.00  0.00    +0.147 C 
ATOM     22  C   UNL     1      31.439  -7.625 -19.943  0.00  0.00    +0.409 C 
BRANCH  20  23
ATOM     23  C   UNL     1      31.168  -5.086 -21.853  0.00  0.00    +0.134 C 
BRANCH  23  25
ATOM     24  O   UNL     1      28.488  -2.452 -23.978  0.00  0.00    -0.349 OA
ATOM     25  N   UNL     1      30.816  -4.988 -23.246  0.00  0.00    -0.312 N 
ATOM     26  N   UNL     1      29.258  -3.137 -23.046  0.00  0.00    -0.062 NA
ATOM     27  C   UNL     1      29.918  -4.060 -23.752  0.00  0.00    +0.171 C 
ATOM     28  C   UNL     1      29.607  -4.006 -25.121  0.00  0.00    +0.081 C 
ATOM     29  C   UNL     1      28.705  -2.979 -25.211  0.00  0.00    +0.215 C 
ATOM     30  H   UNL     1      31.237  -5.618 -23.876  0.00  0.00    +0.148 HD
ENDBRANCH  23  25
ENDBRANCH  20  23
ENDBRANCH   4  19
TORSDOF 4
ENDMDL
