MODEL 1
REMARK VINA RESULT:     -12.0      0.000      0.000
REMARK  Name = 447656
REMARK  5 active torsions:
REMARK  status: ('A' for Active; 'I' for Inactive)
REMARK    1  A    between atoms: N_5  and  C_14
REMARK    2  A    between atoms: C_6  and  O_25
REMARK    3  A    between atoms: C_17  and  C_22
REMARK    4  A    between atoms: O_25  and  C_26
REMARK    5  A    between atoms: C_26  and  C_27
REMARK                            x       y       z     vdW  Elec       q    Type
REMARK                         _______ _______ _______ _____ _____    ______ ____
ROOT
ATOM      1  N   UNL     1      33.020 -23.254 -14.903  0.00  0.00    -0.293 NA
ATOM      2  N   UNL     1      36.678 -23.521 -14.645  0.00  0.00    -0.266 NA
ATOM      3  N   UNL     1      33.798 -24.352 -12.869  0.00  0.00    -0.316 NA
ATOM      4  N   UNL     1      36.218 -24.524 -12.709  0.00  0.00    -0.296 N 
ATOM      5  N   UNL     1      31.517 -24.048 -13.291  0.00  0.00    -0.238 N 
ATOM      6  C   UNL     1      34.284 -23.070 -15.339  0.00  0.00    +0.288 C 
ATOM      7  C   UNL     1      35.316 -23.525 -14.545  0.00  0.00    +0.215 C 
ATOM      8  C   UNL     1      35.056 -24.152 -13.334  0.00  0.00    +0.196 C 
ATOM      9  C   UNL     1      32.856 -23.875 -13.711  0.00  0.00    +0.207 C 
ATOM     10  C   UNL     1      37.174 -24.130 -13.523  0.00  0.00    +0.164 C 
ATOM     11  H   UNL     1      37.206 -23.149 -15.389  0.00  0.00    +0.126 HD
ATOM     12  H   UNL     1      36.316 -24.982 -11.843  0.00  0.00    +0.150 HD
ATOM     13  H   UNL     1      31.429 -24.501 -12.422  0.00  0.00    +0.166 HD
ENDROOT
BRANCH   5  14
ATOM     14  C   UNL     1      30.286 -23.698 -13.873  0.00  0.00    +0.058 C 
ATOM     15  C   UNL     1      29.937 -22.353 -14.022  0.00  0.00    +0.015 C 
ATOM     16  C   UNL     1      29.406 -24.693 -14.306  0.00  0.00    +0.015 C 
ATOM     17  C   UNL     1      27.840 -23.002 -15.030  0.00  0.00    +0.053 C 
ATOM     18  C   UNL     1      28.716 -22.006 -14.599  0.00  0.00    +0.006 C 
ATOM     19  C   UNL     1      28.185 -24.346 -14.884  0.00  0.00    +0.006 C 
BRANCH  17  22
ATOM     20  O   UNL     1      26.277 -22.986 -16.792  0.00  0.00    -0.270 OA
ATOM     21  N   UNL     1      25.670 -21.908 -14.861  0.00  0.00    -0.325 N 
ATOM     22  C   UNL     1      26.567 -22.640 -15.633  0.00  0.00    +0.243 C 
ATOM     23  H   UNL     1      24.799 -21.644 -15.237  0.00  0.00    +0.145 HD
ATOM     24  H   UNL     1      25.907 -21.651 -13.940  0.00  0.00    +0.145 HD
ENDBRANCH  17  22
ENDBRANCH   5  14
BRANCH   6  25
ATOM     25  O   UNL     1      34.485 -22.444 -16.545  0.00  0.00    -0.453 OA
BRANCH  25  26
ATOM     26  C   UNL     1      33.364 -22.321 -17.401  0.00  0.00    +0.208 C 
BRANCH  26  27
ATOM     27  C   UNL     1      33.809 -21.626 -18.686  0.00  0.00    +0.044 C 
ATOM     28  C   UNL     1      32.752 -20.614 -19.149  0.00  0.00    +0.004 C 
ATOM     29  C   UNL     1      35.169 -20.944 -18.490  0.00  0.00    +0.004 C 
ATOM     30  C   UNL     1      33.198 -19.867 -20.404  0.00  0.00    +0.000 C 
ATOM     31  C   UNL     1      35.611 -20.197 -19.746  0.00  0.00    +0.000 C 
ATOM     32  C   UNL     1      34.555 -19.199 -20.209  0.00  0.00    +0.000 C 
ENDBRANCH  26  27
ENDBRANCH  25  26
ENDBRANCH   6  25
TORSDOF 5
ENDMDL
MODEL 2
REMARK VINA RESULT:     -11.9      1.279      1.696
REMARK  Name = 447656
REMARK  5 active torsions:
REMARK  status: ('A' for Active; 'I' for Inactive)
REMARK    1  A    between atoms: N_5  and  C_14
REMARK    2  A    between atoms: C_6  and  O_25
REMARK    3  A    between atoms: C_17  and  C_22
REMARK    4  A    between atoms: O_25  and  C_26
REMARK    5  A    between atoms: C_26  and  C_27
REMARK                            x       y       z     vdW  Elec       q    Type
REMARK                         _______ _______ _______ _____ _____    ______ ____
ROOT
ATOM      1  N   UNL     1      33.498 -23.654 -13.722  0.00  0.00    -0.293 NA
ATOM      2  N   UNL     1      37.011 -23.774 -12.641  0.00  0.00    -0.266 NA
ATOM      3  N   UNL     1      33.792 -23.904 -11.312  0.00  0.00    -0.316 NA
ATOM      4  N   UNL     1      36.118 -23.983 -10.609  0.00  0.00    -0.296 N 
ATOM      5  N   UNL     1      31.662 -23.799 -12.275  0.00  0.00    -0.238 N 
ATOM      6  C   UNL     1      34.832 -23.636 -13.926  0.00  0.00    +0.288 C 
ATOM      7  C   UNL     1      35.658 -23.751 -12.827  0.00  0.00    +0.215 C 
ATOM      8  C   UNL     1      35.126 -23.882 -11.551  0.00  0.00    +0.196 C 
ATOM      9  C   UNL     1      33.065 -23.784 -12.445  0.00  0.00    +0.207 C 
ATOM     10  C   UNL     1      37.237 -23.914 -11.298  0.00  0.00    +0.164 C 
ATOM     11  H   UNL     1      37.697 -23.704 -13.344  0.00  0.00    +0.126 HD
ATOM     12  H   UNL     1      36.015 -24.083  -9.635  0.00  0.00    +0.150 HD
ATOM     13  H   UNL     1      31.377 -23.894 -11.337  0.00  0.00    +0.166 HD
ENDROOT
BRANCH   5  14
ATOM     14  C   UNL     1      30.593 -23.702 -13.183  0.00  0.00    +0.058 C 
ATOM     15  C   UNL     1      30.459 -22.571 -13.992  0.00  0.00    +0.015 C 
ATOM     16  C   UNL     1      29.660 -24.738 -13.282  0.00  0.00    +0.015 C 
ATOM     17  C   UNL     1      28.470 -23.510 -14.989  0.00  0.00    +0.053 C 
ATOM     18  C   UNL     1      29.399 -22.474 -14.893  0.00  0.00    +0.006 C 
ATOM     19  C   UNL     1      28.600 -24.642 -14.184  0.00  0.00    +0.006 C 
BRANCH  17  22
ATOM     20  O   UNL     1      26.958 -24.404 -16.559  0.00  0.00    -0.270 OA
ATOM     21  N   UNL     1      26.761 -22.167 -16.090  0.00  0.00    -0.325 N 
ATOM     22  C   UNL     1      27.366 -23.411 -15.930  0.00  0.00    +0.243 C 
ATOM     23  H   UNL     1      26.011 -22.062 -16.719  0.00  0.00    +0.145 HD
ATOM     24  H   UNL     1      27.085 -21.392 -15.576  0.00  0.00    +0.145 HD
ENDBRANCH  17  22
ENDBRANCH   5  14
BRANCH   6  25
ATOM     25  O   UNL     1      35.305 -23.505 -15.209  0.00  0.00    -0.453 OA
BRANCH  25  26
ATOM     26  C   UNL     1      35.437 -22.189 -15.714  0.00  0.00    +0.208 C 
BRANCH  26  27
ATOM     27  C   UNL     1      34.825 -22.144 -17.113  0.00  0.00    +0.044 C 
ATOM     28  C   UNL     1      33.296 -22.039 -17.033  0.00  0.00    +0.004 C 
ATOM     29  C   UNL     1      35.410 -20.979 -17.923  0.00  0.00    +0.004 C 
ATOM     30  C   UNL     1      32.664 -21.939 -18.419  0.00  0.00    +0.000 C 
ATOM     31  C   UNL     1      34.773 -20.880 -19.308  0.00  0.00    +0.000 C 
ATOM     32  C   UNL     1      33.254 -20.786 -19.224  0.00  0.00    +0.000 C 
ENDBRANCH  26  27
ENDBRANCH  25  26
ENDBRANCH   6  25
TORSDOF 5
ENDMDL
MODEL 3
REMARK VINA RESULT:     -11.6      1.996      6.724
REMARK  Name = 447656
REMARK  5 active torsions:
REMARK  status: ('A' for Active; 'I' for Inactive)
REMARK    1  A    between atoms: N_5  and  C_14
REMARK    2  A    between atoms: C_6  and  O_25
REMARK    3  A    between atoms: C_17  and  C_22
REMARK    4  A    between atoms: O_25  and  C_26
REMARK    5  A    between atoms: C_26  and  C_27
REMARK                            x       y       z     vdW  Elec       q    Type
REMARK                         _______ _______ _______ _____ _____    ______ ____
ROOT
ATOM      1  N   UNL     1      33.116 -23.630 -14.748  0.00  0.00    -0.293 NA
ATOM      2  N   UNL     1      29.651 -22.682 -15.533  0.00  0.00    -0.266 NA
ATOM      3  N   UNL     1      31.572 -23.853 -12.872  0.00  0.00    -0.316 NA
ATOM      4  N   UNL     1      29.285 -23.223 -13.402  0.00  0.00    -0.296 N 
ATOM      5  N   UNL     1      33.840 -24.388 -12.653  0.00  0.00    -0.238 N 
ATOM      6  C   UNL     1      32.132 -23.190 -15.561  0.00  0.00    +0.288 C 
ATOM      7  C   UNL     1      30.861 -23.077 -15.038  0.00  0.00    +0.215 C 
ATOM      8  C   UNL     1      30.607 -23.408 -13.713  0.00  0.00    +0.196 C 
ATOM      9  C   UNL     1      32.781 -23.931 -13.471  0.00  0.00    +0.207 C 
ATOM     10  C   UNL     1      28.739 -22.786 -14.517  0.00  0.00    +0.164 C 
ATOM     11  H   UNL     1      29.469 -22.377 -16.451  0.00  0.00    +0.126 HD
ATOM     12  H   UNL     1      28.842 -23.381 -12.537  0.00  0.00    +0.150 HD
ATOM     13  H   UNL     1      33.566 -24.599 -11.732  0.00  0.00    +0.166 HD
ENDROOT
BRANCH   5  14
ATOM     14  C   UNL     1      35.207 -24.600 -12.900  0.00  0.00    +0.058 C 
ATOM     15  C   UNL     1      36.159 -23.711 -12.393  0.00  0.00    +0.015 C 
ATOM     16  C   UNL     1      35.622 -25.701 -13.654  0.00  0.00    +0.015 C 
ATOM     17  C   UNL     1      37.926 -25.022 -13.390  0.00  0.00    +0.053 C 
ATOM     18  C   UNL     1      37.516 -23.922 -12.637  0.00  0.00    +0.006 C 
ATOM     19  C   UNL     1      36.979 -25.912 -13.898  0.00  0.00    +0.006 C 
BRANCH  17  22
ATOM     20  O   UNL     1      40.100 -24.303 -13.939  0.00  0.00    -0.270 OA
ATOM     21  N   UNL     1      39.825 -26.542 -13.527  0.00  0.00    -0.325 N 
ATOM     22  C   UNL     1      39.340 -25.242 -13.644  0.00  0.00    +0.243 C 
ATOM     23  H   UNL     1      40.777 -26.729 -13.693  0.00  0.00    +0.145 HD
ATOM     24  H   UNL     1      39.215 -27.275 -13.281  0.00  0.00    +0.145 HD
ENDBRANCH  17  22
ENDBRANCH   5  14
BRANCH   6  25
ATOM     25  O   UNL     1      32.439 -22.876 -16.863  0.00  0.00    -0.453 OA
BRANCH  25  26
ATOM     26  C   UNL     1      33.741 -22.380 -17.115  0.00  0.00    +0.208 C 
BRANCH  26  27
ATOM     27  C   UNL     1      33.750 -21.723 -18.494  0.00  0.00    +0.044 C 
ATOM     28  C   UNL     1      32.474 -20.898 -18.710  0.00  0.00    +0.004 C 
ATOM     29  C   UNL     1      35.000 -20.851 -18.671  0.00  0.00    +0.004 C 
ATOM     30  C   UNL     1      32.483 -20.187 -20.062  0.00  0.00    +0.000 C 
ATOM     31  C   UNL     1      35.005 -20.141 -20.022  0.00  0.00    +0.000 C 
ATOM     32  C   UNL     1      33.731 -19.329 -20.237  0.00  0.00    +0.000 C 
ENDBRANCH  26  27
ENDBRANCH  25  26
ENDBRANCH   6  25
TORSDOF 5
ENDMDL
MODEL 4
REMARK VINA RESULT:     -11.4      2.810      7.207
REMARK  Name = 447656
REMARK  5 active torsions:
REMARK  status: ('A' for Active; 'I' for Inactive)
REMARK    1  A    between atoms: N_5  and  C_14
REMARK    2  A    between atoms: C_6  and  O_25
REMARK    3  A    between atoms: C_17  and  C_22
REMARK    4  A    between atoms: O_25  and  C_26
REMARK    5  A    between atoms: C_26  and  C_27
REMARK                            x       y       z     vdW  Elec       q    Type
REMARK                         _______ _______ _______ _____ _____    ______ ____
ROOT
ATOM      1  N   UNL     1      32.962 -22.365 -15.752  0.00  0.00    -0.293 NA
ATOM      2  N   UNL     1      31.853 -24.181 -12.752  0.00  0.00    -0.266 NA
ATOM      3  N   UNL     1      30.707 -23.283 -15.918  0.00  0.00    -0.316 NA
ATOM      4  N   UNL     1      29.985 -24.481 -13.930  0.00  0.00    -0.296 N 
ATOM      5  N   UNL     1      31.665 -22.080 -17.681  0.00  0.00    -0.238 N 
ATOM      6  C   UNL     1      33.114 -22.852 -14.502  0.00  0.00    +0.288 C 
ATOM      7  C   UNL     1      32.065 -23.558 -13.949  0.00  0.00    +0.215 C 
ATOM      8  C   UNL     1      30.891 -23.758 -14.662  0.00  0.00    +0.196 C 
ATOM      9  C   UNL     1      31.783 -22.607 -16.375  0.00  0.00    +0.207 C 
ATOM     10  C   UNL     1      30.595 -24.719 -12.788  0.00  0.00    +0.164 C 
ATOM     11  H   UNL     1      32.489 -24.235 -12.002  0.00  0.00    +0.126 HD
ATOM     12  H   UNL     1      29.079 -24.760 -14.198  0.00  0.00    +0.150 HD
ATOM     13  H   UNL     1      30.799 -22.270 -18.109  0.00  0.00    +0.166 HD
ENDROOT
BRANCH   5  14
ATOM     14  C   UNL     1      32.543 -21.336 -18.490  0.00  0.00    +0.058 C 
ATOM     15  C   UNL     1      32.040 -20.388 -19.384  0.00  0.00    +0.015 C 
ATOM     16  C   UNL     1      33.922 -21.543 -18.403  0.00  0.00    +0.015 C 
ATOM     17  C   UNL     1      34.287 -19.858 -20.096  0.00  0.00    +0.053 C 
ATOM     18  C   UNL     1      32.910 -19.649 -20.186  0.00  0.00    +0.006 C 
ATOM     19  C   UNL     1      34.793 -20.805 -19.205  0.00  0.00    +0.006 C 
BRANCH  17  22
ATOM     20  O   UNL     1      34.883 -18.751 -22.088  0.00  0.00    -0.270 OA
ATOM     21  N   UNL     1      36.422 -18.722 -20.387  0.00  0.00    -0.325 N 
ATOM     22  C   UNL     1      35.194 -19.089 -20.931  0.00  0.00    +0.243 C 
ATOM     23  H   UNL     1      37.062 -18.201 -20.924  0.00  0.00    +0.145 HD
ATOM     24  H   UNL     1      36.651 -18.985 -19.466  0.00  0.00    +0.145 HD
ENDBRANCH  17  22
ENDBRANCH   5  14
BRANCH   6  25
ATOM     25  O   UNL     1      34.297 -22.625 -13.841  0.00  0.00    -0.453 OA
BRANCH  25  26
ATOM     26  C   UNL     1      35.491 -22.905 -14.549  0.00  0.00    +0.208 C 
BRANCH  26  27
ATOM     27  C   UNL     1      36.297 -23.929 -13.752  0.00  0.00    +0.044 C 
ATOM     28  C   UNL     1      36.346 -23.544 -12.267  0.00  0.00    +0.004 C 
ATOM     29  C   UNL     1      35.714 -25.337 -13.932  0.00  0.00    +0.004 C 
ATOM     30  C   UNL     1      37.102 -24.581 -11.440  0.00  0.00    +0.000 C 
ATOM     31  C   UNL     1      36.471 -26.370 -13.101  0.00  0.00    +0.000 C 
ATOM     32  C   UNL     1      36.525 -25.980 -11.628  0.00  0.00    +0.000 C 
ENDBRANCH  26  27
ENDBRANCH  25  26
ENDBRANCH   6  25
TORSDOF 5
ENDMDL
MODEL 5
REMARK VINA RESULT:     -11.2      2.657      6.173
REMARK  Name = 447656
REMARK  5 active torsions:
REMARK  status: ('A' for Active; 'I' for Inactive)
REMARK    1  A    between atoms: N_5  and  C_14
REMARK    2  A    between atoms: C_6  and  O_25
REMARK    3  A    between atoms: C_17  and  C_22
REMARK    4  A    between atoms: O_25  and  C_26
REMARK    5  A    between atoms: C_26  and  C_27
REMARK                            x       y       z     vdW  Elec       q    Type
REMARK                         _______ _______ _______ _____ _____    ______ ____
ROOT
ATOM      1  N   UNL     1      34.565 -23.429 -14.802  0.00  0.00    -0.293 NA
ATOM      2  N   UNL     1      35.418 -25.330 -11.771  0.00  0.00    -0.266 NA
ATOM      3  N   UNL     1      36.948 -23.456 -14.280  0.00  0.00    -0.316 NA
ATOM      4  N   UNL     1      37.500 -24.715 -12.275  0.00  0.00    -0.296 N 
ATOM      5  N   UNL     1      36.125 -22.321 -16.153  0.00  0.00    -0.238 N 
ATOM      6  C   UNL     1      34.276 -24.186 -13.722  0.00  0.00    +0.288 C 
ATOM      7  C   UNL     1      35.319 -24.585 -12.912  0.00  0.00    +0.215 C 
ATOM      8  C   UNL     1      36.625 -24.215 -13.204  0.00  0.00    +0.196 C 
ATOM      9  C   UNL     1      35.865 -23.115 -15.012  0.00  0.00    +0.207 C 
ATOM     10  C   UNL     1      36.742 -25.380 -11.428  0.00  0.00    +0.164 C 
ATOM     11  H   UNL     1      34.673 -25.753 -11.285  0.00  0.00    +0.126 HD
ATOM     12  H   UNL     1      38.478 -24.603 -12.247  0.00  0.00    +0.150 HD
ATOM     13  H   UNL     1      37.078 -22.109 -16.280  0.00  0.00    +0.166 HD
ENDROOT
BRANCH   5  14
ATOM     14  C   UNL     1      35.287 -21.775 -17.141  0.00  0.00    +0.058 C 
ATOM     15  C   UNL     1      33.920 -22.065 -17.141  0.00  0.00    +0.015 C 
ATOM     16  C   UNL     1      35.818 -20.942 -18.129  0.00  0.00    +0.015 C 
ATOM     17  C   UNL     1      33.622 -20.691 -19.106  0.00  0.00    +0.053 C 
ATOM     18  C   UNL     1      33.089 -21.524 -18.121  0.00  0.00    +0.006 C 
ATOM     19  C   UNL     1      34.986 -20.400 -19.109  0.00  0.00    +0.006 C 
BRANCH  17  22
ATOM     20  O   UNL     1      31.520 -20.260 -20.076  0.00  0.00    -0.270 OA
ATOM     21  N   UNL     1      33.354 -19.410 -21.160  0.00  0.00    -0.325 N 
ATOM     22  C   UNL     1      32.756 -20.126 -20.127  0.00  0.00    +0.243 C 
ATOM     23  H   UNL     1      32.798 -19.014 -21.870  0.00  0.00    +0.145 HD
ATOM     24  H   UNL     1      34.332 -19.301 -21.182  0.00  0.00    +0.145 HD
ENDBRANCH  17  22
ENDBRANCH   5  14
BRANCH   6  25
ATOM     25  O   UNL     1      32.966 -24.522 -13.479  0.00  0.00    -0.453 OA
BRANCH  25  26
ATOM     26  C   UNL     1      32.240 -23.685 -12.598  0.00  0.00    +0.208 C 
BRANCH  26  27
ATOM     27  C   UNL     1      30.825 -23.515 -13.147  0.00  0.00    +0.044 C 
ATOM     28  C   UNL     1      30.858 -22.865 -14.538  0.00  0.00    +0.004 C 
ATOM     29  C   UNL     1      30.095 -24.863 -13.192  0.00  0.00    +0.004 C 
ATOM     30  C   UNL     1      29.458 -22.732 -15.131  0.00  0.00    +0.000 C 
ATOM     31  C   UNL     1      28.696 -24.727 -13.788  0.00  0.00    +0.000 C 
ATOM     32  C   UNL     1      28.732 -24.073 -15.165  0.00  0.00    +0.000 C 
ENDBRANCH  26  27
ENDBRANCH  25  26
ENDBRANCH   6  25
TORSDOF 5
ENDMDL
MODEL 6
REMARK VINA RESULT:     -11.1      1.388      2.019
REMARK  Name = 447656
REMARK  5 active torsions:
REMARK  status: ('A' for Active; 'I' for Inactive)
REMARK    1  A    between atoms: N_5  and  C_14
REMARK    2  A    between atoms: C_6  and  O_25
REMARK    3  A    between atoms: C_17  and  C_22
REMARK    4  A    between atoms: O_25  and  C_26
REMARK    5  A    between atoms: C_26  and  C_27
REMARK                            x       y       z     vdW  Elec       q    Type
REMARK                         _______ _______ _______ _____ _____    ______ ____
ROOT
ATOM      1  N   UNL     1      34.436 -23.201 -14.740  0.00  0.00    -0.293 NA
ATOM      2  N   UNL     1      38.096 -23.529 -14.601  0.00  0.00    -0.266 NA
ATOM      3  N   UNL     1      35.219 -25.063 -13.371  0.00  0.00    -0.316 NA
ATOM      4  N   UNL     1      37.640 -25.270 -13.287  0.00  0.00    -0.296 N 
ATOM      5  N   UNL     1      32.937 -24.621 -13.634  0.00  0.00    -0.238 N 
ATOM      6  C   UNL     1      35.699 -22.839 -15.047  0.00  0.00    +0.288 C 
ATOM      7  C   UNL     1      36.734 -23.585 -14.520  0.00  0.00    +0.215 C 
ATOM      8  C   UNL     1      36.476 -24.674 -13.698  0.00  0.00    +0.196 C 
ATOM      9  C   UNL     1      34.275 -24.276 -13.931  0.00  0.00    +0.207 C 
ATOM     10  C   UNL     1      38.594 -24.558 -13.847  0.00  0.00    +0.164 C 
ATOM     11  H   UNL     1      38.622 -22.870 -15.110  0.00  0.00    +0.126 HD
ATOM     12  H   UNL     1      37.740 -26.056 -12.702  0.00  0.00    +0.150 HD
ATOM     13  H   UNL     1      32.851 -25.405 -13.045  0.00  0.00    +0.166 HD
ENDROOT
BRANCH   5  14
ATOM     14  C   UNL     1      31.704 -24.063 -14.016  0.00  0.00    +0.058 C 
ATOM     15  C   UNL     1      30.539 -24.387 -13.314  0.00  0.00    +0.015 C 
ATOM     16  C   UNL     1      31.637 -23.183 -15.098  0.00  0.00    +0.015 C 
ATOM     17  C   UNL     1      29.253 -22.955 -14.774  0.00  0.00    +0.053 C 
ATOM     18  C   UNL     1      29.316 -23.834 -13.692  0.00  0.00    +0.006 C 
ATOM     19  C   UNL     1      30.414 -22.629 -15.477  0.00  0.00    +0.006 C 
BRANCH  17  22
ATOM     20  O   UNL     1      27.363 -21.595 -14.422  0.00  0.00    -0.270 OA
ATOM     21  N   UNL     1      27.476 -22.712 -16.421  0.00  0.00    -0.325 N 
ATOM     22  C   UNL     1      27.979 -22.377 -15.168  0.00  0.00    +0.243 C 
ATOM     23  H   UNL     1      26.614 -22.341 -16.722  0.00  0.00    +0.145 HD
ATOM     24  H   UNL     1      27.979 -23.323 -17.007  0.00  0.00    +0.145 HD
ENDBRANCH  17  22
ENDBRANCH   5  14
BRANCH   6  25
ATOM     25  O   UNL     1      35.898 -21.754 -15.865  0.00  0.00    -0.453 OA
BRANCH  25  26
ATOM     26  C   UNL     1      35.865 -21.987 -17.261  0.00  0.00    +0.208 C 
BRANCH  26  27
ATOM     27  C   UNL     1      34.784 -21.099 -17.875  0.00  0.00    +0.044 C 
ATOM     28  C   UNL     1      35.232 -20.568 -19.243  0.00  0.00    +0.004 C 
ATOM     29  C   UNL     1      33.458 -21.861 -17.992  0.00  0.00    +0.004 C 
ATOM     30  C   UNL     1      34.146 -19.719 -19.902  0.00  0.00    +0.000 C 
ATOM     31  C   UNL     1      32.376 -21.011 -18.653  0.00  0.00    +0.000 C 
ATOM     32  C   UNL     1      32.827 -20.477 -20.008  0.00  0.00    +0.000 C 
ENDBRANCH  26  27
ENDBRANCH  25  26
ENDBRANCH   6  25
TORSDOF 5
ENDMDL
MODEL 7
REMARK VINA RESULT:     -10.7      2.719      7.595
REMARK  Name = 447656
REMARK  5 active torsions:
REMARK  status: ('A' for Active; 'I' for Inactive)
REMARK    1  A    between atoms: N_5  and  C_14
REMARK    2  A    between atoms: C_6  and  O_25
REMARK    3  A    between atoms: C_17  and  C_22
REMARK    4  A    between atoms: O_25  and  C_26
REMARK    5  A    between atoms: C_26  and  C_27
REMARK                            x       y       z     vdW  Elec       q    Type
REMARK                         _______ _______ _______ _____ _____    ______ ____
ROOT
ATOM      1  N   UNL     1      34.136 -22.230 -16.845  0.00  0.00    -0.293 NA
ATOM      2  N   UNL     1      32.622 -20.686 -19.819  0.00  0.00    -0.266 NA
ATOM      3  N   UNL     1      35.627 -20.725 -18.055  0.00  0.00    -0.316 NA
ATOM      4  N   UNL     1      34.616 -19.710 -20.020  0.00  0.00    -0.296 N 
ATOM      5  N   UNL     1      36.331 -21.843 -16.124  0.00  0.00    -0.238 N 
ATOM      6  C   UNL     1      33.132 -22.008 -17.719  0.00  0.00    +0.288 C 
ATOM      7  C   UNL     1      33.366 -21.144 -18.769  0.00  0.00    +0.215 C 
ATOM      8  C   UNL     1      34.599 -20.523 -18.916  0.00  0.00    +0.196 C 
ATOM      9  C   UNL     1      35.306 -21.583 -17.063  0.00  0.00    +0.207 C 
ATOM     10  C   UNL     1      33.413 -19.831 -20.540  0.00  0.00    +0.164 C 
ATOM     11  H   UNL     1      31.689 -20.928 -20.021  0.00  0.00    +0.126 HD
ATOM     12  H   UNL     1      35.362 -19.159 -20.350  0.00  0.00    +0.150 HD
ATOM     13  H   UNL     1      37.169 -21.359 -16.308  0.00  0.00    +0.166 HD
ENDROOT
BRANCH   5  14
ATOM     14  C   UNL     1      36.387 -22.656 -14.979  0.00  0.00    +0.058 C 
ATOM     15  C   UNL     1      35.411 -22.539 -13.986  0.00  0.00    +0.015 C 
ATOM     16  C   UNL     1      37.419 -23.586 -14.828  0.00  0.00    +0.015 C 
ATOM     17  C   UNL     1      36.498 -24.274 -12.703  0.00  0.00    +0.053 C 
ATOM     18  C   UNL     1      35.466 -23.346 -12.850  0.00  0.00    +0.006 C 
ATOM     19  C   UNL     1      37.474 -24.394 -13.692  0.00  0.00    +0.006 C 
BRANCH  17  22
ATOM     20  O   UNL     1      36.817 -24.643 -10.399  0.00  0.00    -0.270 OA
ATOM     21  N   UNL     1      36.287 -26.472 -11.676  0.00  0.00    -0.325 N 
ATOM     22  C   UNL     1      36.555 -25.116 -11.520  0.00  0.00    +0.243 C 
ATOM     23  H   UNL     1      36.317 -27.074 -10.897  0.00  0.00    +0.145 HD
ATOM     24  H   UNL     1      36.069 -26.832 -12.566  0.00  0.00    +0.145 HD
ENDBRANCH  17  22
ENDBRANCH   5  14
BRANCH   6  25
ATOM     25  O   UNL     1      31.932 -22.649 -17.528  0.00  0.00    -0.453 OA
BRANCH  25  26
ATOM     26  C   UNL     1      31.085 -22.137 -16.515  0.00  0.00    +0.208 C 
BRANCH  26  27
ATOM     27  C   UNL     1      30.901 -23.215 -15.448  0.00  0.00    +0.044 C 
ATOM     28  C   UNL     1      31.751 -22.902 -14.209  0.00  0.00    +0.004 C 
ATOM     29  C   UNL     1      29.421 -23.360 -15.073  0.00  0.00    +0.004 C 
ATOM     30  C   UNL     1      31.543 -23.938 -13.106  0.00  0.00    +0.000 C 
ATOM     31  C   UNL     1      29.217 -24.394 -13.969  0.00  0.00    +0.000 C 
ATOM     32  C   UNL     1      30.070 -24.085 -12.743  0.00  0.00    +0.000 C 
ENDBRANCH  26  27
ENDBRANCH  25  26
ENDBRANCH   6  25
TORSDOF 5
ENDMDL
MODEL 8
REMARK VINA RESULT:     -10.6      8.094     11.838
REMARK  Name = 447656
REMARK  5 active torsions:
REMARK  status: ('A' for Active; 'I' for Inactive)
REMARK    1  A    between atoms: N_5  and  C_14
REMARK    2  A    between atoms: C_6  and  O_25
REMARK    3  A    between atoms: C_17  and  C_22
REMARK    4  A    between atoms: O_25  and  C_26
REMARK    5  A    between atoms: C_26  and  C_27
REMARK                            x       y       z     vdW  Elec       q    Type
REMARK                         _______ _______ _______ _____ _____    ______ ____
ROOT
ATOM      1  N   UNL     1      33.531 -15.419 -22.289  0.00  0.00    -0.293 NA
ATOM      2  N   UNL     1      32.579 -12.383 -24.133  0.00  0.00    -0.266 NA
ATOM      3  N   UNL     1      33.508 -15.691 -24.713  0.00  0.00    -0.316 NA
ATOM      4  N   UNL     1      32.877 -13.678 -25.922  0.00  0.00    -0.296 N 
ATOM      5  N   UNL     1      34.078 -17.462 -23.295  0.00  0.00    -0.238 N 
ATOM      6  C   UNL     1      33.155 -14.126 -22.387  0.00  0.00    +0.288 C 
ATOM      7  C   UNL     1      32.952 -13.605 -23.648  0.00  0.00    +0.215 C 
ATOM      8  C   UNL     1      33.131 -14.391 -24.778  0.00  0.00    +0.196 C 
ATOM      9  C   UNL     1      33.683 -16.113 -23.442  0.00  0.00    +0.207 C 
ATOM     10  C   UNL     1      32.549 -12.477 -25.499  0.00  0.00    +0.164 C 
ATOM     11  H   UNL     1      32.370 -11.583 -23.598  0.00  0.00    +0.126 HD
ATOM     12  H   UNL     1      32.930 -13.995 -26.853  0.00  0.00    +0.150 HD
ATOM     13  H   UNL     1      34.181 -17.941 -24.149  0.00  0.00    +0.166 HD
ENDROOT
BRANCH   5  14
ATOM     14  C   UNL     1      34.353 -18.254 -22.166  0.00  0.00    +0.058 C 
ATOM     15  C   UNL     1      35.621 -18.224 -21.578  0.00  0.00    +0.015 C 
ATOM     16  C   UNL     1      33.361 -19.076 -21.627  0.00  0.00    +0.015 C 
ATOM     17  C   UNL     1      34.900 -19.828 -19.923  0.00  0.00    +0.053 C 
ATOM     18  C   UNL     1      35.894 -19.009 -20.459  0.00  0.00    +0.006 C 
ATOM     19  C   UNL     1      33.633 -19.862 -20.506  0.00  0.00    +0.006 C 
BRANCH  17  22
ATOM     20  O   UNL     1      36.069 -20.328 -17.940  0.00  0.00    -0.270 OA
ATOM     21  N   UNL     1      34.418 -21.792 -18.565  0.00  0.00    -0.325 N 
ATOM     22  C   UNL     1      35.184 -20.646 -18.755  0.00  0.00    +0.243 C 
ATOM     23  H   UNL     1      34.583 -22.371 -17.786  0.00  0.00    +0.145 HD
ATOM     24  H   UNL     1      33.712 -22.026 -19.211  0.00  0.00    +0.145 HD
ENDBRANCH  17  22
ENDBRANCH   5  14
BRANCH   6  25
ATOM     25  O   UNL     1      32.991 -13.394 -21.237  0.00  0.00    -0.453 OA
BRANCH  25  26
ATOM     26  C   UNL     1      31.676 -12.970 -20.927  0.00  0.00    +0.208 C 
BRANCH  26  27
ATOM     27  C   UNL     1      31.743 -11.545 -20.380  0.00  0.00    +0.044 C 
ATOM     28  C   UNL     1      31.106 -10.555 -21.364  0.00  0.00    +0.004 C 
ATOM     29  C   UNL     1      31.067 -11.460 -19.005  0.00  0.00    +0.004 C 
ATOM     30  C   UNL     1      31.114  -9.130 -20.816  0.00  0.00    +0.000 C 
ATOM     31  C   UNL     1      31.074 -10.033 -18.461  0.00  0.00    +0.000 C 
ATOM     32  C   UNL     1      30.449  -9.051 -19.446  0.00  0.00    +0.000 C 
ENDBRANCH  26  27
ENDBRANCH  25  26
ENDBRANCH   6  25
TORSDOF 5
ENDMDL
MODEL 9
REMARK VINA RESULT:     -10.3      3.171      7.563
REMARK  Name = 447656
REMARK  5 active torsions:
REMARK  status: ('A' for Active; 'I' for Inactive)
REMARK    1  A    between atoms: N_5  and  C_14
REMARK    2  A    between atoms: C_6  and  O_25
REMARK    3  A    between atoms: C_17  and  C_22
REMARK    4  A    between atoms: O_25  and  C_26
REMARK    5  A    between atoms: C_26  and  C_27
REMARK                            x       y       z     vdW  Elec       q    Type
REMARK                         _______ _______ _______ _____ _____    ______ ____
ROOT
ATOM      1  N   UNL     1      34.050 -21.627 -17.618  0.00  0.00    -0.293 NA
ATOM      2  N   UNL     1      34.027 -23.726 -14.599  0.00  0.00    -0.266 NA
ATOM      3  N   UNL     1      36.175 -21.672 -16.419  0.00  0.00    -0.316 NA
ATOM      4  N   UNL     1      36.148 -23.062 -14.425  0.00  0.00    -0.296 N 
ATOM      5  N   UNL     1      35.907 -20.417 -18.376  0.00  0.00    -0.238 N 
ATOM      6  C   UNL     1      33.478 -22.459 -16.723  0.00  0.00    +0.288 C 
ATOM      7  C   UNL     1      34.247 -22.905 -15.668  0.00  0.00    +0.215 C 
ATOM      8  C   UNL     1      35.571 -22.506 -15.537  0.00  0.00    +0.196 C 
ATOM      9  C   UNL     1      35.346 -21.290 -17.415  0.00  0.00    +0.207 C 
ATOM     10  C   UNL     1      35.193 -23.789 -13.884  0.00  0.00    +0.164 C 
ATOM     11  H   UNL     1      33.184 -24.187 -14.382  0.00  0.00    +0.126 HD
ATOM     12  H   UNL     1      37.071 -22.945 -14.102  0.00  0.00    +0.150 HD
ATOM     13  H   UNL     1      36.849 -20.190 -18.202  0.00  0.00    +0.166 HD
ENDROOT
BRANCH   5  14
ATOM     14  C   UNL     1      35.383 -19.811 -19.531  0.00  0.00    +0.058 C 
ATOM     15  C   UNL     1      34.066 -20.069 -19.922  0.00  0.00    +0.015 C 
ATOM     16  C   UNL     1      36.175 -18.949 -20.292  0.00  0.00    +0.015 C 
ATOM     17  C   UNL     1      34.339 -18.607 -21.826  0.00  0.00    +0.053 C 
ATOM     18  C   UNL     1      33.545 -19.467 -21.068  0.00  0.00    +0.006 C 
ATOM     19  C   UNL     1      35.654 -18.347 -21.438  0.00  0.00    +0.006 C 
BRANCH  17  22
ATOM     20  O   UNL     1      32.902 -18.526 -23.690  0.00  0.00    -0.270 OA
ATOM     21  N   UNL     1      34.296 -16.732 -23.380  0.00  0.00    -0.325 N 
ATOM     22  C   UNL     1      33.796 -17.980 -23.019  0.00  0.00    +0.243 C 
ATOM     23  H   UNL     1      33.953 -16.277 -24.183  0.00  0.00    +0.145 HD
ATOM     24  H   UNL     1      34.995 -16.304 -22.834  0.00  0.00    +0.145 HD
ENDBRANCH  17  22
ENDBRANCH   5  14
BRANCH   6  25
ATOM     25  O   UNL     1      32.164 -22.821 -16.899  0.00  0.00    -0.453 OA
BRANCH  25  26
ATOM     26  C   UNL     1      31.225 -22.304 -15.974  0.00  0.00    +0.208 C 
BRANCH  26  27
ATOM     27  C   UNL     1      30.268 -23.427 -15.578  0.00  0.00    +0.044 C 
ATOM     28  C   UNL     1      30.562 -23.912 -14.152  0.00  0.00    +0.004 C 
ATOM     29  C   UNL     1      28.810 -22.967 -15.709  0.00  0.00    +0.004 C 
ATOM     30  C   UNL     1      29.582 -24.998 -13.713  0.00  0.00    +0.000 C 
ATOM     31  C   UNL     1      27.834 -24.054 -15.266  0.00  0.00    +0.000 C 
ATOM     32  C   UNL     1      28.135 -24.541 -13.853  0.00  0.00    +0.000 C 
ENDBRANCH  26  27
ENDBRANCH  25  26
ENDBRANCH   6  25
TORSDOF 5
ENDMDL
