MODEL 1
REMARK VINA RESULT:     -11.7      0.000      0.000
REMARK  Name = 16363
REMARK  6 active torsions:
REMARK  status: ('A' for Active; 'I' for Inactive)
REMARK    1  A    between atoms: N_1  and  C_19
REMARK    2  A    between atoms: C_2  and  N_9
REMARK    3  A    between atoms: C_19  and  C_20
REMARK    4  A    between atoms: C_20  and  C_21
REMARK    5  A    between atoms: C_21  and  C_23
REMARK    6  A    between atoms: C_23  and  C_25
REMARK                            x       y       z     vdW  Elec       q    Type
REMARK                         _______ _______ _______ _____ _____    ______ ____
ROOT
ATOM      1  N   UNL     1      33.226 -15.903 -23.529  0.00  0.00    +0.387 N 
ATOM      2  C   UNL     1      33.282 -12.991 -23.257  0.00  0.00    +0.086 C 
ATOM      3  C   UNL     1      32.314 -13.705 -24.200  0.00  0.00    -0.000 C 
ATOM      4  C   UNL     1      33.694 -13.925 -22.120  0.00  0.00    -0.000 C 
ATOM      5  C   UNL     1      32.883 -15.045 -24.671  0.00  0.00    -0.075 C 
ATOM      6  C   UNL     1      34.218 -15.259 -22.657  0.00  0.00    -0.075 C 
ATOM      7  H   UNL     1      32.378 -16.054 -22.983  0.00  0.00    -0.080 HD
ENDROOT
BRANCH   2   9
ATOM      8  O   UNL     1      31.171 -12.631 -21.133  0.00  0.00    -0.247 OA
ATOM      9  N   UNL     1      32.702 -11.777 -22.739  0.00  0.00    -0.282 N 
ATOM     10  N   UNL     1      31.443 -10.318 -21.546  0.00  0.00    -0.305 N 
ATOM     11  C   UNL     1      33.033 -10.479 -23.151  0.00  0.00    +0.079 A 
ATOM     12  C   UNL     1      31.704 -11.706 -21.729  0.00  0.00    +0.328 A 
ATOM     13  C   UNL     1      32.256  -9.588 -22.414  0.00  0.00    +0.076 A 
ATOM     14  C   UNL     1      33.937 -10.038 -24.094  0.00  0.00    +0.019 C 
ATOM     15  C   UNL     1      32.340  -8.223 -22.578  0.00  0.00    +0.019 C 
ATOM     16  C   UNL     1      34.042  -8.655 -24.279  0.00  0.00    +0.002 C 
ATOM     17  C   UNL     1      33.251  -7.758 -23.530  0.00  0.00    +0.002 C 
ATOM     18  H   UNL     1      30.795  -9.937 -20.910  0.00  0.00    +0.170 HD
ENDBRANCH   2   9
BRANCH   1  19
ATOM     19  C   UNL     1      33.720 -17.199 -23.994  0.00  0.00    -0.077 C 
BRANCH  19  20
ATOM     20  C   UNL     1      33.211 -18.318 -23.083  0.00  0.00    -0.015 C 
BRANCH  20  21
ATOM     21  C   UNL     1      34.346 -19.012 -22.325  0.00  0.00    +0.067 C 
BRANCH  21  23
ATOM     22  O   UNL     1      34.603 -17.669 -20.336  0.00  0.00    -0.291 OA
ATOM     23  C   UNL     1      34.314 -18.759 -20.824  0.00  0.00    +0.173 C 
BRANCH  23  25
ATOM     24  F   UNL     1      32.756 -22.923 -17.446  0.00  0.00    -0.204 F 
ATOM     25  C   UNL     1      33.899 -19.871 -19.922  0.00  0.00    +0.035 C 
ATOM     26  C   UNL     1      32.554 -20.113 -19.749  0.00  0.00    +0.005 C 
ATOM     27  C   UNL     1      34.874 -20.614 -19.296  0.00  0.00    +0.005 C 
ATOM     28  C   UNL     1      32.164 -21.152 -18.905  0.00  0.00    +0.030 C 
ATOM     29  C   UNL     1      34.484 -21.654 -18.452  0.00  0.00    +0.030 C 
ATOM     30  C   UNL     1      33.130 -21.924 -18.257  0.00  0.00    +0.140 C 
ENDBRANCH  23  25
ENDBRANCH  21  23
ENDBRANCH  20  21
ENDBRANCH  19  20
ENDBRANCH   1  19
TORSDOF 6
ENDMDL
MODEL 2
REMARK VINA RESULT:     -11.7      1.310      2.436
REMARK  Name = 16363
REMARK  6 active torsions:
REMARK  status: ('A' for Active; 'I' for Inactive)
REMARK    1  A    between atoms: N_1  and  C_19
REMARK    2  A    between atoms: C_2  and  N_9
REMARK    3  A    between atoms: C_19  and  C_20
REMARK    4  A    between atoms: C_20  and  C_21
REMARK    5  A    between atoms: C_21  and  C_23
REMARK    6  A    between atoms: C_23  and  C_25
REMARK                            x       y       z     vdW  Elec       q    Type
REMARK                         _______ _______ _______ _____ _____    ______ ____
ROOT
ATOM      1  N   UNL     1      33.185 -15.994 -23.578  0.00  0.00    +0.387 N 
ATOM      2  C   UNL     1      33.365 -13.079 -23.398  0.00  0.00    +0.086 C 
ATOM      3  C   UNL     1      32.378 -13.781 -24.330  0.00  0.00    -0.000 C 
ATOM      4  C   UNL     1      33.724 -13.994 -22.226  0.00  0.00    -0.000 C 
ATOM      5  C   UNL     1      32.893 -15.158 -24.751  0.00  0.00    -0.075 C 
ATOM      6  C   UNL     1      34.195 -15.365 -22.715  0.00  0.00    -0.075 C 
ATOM      7  H   UNL     1      32.326 -16.090 -23.038  0.00  0.00    -0.080 HD
ENDROOT
BRANCH   2   9
ATOM      8  O   UNL     1      33.745 -10.301 -24.507  0.00  0.00    -0.247 OA
ATOM      9  N   UNL     1      32.834 -11.826 -22.926  0.00  0.00    -0.282 N 
ATOM     10  N   UNL     1      32.351  -9.621 -22.721  0.00  0.00    -0.305 N 
ATOM     11  C   UNL     1      32.002 -11.664 -21.810  0.00  0.00    +0.079 A 
ATOM     12  C   UNL     1      33.069 -10.556 -23.520  0.00  0.00    +0.328 A 
ATOM     13  C   UNL     1      31.710 -10.307 -21.690  0.00  0.00    +0.076 A 
ATOM     14  C   UNL     1      31.500 -12.591 -20.921  0.00  0.00    +0.019 C 
ATOM     15  C   UNL     1      30.908  -9.810 -20.687  0.00  0.00    +0.019 C 
ATOM     16  C   UNL     1      30.682 -12.111 -19.892  0.00  0.00    +0.002 C 
ATOM     17  C   UNL     1      30.390 -10.736 -19.776  0.00  0.00    +0.002 C 
ATOM     18  H   UNL     1      32.313  -8.649 -22.873  0.00  0.00    +0.170 HD
ENDBRANCH   2   9
BRANCH   1  19
ATOM     19  C   UNL     1      33.628 -17.325 -23.996  0.00  0.00    -0.077 C 
BRANCH  19  20
ATOM     20  C   UNL     1      33.233 -18.367 -22.948  0.00  0.00    -0.015 C 
BRANCH  20  21
ATOM     21  C   UNL     1      34.451 -19.017 -22.286  0.00  0.00    +0.067 C 
BRANCH  21  23
ATOM     22  O   UNL     1      34.927 -17.769 -20.276  0.00  0.00    -0.291 OA
ATOM     23  C   UNL     1      34.504 -18.808 -20.780  0.00  0.00    +0.173 C 
BRANCH  23  25
ATOM     24  F   UNL     1      32.647 -22.881 -17.443  0.00  0.00    -0.204 F 
ATOM     25  C   UNL     1      34.008 -19.895 -19.889  0.00  0.00    +0.035 C 
ATOM     26  C   UNL     1      34.928 -20.687 -19.238  0.00  0.00    +0.005 C 
ATOM     27  C   UNL     1      32.649 -20.068 -19.751  0.00  0.00    +0.005 C 
ATOM     28  C   UNL     1      34.465 -21.704 -18.404  0.00  0.00    +0.030 C 
ATOM     29  C   UNL     1      32.186 -21.085 -18.917  0.00  0.00    +0.030 C 
ATOM     30  C   UNL     1      33.092 -21.903 -18.243  0.00  0.00    +0.140 C 
ENDBRANCH  23  25
ENDBRANCH  21  23
ENDBRANCH  20  21
ENDBRANCH  19  20
ENDBRANCH   1  19
TORSDOF 6
ENDMDL
MODEL 3
REMARK VINA RESULT:     -11.4      3.856     10.192
REMARK  Name = 16363
REMARK  6 active torsions:
REMARK  status: ('A' for Active; 'I' for Inactive)
REMARK    1  A    between atoms: N_1  and  C_19
REMARK    2  A    between atoms: C_2  and  N_9
REMARK    3  A    between atoms: C_19  and  C_20
REMARK    4  A    between atoms: C_20  and  C_21
REMARK    5  A    between atoms: C_21  and  C_23
REMARK    6  A    between atoms: C_23  and  C_25
REMARK                            x       y       z     vdW  Elec       q    Type
REMARK                         _______ _______ _______ _____ _____    ______ ____
ROOT
ATOM      1  N   UNL     1      34.194 -15.654 -23.265  0.00  0.00    +0.387 N 
ATOM      2  C   UNL     1      33.960 -17.897 -21.401  0.00  0.00    +0.086 C 
ATOM      3  C   UNL     1      34.387 -18.085 -22.857  0.00  0.00    -0.000 C 
ATOM      4  C   UNL     1      34.290 -16.479 -20.935  0.00  0.00    -0.000 C 
ATOM      5  C   UNL     1      33.811 -16.987 -23.752  0.00  0.00    -0.075 C 
ATOM      6  C   UNL     1      33.718 -15.432 -21.893  0.00  0.00    -0.075 C 
ATOM      7  H   UNL     1      35.212 -15.603 -23.256  0.00  0.00    -0.080 HD
ENDROOT
BRANCH   2   9
ATOM      8  O   UNL     1      36.879 -18.296 -20.757  0.00  0.00    -0.247 OA
ATOM      9  N   UNL     1      34.583 -18.876 -20.546  0.00  0.00    -0.282 N 
ATOM     10  N   UNL     1      36.124 -20.084 -19.405  0.00  0.00    -0.305 N 
ATOM     11  C   UNL     1      33.909 -19.869 -19.823  0.00  0.00    +0.079 A 
ATOM     12  C   UNL     1      35.979 -18.987 -20.302  0.00  0.00    +0.328 A 
ATOM     13  C   UNL     1      34.862 -20.607 -19.125  0.00  0.00    +0.076 A 
ATOM     14  C   UNL     1      32.565 -20.162 -19.736  0.00  0.00    +0.019 C 
ATOM     15  C   UNL     1      34.526 -21.667 -18.311  0.00  0.00    +0.019 C 
ATOM     16  C   UNL     1      32.197 -21.234 -18.916  0.00  0.00    +0.002 C 
ATOM     17  C   UNL     1      33.167 -21.978 -18.211  0.00  0.00    +0.002 C 
ATOM     18  H   UNL     1      36.977 -20.418 -19.043  0.00  0.00    +0.170 HD
ENDBRANCH   2   9
BRANCH   1  19
ATOM     19  C   UNL     1      33.679 -14.616 -24.159  0.00  0.00    -0.077 C 
BRANCH  19  20
ATOM     20  C   UNL     1      32.757 -13.668 -23.391  0.00  0.00    -0.015 C 
BRANCH  20  21
ATOM     21  C   UNL     1      33.466 -12.376 -22.976  0.00  0.00    +0.067 C 
BRANCH  21  23
ATOM     22  O   UNL     1      33.099 -11.419 -25.161  0.00  0.00    -0.291 OA
ATOM     23  C   UNL     1      33.261 -11.231 -23.957  0.00  0.00    +0.173 C 
BRANCH  23  25
ATOM     24  F   UNL     1      33.164  -6.008 -21.984  0.00  0.00    -0.204 F 
ATOM     25  C   UNL     1      33.235  -9.836 -23.431  0.00  0.00    +0.035 C 
ATOM     26  C   UNL     1      32.119  -9.409 -22.746  0.00  0.00    +0.005 C 
ATOM     27  C   UNL     1      34.327  -9.027 -23.648  0.00  0.00    +0.005 C 
ATOM     28  C   UNL     1      32.095  -8.105 -22.253  0.00  0.00    +0.030 C 
ATOM     29  C   UNL     1      34.303  -7.723 -23.155  0.00  0.00    +0.030 C 
ATOM     30  C   UNL     1      33.188  -7.261 -22.458  0.00  0.00    +0.140 C 
ENDBRANCH  23  25
ENDBRANCH  21  23
ENDBRANCH  20  21
ENDBRANCH  19  20
ENDBRANCH   1  19
TORSDOF 6
ENDMDL
MODEL 4
REMARK VINA RESULT:     -11.1      3.348      5.896
REMARK  Name = 16363
REMARK  6 active torsions:
REMARK  status: ('A' for Active; 'I' for Inactive)
REMARK    1  A    between atoms: N_1  and  C_19
REMARK    2  A    between atoms: C_2  and  N_9
REMARK    3  A    between atoms: C_19  and  C_20
REMARK    4  A    between atoms: C_20  and  C_21
REMARK    5  A    between atoms: C_21  and  C_23
REMARK    6  A    between atoms: C_23  and  C_25
REMARK                            x       y       z     vdW  Elec       q    Type
REMARK                         _______ _______ _______ _____ _____    ______ ____
ROOT
ATOM      1  N   UNL     1      35.035 -19.708 -19.411  0.00  0.00    +0.387 N 
ATOM      2  C   UNL     1      34.475 -18.191 -21.850  0.00  0.00    +0.086 C 
ATOM      3  C   UNL     1      33.365 -18.800 -20.993  0.00  0.00    -0.000 C 
ATOM      4  C   UNL     1      35.719 -17.938 -20.998  0.00  0.00    -0.000 C 
ATOM      5  C   UNL     1      33.860 -20.032 -20.233  0.00  0.00    -0.075 C 
ATOM      6  C   UNL     1      36.138 -19.198 -20.237  0.00  0.00    -0.075 C 
ATOM      7  H   UNL     1      34.768 -18.975 -18.755  0.00  0.00    -0.080 HD
ENDROOT
BRANCH   2   9
ATOM      8  O   UNL     1      33.935 -17.647 -24.766  0.00  0.00    -0.247 OA
ATOM      9  N   UNL     1      34.033 -16.977 -22.487  0.00  0.00    -0.282 N 
ATOM     10  N   UNL     1      33.384 -15.463 -24.043  0.00  0.00    -0.305 N 
ATOM     11  C   UNL     1      33.761 -15.768 -21.831  0.00  0.00    +0.079 A 
ATOM     12  C   UNL     1      33.804 -16.814 -23.880  0.00  0.00    +0.328 A 
ATOM     13  C   UNL     1      33.363 -14.843 -22.794  0.00  0.00    +0.076 A 
ATOM     14  C   UNL     1      33.835 -15.433 -20.496  0.00  0.00    +0.019 C 
ATOM     15  C   UNL     1      33.021 -13.547 -22.477  0.00  0.00    +0.019 C 
ATOM     16  C   UNL     1      33.493 -14.122 -20.148  0.00  0.00    +0.002 C 
ATOM     17  C   UNL     1      33.090 -13.189 -21.127  0.00  0.00    +0.002 C 
ATOM     18  H   UNL     1      33.147 -15.037 -24.899  0.00  0.00    +0.170 HD
ENDBRANCH   2   9
BRANCH   1  19
ATOM     19  C   UNL     1      35.466 -20.882 -18.652  0.00  0.00    -0.077 C 
BRANCH  19  20
ATOM     20  C   UNL     1      34.350 -21.929 -18.617  0.00  0.00    -0.015 C 
BRANCH  20  21
ATOM     21  C   UNL     1      33.830 -22.176 -17.198  0.00  0.00    +0.067 C 
BRANCH  21  23
ATOM     22  O   UNL     1      31.590 -21.995 -18.078  0.00  0.00    -0.291 OA
ATOM     23  C   UNL     1      32.312 -22.242 -17.114  0.00  0.00    +0.173 C 
BRANCH  23  25
ATOM     24  F   UNL     1      29.965 -23.724 -12.269  0.00  0.00    -0.204 F 
ATOM     25  C   UNL     1      31.685 -22.638 -15.821  0.00  0.00    +0.035 C 
ATOM     26  C   UNL     1      32.503 -23.003 -14.775  0.00  0.00    +0.005 C 
ATOM     27  C   UNL     1      30.312 -22.624 -15.720  0.00  0.00    +0.005 C 
ATOM     28  C   UNL     1      31.917 -23.373 -13.565  0.00  0.00    +0.030 C 
ATOM     29  C   UNL     1      29.726 -22.995 -14.510  0.00  0.00    +0.030 C 
ATOM     30  C   UNL     1      30.528 -23.369 -13.432  0.00  0.00    +0.140 C 
ENDBRANCH  23  25
ENDBRANCH  21  23
ENDBRANCH  20  21
ENDBRANCH  19  20
ENDBRANCH   1  19
TORSDOF 6
ENDMDL
MODEL 5
REMARK VINA RESULT:     -10.8      6.181     12.474
REMARK  Name = 16363
REMARK  6 active torsions:
REMARK  status: ('A' for Active; 'I' for Inactive)
REMARK    1  A    between atoms: N_1  and  C_19
REMARK    2  A    between atoms: C_2  and  N_9
REMARK    3  A    between atoms: C_19  and  C_20
REMARK    4  A    between atoms: C_20  and  C_21
REMARK    5  A    between atoms: C_21  and  C_23
REMARK    6  A    between atoms: C_23  and  C_25
REMARK                            x       y       z     vdW  Elec       q    Type
REMARK                         _______ _______ _______ _____ _____    ______ ____
ROOT
ATOM      1  N   UNL     1      33.467 -22.488 -17.375  0.00  0.00    +0.387 N 
ATOM      2  C   UNL     1      33.997 -22.777 -14.512  0.00  0.00    +0.086 C 
ATOM      3  C   UNL     1      32.832 -23.487 -15.203  0.00  0.00    -0.000 C 
ATOM      4  C   UNL     1      35.105 -22.478 -15.521  0.00  0.00    -0.000 C 
ATOM      5  C   UNL     1      32.360 -22.711 -16.434  0.00  0.00    -0.075 C 
ATOM      6  C   UNL     1      34.560 -21.736 -16.743  0.00  0.00    -0.075 C 
ATOM      7  H   UNL     1      33.832 -23.399 -17.652  0.00  0.00    -0.080 HD
ENDROOT
BRANCH   2   9
ATOM      8  O   UNL     1      32.621 -23.602 -11.958  0.00  0.00    -0.247 OA
ATOM      9  N   UNL     1      34.502 -23.559 -13.412  0.00  0.00    -0.282 N 
ATOM     10  N   UNL     1      34.667 -24.670 -11.443  0.00  0.00    -0.305 N 
ATOM     11  C   UNL     1      35.790 -24.105 -13.326  0.00  0.00    +0.079 A 
ATOM     12  C   UNL     1      33.773 -23.900 -12.240  0.00  0.00    +0.328 A 
ATOM     13  C   UNL     1      35.884 -24.786 -12.114  0.00  0.00    +0.076 A 
ATOM     14  C   UNL     1      36.850 -24.049 -14.206  0.00  0.00    +0.019 C 
ATOM     15  C   UNL     1      37.030 -25.440 -11.722  0.00  0.00    +0.019 C 
ATOM     16  C   UNL     1      38.027 -24.706 -13.830  0.00  0.00    +0.002 C 
ATOM     17  C   UNL     1      38.115 -25.394 -12.601  0.00  0.00    +0.002 C 
ATOM     18  H   UNL     1      34.459 -25.058 -10.562  0.00  0.00    +0.170 HD
ENDBRANCH   2   9
BRANCH   1  19
ATOM     19  C   UNL     1      32.990 -21.791 -18.569  0.00  0.00    -0.077 C 
BRANCH  19  20
ATOM     20  C   UNL     1      34.078 -20.858 -19.106  0.00  0.00    -0.015 C 
BRANCH  20  21
ATOM     21  C   UNL     1      33.526 -19.834 -20.101  0.00  0.00    +0.067 C 
BRANCH  21  23
ATOM     22  O   UNL     1      35.669 -18.725 -20.036  0.00  0.00    -0.291 OA
ATOM     23  C   UNL     1      34.564 -18.823 -20.566  0.00  0.00    +0.173 C 
BRANCH  23  25
ATOM     24  F   UNL     1      33.316 -15.503 -24.878  0.00  0.00    -0.204 F 
ATOM     25  C   UNL     1      34.231 -17.936 -21.718  0.00  0.00    +0.035 C 
ATOM     26  C   UNL     1      33.714 -18.504 -22.860  0.00  0.00    +0.005 C 
ATOM     27  C   UNL     1      34.453 -16.583 -21.596  0.00  0.00    +0.005 C 
ATOM     28  C   UNL     1      33.402 -17.675 -23.937  0.00  0.00    +0.030 C 
ATOM     29  C   UNL     1      34.141 -15.754 -22.673  0.00  0.00    +0.030 C 
ATOM     30  C   UNL     1      33.615 -16.299 -23.843  0.00  0.00    +0.140 C 
ENDBRANCH  23  25
ENDBRANCH  21  23
ENDBRANCH  20  21
ENDBRANCH  19  20
ENDBRANCH   1  19
TORSDOF 6
ENDMDL
MODEL 6
REMARK VINA RESULT:     -10.8      5.448     11.729
REMARK  Name = 16363
REMARK  6 active torsions:
REMARK  status: ('A' for Active; 'I' for Inactive)
REMARK    1  A    between atoms: N_1  and  C_19
REMARK    2  A    between atoms: C_2  and  N_9
REMARK    3  A    between atoms: C_19  and  C_20
REMARK    4  A    between atoms: C_20  and  C_21
REMARK    5  A    between atoms: C_21  and  C_23
REMARK    6  A    between atoms: C_23  and  C_25
REMARK                            x       y       z     vdW  Elec       q    Type
REMARK                         _______ _______ _______ _____ _____    ______ ____
ROOT
ATOM      1  N   UNL     1      35.022 -21.597 -18.437  0.00  0.00    +0.387 N 
ATOM      2  C   UNL     1      33.706 -22.231 -15.902  0.00  0.00    +0.086 C 
ATOM      3  C   UNL     1      33.057 -22.523 -17.255  0.00  0.00    -0.000 C 
ATOM      4  C   UNL     1      35.227 -22.193 -16.045  0.00  0.00    -0.000 C 
ATOM      5  C   UNL     1      33.557 -21.557 -18.331  0.00  0.00    -0.075 C 
ATOM      6  C   UNL     1      35.658 -21.239 -17.161  0.00  0.00    -0.075 C 
ATOM      7  H   UNL     1      35.296 -22.552 -18.667  0.00  0.00    -0.080 HD
ENDROOT
BRANCH   2   9
ATOM      8  O   UNL     1      35.307 -24.463 -14.656  0.00  0.00    -0.247 OA
ATOM      9  N   UNL     1      33.307 -23.202 -14.914  0.00  0.00    -0.282 N 
ATOM     10  N   UNL     1      33.326 -24.933 -13.452  0.00  0.00    -0.305 N 
ATOM     11  C   UNL     1      32.039 -23.287 -14.325  0.00  0.00    +0.079 A 
ATOM     12  C   UNL     1      34.139 -24.225 -14.383  0.00  0.00    +0.328 A 
ATOM     13  C   UNL     1      32.058 -24.353 -13.428  0.00  0.00    +0.076 A 
ATOM     14  C   UNL     1      30.907 -22.523 -14.513  0.00  0.00    +0.019 C 
ATOM     15  C   UNL     1      30.958 -24.708 -12.678  0.00  0.00    +0.019 C 
ATOM     16  C   UNL     1      29.776 -22.863 -13.763  0.00  0.00    +0.002 C 
ATOM     17  C   UNL     1      29.801 -23.944 -12.856  0.00  0.00    +0.002 C 
ATOM     18  H   UNL     1      33.614 -25.705 -12.912  0.00  0.00    +0.170 HD
ENDBRANCH   2   9
BRANCH   1  19
ATOM     19  C   UNL     1      35.482 -20.707 -19.504  0.00  0.00    -0.077 C 
BRANCH  19  20
ATOM     20  C   UNL     1      34.305 -19.914 -20.074  0.00  0.00    -0.015 C 
BRANCH  20  21
ATOM     21  C   UNL     1      34.751 -18.602 -20.727  0.00  0.00    +0.067 C 
BRANCH  21  23
ATOM     22  O   UNL     1      34.093 -19.398 -22.909  0.00  0.00    -0.291 OA
ATOM     23  C   UNL     1      34.254 -18.439 -22.156  0.00  0.00    +0.173 C 
BRANCH  23  25
ATOM     24  F   UNL     1      33.058 -13.307 -24.002  0.00  0.00    -0.204 F 
ATOM     25  C   UNL     1      33.934 -17.069 -22.649  0.00  0.00    +0.035 C 
ATOM     26  C   UNL     1      34.138 -16.000 -21.806  0.00  0.00    +0.005 C 
ATOM     27  C   UNL     1      33.447 -16.924 -23.929  0.00  0.00    +0.005 C 
ATOM     28  C   UNL     1      33.840 -14.718 -22.267  0.00  0.00    +0.030 C 
ATOM     29  C   UNL     1      33.149 -15.642 -24.389  0.00  0.00    +0.030 C 
ATOM     30  C   UNL     1      33.345 -14.539 -23.559  0.00  0.00    +0.140 C 
ENDBRANCH  23  25
ENDBRANCH  21  23
ENDBRANCH  20  21
ENDBRANCH  19  20
ENDBRANCH   1  19
TORSDOF 6
ENDMDL
MODEL 7
REMARK VINA RESULT:     -10.6      4.821     11.135
REMARK  Name = 16363
REMARK  6 active torsions:
REMARK  status: ('A' for Active; 'I' for Inactive)
REMARK    1  A    between atoms: N_1  and  C_19
REMARK    2  A    between atoms: C_2  and  N_9
REMARK    3  A    between atoms: C_19  and  C_20
REMARK    4  A    between atoms: C_20  and  C_21
REMARK    5  A    between atoms: C_21  and  C_23
REMARK    6  A    between atoms: C_23  and  C_25
REMARK                            x       y       z     vdW  Elec       q    Type
REMARK                         _______ _______ _______ _____ _____    ______ ____
ROOT
ATOM      1  N   UNL     1      33.827 -20.015 -19.583  0.00  0.00    +0.387 N 
ATOM      2  C   UNL     1      33.425 -22.183 -17.660  0.00  0.00    +0.086 C 
ATOM      3  C   UNL     1      34.766 -21.466 -17.814  0.00  0.00    -0.000 C 
ATOM      4  C   UNL     1      32.285 -21.271 -18.112  0.00  0.00    -0.000 C 
ATOM      5  C   UNL     1      34.939 -20.908 -19.228  0.00  0.00    -0.075 C 
ATOM      6  C   UNL     1      32.538 -20.718 -19.516  0.00  0.00    -0.075 C 
ATOM      7  H   UNL     1      33.805 -19.254 -18.904  0.00  0.00    -0.080 HD
ENDROOT
BRANCH   2   9
ATOM      8  O   UNL     1      35.463 -22.946 -15.572  0.00  0.00    -0.247 OA
ATOM      9  N   UNL     1      33.223 -22.623 -16.303  0.00  0.00    -0.282 N 
ATOM     10  N   UNL     1      33.589 -23.334 -14.182  0.00  0.00    -0.305 N 
ATOM     11  C   UNL     1      31.980 -22.782 -15.676  0.00  0.00    +0.079 A 
ATOM     12  C   UNL     1      34.255 -22.963 -15.385  0.00  0.00    +0.328 A 
ATOM     13  C   UNL     1      32.213 -23.220 -14.374  0.00  0.00    +0.076 A 
ATOM     14  C   UNL     1      30.702 -22.578 -16.151  0.00  0.00    +0.019 C 
ATOM     15  C   UNL     1      31.191 -23.473 -13.486  0.00  0.00    +0.019 C 
ATOM     16  C   UNL     1      29.646 -22.829 -15.268  0.00  0.00    +0.002 C 
ATOM     17  C   UNL     1      29.888 -23.272 -13.950  0.00  0.00    +0.002 C 
ATOM     18  H   UNL     1      34.030 -23.624 -13.350  0.00  0.00    +0.170 HD
ENDBRANCH   2   9
BRANCH   1  19
ATOM     19  C   UNL     1      34.031 -19.449 -20.916  0.00  0.00    -0.077 C 
BRANCH  19  20
ATOM     20  C   UNL     1      34.652 -18.055 -20.809  0.00  0.00    -0.015 C 
BRANCH  20  21
ATOM     21  C   UNL     1      34.391 -17.205 -22.055  0.00  0.00    +0.067 C 
BRANCH  21  23
ATOM     22  O   UNL     1      33.972 -15.330 -20.595  0.00  0.00    -0.291 OA
ATOM     23  C   UNL     1      33.943 -15.786 -21.736  0.00  0.00    +0.173 C 
BRANCH  23  25
ATOM     24  F   UNL     1      32.177 -12.534 -25.917  0.00  0.00    -0.204 F 
ATOM     25  C   UNL     1      33.472 -14.917 -22.852  0.00  0.00    +0.035 C 
ATOM     26  C   UNL     1      33.059 -15.513 -24.023  0.00  0.00    +0.005 C 
ATOM     27  C   UNL     1      33.467 -13.552 -22.672  0.00  0.00    +0.005 C 
ATOM     28  C   UNL     1      32.617 -14.701 -25.068  0.00  0.00    +0.030 C 
ATOM     29  C   UNL     1      33.025 -12.741 -23.716  0.00  0.00    +0.030 C 
ATOM     30  C   UNL     1      32.600 -13.314 -24.914  0.00  0.00    +0.140 C 
ENDBRANCH  23  25
ENDBRANCH  21  23
ENDBRANCH  20  21
ENDBRANCH  19  20
ENDBRANCH   1  19
TORSDOF 6
ENDMDL
MODEL 8
REMARK VINA RESULT:     -10.5      5.885     11.937
REMARK  Name = 16363
REMARK  6 active torsions:
REMARK  status: ('A' for Active; 'I' for Inactive)
REMARK    1  A    between atoms: N_1  and  C_19
REMARK    2  A    between atoms: C_2  and  N_9
REMARK    3  A    between atoms: C_19  and  C_20
REMARK    4  A    between atoms: C_20  and  C_21
REMARK    5  A    between atoms: C_21  and  C_23
REMARK    6  A    between atoms: C_23  and  C_25
REMARK                            x       y       z     vdW  Elec       q    Type
REMARK                         _______ _______ _______ _____ _____    ______ ____
ROOT
ATOM      1  N   UNL     1      34.830 -22.104 -17.000  0.00  0.00    +0.387 N 
ATOM      2  C   UNL     1      32.624 -22.567 -15.135  0.00  0.00    +0.086 C 
ATOM      3  C   UNL     1      32.530 -22.928 -16.618  0.00  0.00    -0.000 C 
ATOM      4  C   UNL     1      34.086 -22.562 -14.687  0.00  0.00    -0.000 C 
ATOM      5  C   UNL     1      33.438 -22.035 -17.466  0.00  0.00    -0.075 C 
ATOM      6  C   UNL     1      34.944 -21.681 -15.597  0.00  0.00    -0.075 C 
ATOM      7  H   UNL     1      35.135 -23.074 -17.062  0.00  0.00    -0.080 HD
ENDROOT
BRANCH   2   9
ATOM      8  O   UNL     1      33.497 -24.345 -12.861  0.00  0.00    -0.247 OA
ATOM      9  N   UNL     1      31.844 -23.472 -14.330  0.00  0.00    -0.282 N 
ATOM     10  N   UNL     1      31.225 -24.998 -12.773  0.00  0.00    -0.305 N 
ATOM     11  C   UNL     1      30.468 -23.700 -14.466  0.00  0.00    +0.079 A 
ATOM     12  C   UNL     1      32.347 -24.276 -13.271  0.00  0.00    +0.328 A 
ATOM     13  C   UNL     1      30.095 -24.638 -13.506  0.00  0.00    +0.076 A 
ATOM     14  C   UNL     1      29.550 -23.162 -15.343  0.00  0.00    +0.019 C 
ATOM     15  C   UNL     1      28.798 -25.084 -13.372  0.00  0.00    +0.019 C 
ATOM     16  C   UNL     1      28.225 -23.597 -15.227  0.00  0.00    +0.002 C 
ATOM     17  C   UNL     1      27.854 -24.548 -14.253  0.00  0.00    +0.002 C 
ATOM     18  H   UNL     1      31.245 -25.645 -12.030  0.00  0.00    +0.170 HD
ENDBRANCH   2   9
BRANCH   1  19
ATOM     19  C   UNL     1      35.695 -21.286 -17.851  0.00  0.00    -0.077 C 
BRANCH  19  20
ATOM     20  C   UNL     1      35.126 -21.214 -19.270  0.00  0.00    -0.015 C 
BRANCH  20  21
ATOM     21  C   UNL     1      35.109 -19.785 -19.818  0.00  0.00    +0.067 C 
BRANCH  21  23
ATOM     22  O   UNL     1      32.716 -19.873 -20.122  0.00  0.00    -0.291 OA
ATOM     23  C   UNL     1      33.795 -19.410 -20.488  0.00  0.00    +0.173 C 
BRANCH  23  25
ATOM     24  F   UNL     1      33.893 -15.750 -24.703  0.00  0.00    -0.204 F 
ATOM     25  C   UNL     1      33.820 -18.433 -21.614  0.00  0.00    +0.035 C 
ATOM     26  C   UNL     1      34.219 -17.140 -21.357  0.00  0.00    +0.005 C 
ATOM     27  C   UNL     1      33.445 -18.859 -22.868  0.00  0.00    +0.005 C 
ATOM     28  C   UNL     1      34.244 -16.226 -22.409  0.00  0.00    +0.030 C 
ATOM     29  C   UNL     1      33.470 -17.944 -23.920  0.00  0.00    +0.030 C 
ATOM     30  C   UNL     1      33.869 -16.628 -23.692  0.00  0.00    +0.140 C 
ENDBRANCH  23  25
ENDBRANCH  21  23
ENDBRANCH  20  21
ENDBRANCH  19  20
ENDBRANCH   1  19
TORSDOF 6
ENDMDL
MODEL 9
REMARK VINA RESULT:     -10.3      1.704      2.602
REMARK  Name = 16363
REMARK  6 active torsions:
REMARK  status: ('A' for Active; 'I' for Inactive)
REMARK    1  A    between atoms: N_1  and  C_19
REMARK    2  A    between atoms: C_2  and  N_9
REMARK    3  A    between atoms: C_19  and  C_20
REMARK    4  A    between atoms: C_20  and  C_21
REMARK    5  A    between atoms: C_21  and  C_23
REMARK    6  A    between atoms: C_23  and  C_25
REMARK                            x       y       z     vdW  Elec       q    Type
REMARK                         _______ _______ _______ _____ _____    ______ ____
ROOT
ATOM      1  N   UNL     1      33.598 -14.628 -23.301  0.00  0.00    +0.387 N 
ATOM      2  C   UNL     1      32.630 -11.881 -23.024  0.00  0.00    +0.086 C 
ATOM      3  C   UNL     1      33.618 -12.504 -22.036  0.00  0.00    -0.000 C 
ATOM      4  C   UNL     1      32.733 -12.578 -24.380  0.00  0.00    -0.000 C 
ATOM      5  C   UNL     1      33.455 -14.023 -21.970  0.00  0.00    -0.075 C 
ATOM      6  C   UNL     1      32.599 -14.095 -24.239  0.00  0.00    -0.075 C 
ATOM      7  H   UNL     1      34.523 -14.389 -23.658  0.00  0.00    -0.080 HD
ENDROOT
BRANCH   2   9
ATOM      8  O   UNL     1      34.515 -10.401 -24.854  0.00  0.00    -0.247 OA
ATOM      9  N   UNL     1      32.852 -10.464 -23.156  0.00  0.00    -0.282 N 
ATOM     10  N   UNL     1      33.646  -8.452 -23.834  0.00  0.00    -0.305 N 
ATOM     11  C   UNL     1      32.197  -9.467 -22.420  0.00  0.00    +0.079 A 
ATOM     12  C   UNL     1      33.769  -9.854 -24.054  0.00  0.00    +0.328 A 
ATOM     13  C   UNL     1      32.690  -8.234 -22.842  0.00  0.00    +0.076 A 
ATOM     14  C   UNL     1      31.232  -9.560 -21.440  0.00  0.00    +0.019 C 
ATOM     15  C   UNL     1      32.249  -7.041 -22.312  0.00  0.00    +0.019 C 
ATOM     16  C   UNL     1      30.767  -8.363 -20.886  0.00  0.00    +0.002 C 
ATOM     17  C   UNL     1      31.271  -7.117 -21.317  0.00  0.00    +0.002 C 
ATOM     18  H   UNL     1      34.152  -7.752 -24.306  0.00  0.00    +0.170 HD
ENDBRANCH   2   9
BRANCH   1  19
ATOM     19  C   UNL     1      33.491 -16.085 -23.215  0.00  0.00    -0.077 C 
BRANCH  19  20
ATOM     20  C   UNL     1      34.629 -16.649 -22.362  0.00  0.00    -0.015 C 
BRANCH  20  21
ATOM     21  C   UNL     1      34.115 -17.456 -21.167  0.00  0.00    +0.067 C 
BRANCH  21  23
ATOM     22  O   UNL     1      34.121 -19.419 -22.571  0.00  0.00    -0.291 OA
ATOM     23  C   UNL     1      34.028 -18.951 -21.438  0.00  0.00    +0.173 C 
BRANCH  23  25
ATOM     24  F   UNL     1      33.338 -22.416 -17.115  0.00  0.00    -0.204 F 
ATOM     25  C   UNL     1      33.843 -19.876 -20.284  0.00  0.00    +0.035 C 
ATOM     26  C   UNL     1      34.959 -20.436 -19.702  0.00  0.00    +0.005 C 
ATOM     27  C   UNL     1      32.565 -20.137 -19.843  0.00  0.00    +0.005 C 
ATOM     28  C   UNL     1      34.787 -21.301 -18.622  0.00  0.00    +0.030 C 
ATOM     29  C   UNL     1      32.394 -21.002 -18.763  0.00  0.00    +0.030 C 
ATOM     30  C   UNL     1      33.503 -21.585 -18.152  0.00  0.00    +0.140 C 
ENDBRANCH  23  25
ENDBRANCH  21  23
ENDBRANCH  20  21
ENDBRANCH  19  20
ENDBRANCH   1  19
TORSDOF 6
ENDMDL
