MODEL 1
REMARK VINA RESULT:     -11.8      0.000      0.000
REMARK  Name = 11224409
REMARK  8 active torsions:
REMARK  status: ('A' for Active; 'I' for Inactive)
REMARK    1  A    between atoms: C_2  and  N_10
REMARK    2  A    between atoms: C_5  and  C_20
REMARK    3  A    between atoms: C_11  and  C_14
REMARK    4  A    between atoms: C_14  and  N_16
REMARK    5  A    between atoms: C_21  and  C_26
REMARK    6  A    between atoms: C_26  and  N_27
REMARK    7  A    between atoms: N_27  and  C_30
REMARK    8  A    between atoms: C_30  and  C_34
REMARK                            x       y       z     vdW  Elec       q    Type
REMARK                         _______ _______ _______ _____ _____    ______ ____
ROOT
ATOM      1  F   UNL     1      36.124 -19.765 -19.919  0.00  0.00    -0.204 F 
ATOM      2  C   UNL     1      33.560 -21.524 -18.037  0.00  0.00    +0.059 C 
ATOM      3  C   UNL     1      34.814 -21.092 -18.471  0.00  0.00    +0.045 C 
ATOM      4  C   UNL     1      32.405 -21.034 -18.646  0.00  0.00    +0.015 C 
ATOM      5  C   UNL     1      33.756 -19.681 -20.122  0.00  0.00    +0.028 C 
ATOM      6  C   UNL     1      34.912 -20.171 -19.514  0.00  0.00    +0.141 C 
ATOM      7  C   UNL     1      32.502 -20.112 -19.688  0.00  0.00    +0.004 C 
ENDROOT
BRANCH   2  10
ATOM      8  O   UNL     1      33.936 -23.737 -15.170  0.00  0.00    -0.434 OA
ATOM      9  O   UNL     1      35.560 -22.326 -15.890  0.00  0.00    -0.226 OA
ATOM     10  N   UNL     1      33.461 -22.465 -16.973  0.00  0.00    -0.221 N 
ATOM     11  C   UNL     1      32.536 -23.915 -15.424  0.00  0.00    +0.210 C 
ATOM     12  C   UNL     1      32.330 -23.338 -16.808  0.00  0.00    +0.147 C 
ATOM     13  C   UNL     1      34.427 -22.769 -16.017  0.00  0.00    +0.409 C 
BRANCH  11  14
ATOM     14  C   UNL     1      31.745 -23.186 -14.347  0.00  0.00    +0.135 C 
BRANCH  14  16
ATOM     15  O   UNL     1      29.637 -25.048 -13.625  0.00  0.00    -0.275 OA
ATOM     16  N   UNL     1      30.356 -23.104 -14.690  0.00  0.00    -0.301 N 
ATOM     17  C   UNL     1      29.410 -24.047 -14.299  0.00  0.00    +0.223 C 
ATOM     18  C   UNL     1      28.022 -23.706 -14.774  0.00  0.00    +0.095 C 
ATOM     19  H   UNL     1      30.055 -22.339 -15.232  0.00  0.00    +0.150 HD
ENDBRANCH  14  16
ENDBRANCH  11  14
ENDBRANCH   2  10
BRANCH   5  20
ATOM     20  C   UNL     1      33.853 -18.725 -21.204  0.00  0.00    +0.002 C 
ATOM     21  C   UNL     1      34.041 -16.883 -23.290  0.00  0.00    -0.044 C 
ATOM     22  C   UNL     1      34.376 -17.454 -20.967  0.00  0.00    -0.000 C 
ATOM     23  C   UNL     1      33.424 -19.075 -22.485  0.00  0.00    -0.000 C 
ATOM     24  C   UNL     1      34.471 -16.533 -22.011  0.00  0.00    -0.006 C 
ATOM     25  C   UNL     1      33.517 -18.154 -23.528  0.00  0.00    -0.006 C 
BRANCH  21  26
ATOM     26  C   UNL     1      34.143 -15.898 -24.406  0.00  0.00    -0.054 C 
BRANCH  26  27
ATOM     27  N   UNL     1      32.847 -15.311 -24.752  0.00  0.00    +0.390 N 
ATOM     28  H   UNL     1      32.165 -16.058 -24.883  0.00  0.00    -0.083 HD
ATOM     29  H   UNL     1      32.951 -14.772 -25.611  0.00  0.00    -0.083 HD
BRANCH  27  30
ATOM     30  C   UNL     1      32.387 -14.424 -23.696  0.00  0.00    -0.031 C 
BRANCH  30  34
ATOM     31  N   UNL     1      33.457 -12.333 -22.916  0.00  0.00    -0.170 NA
ATOM     32  N   UNL     1      33.705 -11.162 -23.525  0.00  0.00    -0.157 N 
ATOM     33  N   UNL     1      33.329 -11.013 -24.806  0.00  0.00    -0.162 NA
ATOM     34  C   UNL     1      32.863 -13.010 -23.903  0.00  0.00    +0.077 C 
ATOM     35  C   UNL     1      32.785 -12.209 -25.050  0.00  0.00    +0.133 C 
ATOM     36  H   UNL     1      34.151 -10.429 -23.042  0.00  0.00    +0.197 HD
ENDBRANCH  30  34
ENDBRANCH  27  30
ENDBRANCH  26  27
ENDBRANCH  21  26
ENDBRANCH   5  20
TORSDOF 8
ENDMDL
MODEL 2
REMARK VINA RESULT:     -11.4      4.323     11.447
REMARK  Name = 11224409
REMARK  8 active torsions:
REMARK  status: ('A' for Active; 'I' for Inactive)
REMARK    1  A    between atoms: C_2  and  N_10
REMARK    2  A    between atoms: C_5  and  C_20
REMARK    3  A    between atoms: C_11  and  C_14
REMARK    4  A    between atoms: C_14  and  N_16
REMARK    5  A    between atoms: C_21  and  C_26
REMARK    6  A    between atoms: C_26  and  N_27
REMARK    7  A    between atoms: N_27  and  C_30
REMARK    8  A    between atoms: C_30  and  C_34
REMARK                            x       y       z     vdW  Elec       q    Type
REMARK                         _______ _______ _______ _____ _____    ______ ____
ROOT
ATOM      1  F   UNL     1      36.111 -20.938 -18.777  0.00  0.00    -0.204 F 
ATOM      2  C   UNL     1      33.894 -19.157 -21.041  0.00  0.00    +0.059 C 
ATOM      3  C   UNL     1      35.061 -19.640 -20.446  0.00  0.00    +0.045 C 
ATOM      4  C   UNL     1      32.649 -19.515 -20.524  0.00  0.00    +0.015 C 
ATOM      5  C   UNL     1      33.736 -20.839 -18.821  0.00  0.00    +0.028 C 
ATOM      6  C   UNL     1      34.981 -20.481 -19.336  0.00  0.00    +0.141 C 
ATOM      7  C   UNL     1      32.569 -20.357 -19.415  0.00  0.00    +0.004 C 
ENDROOT
BRANCH   2  10
ATOM      8  O   UNL     1      33.944 -17.514 -24.289  0.00  0.00    -0.434 OA
ATOM      9  O   UNL     1      33.484 -19.716 -24.002  0.00  0.00    -0.226 OA
ATOM     10  N   UNL     1      33.976 -18.298 -22.173  0.00  0.00    -0.221 N 
ATOM     11  C   UNL     1      34.055 -16.363 -23.441  0.00  0.00    +0.210 C 
ATOM     12  C   UNL     1      34.414 -16.931 -22.084  0.00  0.00    +0.147 C 
ATOM     13  C   UNL     1      33.762 -18.633 -23.508  0.00  0.00    +0.409 C 
BRANCH  11  14
ATOM     14  C   UNL     1      32.728 -15.618 -23.448  0.00  0.00    +0.135 C 
BRANCH  14  16
ATOM     15  O   UNL     1      32.054 -14.886 -26.176  0.00  0.00    -0.275 OA
ATOM     16  N   UNL     1      32.860 -14.330 -24.062  0.00  0.00    -0.301 N 
ATOM     17  C   UNL     1      32.511 -14.067 -25.383  0.00  0.00    +0.223 C 
ATOM     18  C   UNL     1      32.727 -12.627 -25.764  0.00  0.00    +0.095 C 
ATOM     19  H   UNL     1      33.218 -13.590 -23.519  0.00  0.00    +0.150 HD
ENDBRANCH  14  16
ENDBRANCH  11  14
ENDBRANCH   2  10
BRANCH   5  20
ATOM     20  C   UNL     1      33.649 -21.712 -17.669  0.00  0.00    +0.002 C 
ATOM     21  C   UNL     1      33.481 -23.395 -15.451  0.00  0.00    -0.044 C 
ATOM     22  C   UNL     1      32.500 -22.474 -17.458  0.00  0.00    -0.000 C 
ATOM     23  C   UNL     1      34.714 -21.791 -16.771  0.00  0.00    -0.000 C 
ATOM     24  C   UNL     1      32.417 -23.316 -16.349  0.00  0.00    -0.006 C 
ATOM     25  C   UNL     1      34.630 -22.631 -15.662  0.00  0.00    -0.006 C 
BRANCH  21  26
ATOM     26  C   UNL     1      33.392 -24.295 -14.266  0.00  0.00    -0.054 C 
BRANCH  26  27
ATOM     27  N   UNL     1      34.682 -24.464 -13.594  0.00  0.00    +0.390 N 
ATOM     28  H   UNL     1      34.524 -24.602 -12.596  0.00  0.00    -0.083 HD
ATOM     29  H   UNL     1      35.245 -23.629 -13.752  0.00  0.00    -0.083 HD
BRANCH  27  30
ATOM     30  C   UNL     1      35.392 -25.615 -14.128  0.00  0.00    -0.031 C 
BRANCH  30  34
ATOM     31  N   UNL     1      37.637 -26.633 -13.912  0.00  0.00    -0.170 NA
ATOM     32  N   UNL     1      38.838 -26.118 -13.603  0.00  0.00    -0.157 N 
ATOM     33  N   UNL     1      38.924 -24.802 -13.346  0.00  0.00    -0.162 NA
ATOM     34  C   UNL     1      36.870 -25.541 -13.850  0.00  0.00    +0.077 C 
ATOM     35  C   UNL     1      37.651 -24.429 -13.506  0.00  0.00    +0.133 C 
ATOM     36  H   UNL     1      39.637 -26.692 -13.565  0.00  0.00    +0.197 HD
ENDBRANCH  30  34
ENDBRANCH  27  30
ENDBRANCH  26  27
ENDBRANCH  21  26
ENDBRANCH   5  20
TORSDOF 8
ENDMDL
MODEL 3
REMARK VINA RESULT:     -11.4      4.405     11.442
REMARK  Name = 11224409
REMARK  8 active torsions:
REMARK  status: ('A' for Active; 'I' for Inactive)
REMARK    1  A    between atoms: C_2  and  N_10
REMARK    2  A    between atoms: C_5  and  C_20
REMARK    3  A    between atoms: C_11  and  C_14
REMARK    4  A    between atoms: C_14  and  N_16
REMARK    5  A    between atoms: C_21  and  C_26
REMARK    6  A    between atoms: C_26  and  N_27
REMARK    7  A    between atoms: N_27  and  C_30
REMARK    8  A    between atoms: C_30  and  C_34
REMARK                            x       y       z     vdW  Elec       q    Type
REMARK                         _______ _______ _______ _____ _____    ______ ____
ROOT
ATOM      1  F   UNL     1      36.235 -20.746 -18.809  0.00  0.00    -0.204 F 
ATOM      2  C   UNL     1      33.916 -19.124 -21.089  0.00  0.00    +0.059 C 
ATOM      3  C   UNL     1      35.109 -19.537 -20.495  0.00  0.00    +0.045 C 
ATOM      4  C   UNL     1      32.694 -19.535 -20.556  0.00  0.00    +0.015 C 
ATOM      5  C   UNL     1      33.858 -20.768 -18.836  0.00  0.00    +0.028 C 
ATOM      6  C   UNL     1      35.080 -20.358 -19.368  0.00  0.00    +0.141 C 
ATOM      7  C   UNL     1      32.664 -20.357 -19.429  0.00  0.00    +0.004 C 
ENDROOT
BRANCH   2  10
ATOM      8  O   UNL     1      33.783 -17.529 -24.359  0.00  0.00    -0.434 OA
ATOM      9  O   UNL     1      33.250 -19.704 -24.000  0.00  0.00    -0.226 OA
ATOM     10  N   UNL     1      33.946 -18.285 -22.239  0.00  0.00    -0.221 N 
ATOM     11  C   UNL     1      34.011 -16.373 -23.541  0.00  0.00    +0.210 C 
ATOM     12  C   UNL     1      34.450 -16.938 -22.207  0.00  0.00    +0.147 C 
ATOM     13  C   UNL     1      33.613 -18.628 -23.547  0.00  0.00    +0.409 C 
BRANCH  11  14
ATOM     14  C   UNL     1      32.721 -15.569 -23.457  0.00  0.00    +0.135 C 
BRANCH  14  16
ATOM     15  O   UNL     1      31.977 -14.909 -26.186  0.00  0.00    -0.275 OA
ATOM     16  N   UNL     1      32.856 -14.302 -24.115  0.00  0.00    -0.301 N 
ATOM     17  C   UNL     1      32.472 -14.075 -25.432  0.00  0.00    +0.223 C 
ATOM     18  C   UNL     1      32.701 -12.651 -25.865  0.00  0.00    +0.095 C 
ATOM     19  H   UNL     1      33.243 -13.553 -23.606  0.00  0.00    +0.150 HD
ENDBRANCH  14  16
ENDBRANCH  11  14
ENDBRANCH   2  10
BRANCH   5  20
ATOM     20  C   UNL     1      33.823 -21.621 -17.667  0.00  0.00    +0.002 C 
ATOM     21  C   UNL     1      33.754 -23.262 -15.412  0.00  0.00    -0.044 C 
ATOM     22  C   UNL     1      34.930 -21.692 -16.823  0.00  0.00    -0.000 C 
ATOM     23  C   UNL     1      32.680 -22.370 -17.383  0.00  0.00    -0.000 C 
ATOM     24  C   UNL     1      34.896 -22.513 -15.695  0.00  0.00    -0.006 C 
ATOM     25  C   UNL     1      32.646 -23.191 -16.257  0.00  0.00    -0.006 C 
BRANCH  21  26
ATOM     26  C   UNL     1      33.718 -24.139 -14.206  0.00  0.00    -0.054 C 
BRANCH  26  27
ATOM     27  N   UNL     1      33.606 -23.374 -12.963  0.00  0.00    +0.390 N 
ATOM     28  H   UNL     1      32.637 -23.081 -12.836  0.00  0.00    -0.083 HD
ATOM     29  H   UNL     1      34.215 -22.559 -13.024  0.00  0.00    -0.083 HD
BRANCH  27  30
ATOM     30  C   UNL     1      34.015 -24.180 -11.825  0.00  0.00    -0.031 C 
BRANCH  30  34
ATOM     31  N   UNL     1      36.273 -24.821 -11.041  0.00  0.00    -0.170 NA
ATOM     32  N   UNL     1      37.359 -24.099 -10.724  0.00  0.00    -0.157 N 
ATOM     33  N   UNL     1      37.291 -22.761 -10.824  0.00  0.00    -0.162 NA
ATOM     34  C   UNL     1      35.416 -23.854 -11.381  0.00  0.00    +0.077 C 
ATOM     35  C   UNL     1      36.034 -22.603 -11.248  0.00  0.00    +0.133 C 
ATOM     36  H   UNL     1      38.187 -24.540 -10.425  0.00  0.00    +0.197 HD
ENDBRANCH  30  34
ENDBRANCH  27  30
ENDBRANCH  26  27
ENDBRANCH  21  26
ENDBRANCH   5  20
TORSDOF 8
ENDMDL
MODEL 4
REMARK VINA RESULT:     -11.2      2.977      4.733
REMARK  Name = 11224409
REMARK  8 active torsions:
REMARK  status: ('A' for Active; 'I' for Inactive)
REMARK    1  A    between atoms: C_2  and  N_10
REMARK    2  A    between atoms: C_5  and  C_20
REMARK    3  A    between atoms: C_11  and  C_14
REMARK    4  A    between atoms: C_14  and  N_16
REMARK    5  A    between atoms: C_21  and  C_26
REMARK    6  A    between atoms: C_26  and  N_27
REMARK    7  A    between atoms: N_27  and  C_30
REMARK    8  A    between atoms: C_30  and  C_34
REMARK                            x       y       z     vdW  Elec       q    Type
REMARK                         _______ _______ _______ _____ _____    ______ ____
ROOT
ATOM      1  F   UNL     1      36.427 -20.745 -17.322  0.00  0.00    -0.204 F 
ATOM      2  C   UNL     1      34.723 -23.151 -15.198  0.00  0.00    +0.059 C 
ATOM      3  C   UNL     1      35.708 -22.298 -15.697  0.00  0.00    +0.045 C 
ATOM      4  C   UNL     1      33.499 -23.264 -15.858  0.00  0.00    +0.015 C 
ATOM      5  C   UNL     1      34.246 -21.673 -17.515  0.00  0.00    +0.028 C 
ATOM      6  C   UNL     1      35.470 -21.560 -16.856  0.00  0.00    +0.141 C 
ATOM      7  C   UNL     1      33.260 -22.524 -17.016  0.00  0.00    +0.004 C 
ENDROOT
BRANCH   2  10
ATOM      8  O   UNL     1      35.396 -25.606 -12.594  0.00  0.00    -0.434 OA
ATOM      9  O   UNL     1      35.265 -26.118 -14.800  0.00  0.00    -0.226 OA
ATOM     10  N   UNL     1      34.967 -23.906 -14.015  0.00  0.00    -0.221 N 
ATOM     11  C   UNL     1      35.493 -24.405 -11.817  0.00  0.00    +0.210 C 
ATOM     12  C   UNL     1      34.875 -23.339 -12.697  0.00  0.00    +0.147 C 
ATOM     13  C   UNL     1      35.218 -25.272 -13.918  0.00  0.00    +0.409 C 
BRANCH  11  14
ATOM     14  C   UNL     1      36.958 -24.144 -11.497  0.00  0.00    +0.135 C 
BRANCH  14  16
ATOM     15  O   UNL     1      38.401 -23.905 -14.005  0.00  0.00    -0.275 OA
ATOM     16  N   UNL     1      37.805 -25.124 -12.111  0.00  0.00    -0.301 N 
ATOM     17  C   UNL     1      38.460 -24.924 -13.321  0.00  0.00    +0.223 C 
ATOM     18  C   UNL     1      39.304 -26.104 -13.725  0.00  0.00    +0.095 C 
ATOM     19  H   UNL     1      37.929 -25.986 -11.651  0.00  0.00    +0.150 HD
ENDBRANCH  14  16
ENDBRANCH  11  14
ENDBRANCH   2  10
BRANCH   5  20
ATOM     20  C   UNL     1      33.994 -20.908 -18.718  0.00  0.00    +0.002 C 
ATOM     21  C   UNL     1      33.509 -19.436 -21.037  0.00  0.00    -0.044 C 
ATOM     22  C   UNL     1      35.062 -20.418 -19.468  0.00  0.00    -0.000 C 
ATOM     23  C   UNL     1      32.683 -20.662 -19.127  0.00  0.00    -0.000 C 
ATOM     24  C   UNL     1      34.820 -19.682 -20.629  0.00  0.00    -0.006 C 
ATOM     25  C   UNL     1      32.440 -19.926 -20.286  0.00  0.00    -0.006 C 
BRANCH  21  26
ATOM     26  C   UNL     1      33.250 -18.650 -22.278  0.00  0.00    -0.054 C 
BRANCH  26  27
ATOM     27  N   UNL     1      34.237 -17.588 -22.482  0.00  0.00    +0.390 N 
ATOM     28  H   UNL     1      35.169 -18.000 -22.520  0.00  0.00    -0.083 HD
ATOM     29  H   UNL     1      34.174 -16.929 -21.707  0.00  0.00    -0.083 HD
BRANCH  27  30
ATOM     30  C   UNL     1      33.977 -16.877 -23.723  0.00  0.00    -0.031 C 
BRANCH  30  34
ATOM     31  N   UNL     1      34.272 -14.711 -22.564  0.00  0.00    -0.170 NA
ATOM     32  N   UNL     1      33.646 -13.529 -22.682  0.00  0.00    -0.157 N 
ATOM     33  N   UNL     1      32.655 -13.416 -23.582  0.00  0.00    -0.162 NA
ATOM     34  C   UNL     1      33.621 -15.435 -23.479  0.00  0.00    +0.077 C 
ATOM     35  C   UNL     1      32.639 -14.648 -24.097  0.00  0.00    +0.133 C 
ATOM     36  H   UNL     1      33.907 -12.763 -22.122  0.00  0.00    +0.197 HD
ENDBRANCH  30  34
ENDBRANCH  27  30
ENDBRANCH  26  27
ENDBRANCH  21  26
ENDBRANCH   5  20
TORSDOF 8
ENDMDL
MODEL 5
REMARK VINA RESULT:     -11.2      4.138     10.944
REMARK  Name = 11224409
REMARK  8 active torsions:
REMARK  status: ('A' for Active; 'I' for Inactive)
REMARK    1  A    between atoms: C_2  and  N_10
REMARK    2  A    between atoms: C_5  and  C_20
REMARK    3  A    between atoms: C_11  and  C_14
REMARK    4  A    between atoms: C_14  and  N_16
REMARK    5  A    between atoms: C_21  and  C_26
REMARK    6  A    between atoms: C_26  and  N_27
REMARK    7  A    between atoms: N_27  and  C_30
REMARK    8  A    between atoms: C_30  and  C_34
REMARK                            x       y       z     vdW  Elec       q    Type
REMARK                         _______ _______ _______ _____ _____    ______ ____
ROOT
ATOM      1  F   UNL     1      36.064 -20.585 -19.111  0.00  0.00    -0.204 F 
ATOM      2  C   UNL     1      33.698 -19.038 -21.395  0.00  0.00    +0.059 C 
ATOM      3  C   UNL     1      34.903 -19.419 -20.804  0.00  0.00    +0.045 C 
ATOM      4  C   UNL     1      32.488 -19.467 -20.849  0.00  0.00    +0.015 C 
ATOM      5  C   UNL     1      33.688 -20.656 -19.122  0.00  0.00    +0.028 C 
ATOM      6  C   UNL     1      34.898 -20.227 -19.667  0.00  0.00    +0.141 C 
ATOM      7  C   UNL     1      32.482 -20.276 -19.713  0.00  0.00    +0.004 C 
ENDROOT
BRANCH   2  10
ATOM      8  O   UNL     1      33.220 -17.333 -24.576  0.00  0.00    -0.434 OA
ATOM      9  O   UNL     1      32.025 -19.151 -23.933  0.00  0.00    -0.226 OA
ATOM     10  N   UNL     1      33.704 -18.212 -22.554  0.00  0.00    -0.221 N 
ATOM     11  C   UNL     1      34.108 -16.403 -23.941  0.00  0.00    +0.210 C 
ATOM     12  C   UNL     1      34.672 -17.168 -22.763  0.00  0.00    +0.147 C 
ATOM     13  C   UNL     1      32.892 -18.325 -23.680  0.00  0.00    +0.409 C 
BRANCH  11  14
ATOM     14  C   UNL     1      33.315 -15.169 -23.532  0.00  0.00    +0.135 C 
BRANCH  14  16
ATOM     15  O   UNL     1      31.858 -13.269 -21.890  0.00  0.00    -0.275 OA
ATOM     16  N   UNL     1      33.582 -14.811 -22.170  0.00  0.00    -0.301 N 
ATOM     17  C   UNL     1      32.828 -13.885 -21.456  0.00  0.00    +0.223 C 
ATOM     18  C   UNL     1      33.309 -13.715 -20.040  0.00  0.00    +0.095 C 
ATOM     19  H   UNL     1      34.341 -15.243 -21.715  0.00  0.00    +0.150 HD
ENDBRANCH  14  16
ENDBRANCH  11  14
ENDBRANCH   2  10
BRANCH   5  20
ATOM     20  C   UNL     1      33.677 -21.495 -17.943  0.00  0.00    +0.002 C 
ATOM     21  C   UNL     1      33.656 -23.110 -15.669  0.00  0.00    -0.044 C 
ATOM     22  C   UNL     1      34.805 -21.564 -17.126  0.00  0.00    -0.000 C 
ATOM     23  C   UNL     1      32.538 -22.234 -17.622  0.00  0.00    -0.000 C 
ATOM     24  C   UNL     1      34.794 -22.371 -15.988  0.00  0.00    -0.006 C 
ATOM     25  C   UNL     1      32.527 -23.042 -16.486  0.00  0.00    -0.006 C 
BRANCH  21  26
ATOM     26  C   UNL     1      33.644 -23.973 -14.453  0.00  0.00    -0.054 C 
BRANCH  26  27
ATOM     27  N   UNL     1      34.204 -23.295 -13.282  0.00  0.00    +0.390 N 
ATOM     28  H   UNL     1      33.445 -22.887 -12.737  0.00  0.00    -0.083 HD
ATOM     29  H   UNL     1      34.843 -22.567 -13.599  0.00  0.00    -0.083 HD
BRANCH  27  30
ATOM     30  C   UNL     1      34.940 -24.232 -12.448  0.00  0.00    -0.031 C 
BRANCH  30  34
ATOM     31  N   UNL     1      37.076 -24.012 -13.679  0.00  0.00    -0.170 NA
ATOM     32  N   UNL     1      37.911 -24.919 -14.210  0.00  0.00    -0.157 N 
ATOM     33  N   UNL     1      37.601 -26.221 -14.095  0.00  0.00    -0.162 NA
ATOM     34  C   UNL     1      36.131 -24.808 -13.169  0.00  0.00    +0.077 C 
ATOM     35  C   UNL     1      36.450 -26.149 -13.422  0.00  0.00    +0.133 C 
ATOM     36  H   UNL     1      38.733 -24.636 -14.673  0.00  0.00    +0.197 HD
ENDBRANCH  30  34
ENDBRANCH  27  30
ENDBRANCH  26  27
ENDBRANCH  21  26
ENDBRANCH   5  20
TORSDOF 8
ENDMDL
MODEL 6
REMARK VINA RESULT:     -11.0      3.572     11.055
REMARK  Name = 11224409
REMARK  8 active torsions:
REMARK  status: ('A' for Active; 'I' for Inactive)
REMARK    1  A    between atoms: C_2  and  N_10
REMARK    2  A    between atoms: C_5  and  C_20
REMARK    3  A    between atoms: C_11  and  C_14
REMARK    4  A    between atoms: C_14  and  N_16
REMARK    5  A    between atoms: C_21  and  C_26
REMARK    6  A    between atoms: C_26  and  N_27
REMARK    7  A    between atoms: N_27  and  C_30
REMARK    8  A    between atoms: C_30  and  C_34
REMARK                            x       y       z     vdW  Elec       q    Type
REMARK                         _______ _______ _______ _____ _____    ______ ____
ROOT
ATOM      1  F   UNL     1      35.983 -20.883 -18.973  0.00  0.00    -0.204 F 
ATOM      2  C   UNL     1      33.718 -19.113 -21.197  0.00  0.00    +0.059 C 
ATOM      3  C   UNL     1      34.897 -19.598 -20.629  0.00  0.00    +0.045 C 
ATOM      4  C   UNL     1      32.485 -19.456 -20.643  0.00  0.00    +0.015 C 
ATOM      5  C   UNL     1      33.608 -20.768 -18.954  0.00  0.00    +0.028 C 
ATOM      6  C   UNL     1      34.842 -20.425 -19.507  0.00  0.00    +0.141 C 
ATOM      7  C   UNL     1      32.429 -20.285 -19.522  0.00  0.00    +0.004 C 
ENDROOT
BRANCH   2  10
ATOM      8  O   UNL     1      33.391 -17.363 -24.373  0.00  0.00    -0.434 OA
ATOM      9  O   UNL     1      32.194 -19.211 -23.827  0.00  0.00    -0.226 OA
ATOM     10  N   UNL     1      33.775 -18.268 -22.341  0.00  0.00    -0.221 N 
ATOM     11  C   UNL     1      34.224 -16.429 -23.674  0.00  0.00    +0.210 C 
ATOM     12  C   UNL     1      34.734 -17.204 -22.478  0.00  0.00    +0.147 C 
ATOM     13  C   UNL     1      33.030 -18.375 -23.513  0.00  0.00    +0.409 C 
BRANCH  11  14
ATOM     14  C   UNL     1      33.388 -15.216 -23.291  0.00  0.00    +0.135 C 
BRANCH  14  16
ATOM     15  O   UNL     1      32.984 -12.353 -23.565  0.00  0.00    -0.275 OA
ATOM     16  N   UNL     1      32.941 -14.507 -24.453  0.00  0.00    -0.301 N 
ATOM     17  C   UNL     1      32.774 -13.126 -24.496  0.00  0.00    +0.223 C 
ATOM     18  C   UNL     1      32.318 -12.639 -25.845  0.00  0.00    +0.095 C 
ATOM     19  H   UNL     1      32.740 -15.026 -25.266  0.00  0.00    +0.150 HD
ENDBRANCH  14  16
ENDBRANCH  11  14
ENDBRANCH   2  10
BRANCH   5  20
ATOM     20  C   UNL     1      33.546 -21.627 -17.791  0.00  0.00    +0.002 C 
ATOM     21  C   UNL     1      33.427 -23.283 -15.550  0.00  0.00    -0.044 C 
ATOM     22  C   UNL     1      32.388 -22.356 -17.523  0.00  0.00    -0.000 C 
ATOM     23  C   UNL     1      34.645 -21.726 -16.937  0.00  0.00    -0.000 C 
ATOM     24  C   UNL     1      32.328 -23.185 -16.403  0.00  0.00    -0.006 C 
ATOM     25  C   UNL     1      34.586 -22.553 -15.816  0.00  0.00    -0.006 C 
BRANCH  21  26
ATOM     26  C   UNL     1      33.363 -24.169 -14.352  0.00  0.00    -0.054 C 
BRANCH  26  27
ATOM     27  N   UNL     1      32.437 -23.668 -13.335  0.00  0.00    +0.390 N 
ATOM     28  H   UNL     1      32.019 -22.797 -13.662  0.00  0.00    -0.083 HD
ATOM     29  H   UNL     1      32.954 -23.509 -12.470  0.00  0.00    -0.083 HD
BRANCH  27  30
ATOM     30  C   UNL     1      31.382 -24.636 -13.078  0.00  0.00    -0.031 C 
BRANCH  30  34
ATOM     31  N   UNL     1      29.796 -22.908 -13.868  0.00  0.00    -0.170 NA
ATOM     32  N   UNL     1      28.562 -22.985 -14.392  0.00  0.00    -0.157 N 
ATOM     33  N   UNL     1      28.007 -24.198 -14.551  0.00  0.00    -0.162 NA
ATOM     34  C   UNL     1      30.067 -24.202 -13.670  0.00  0.00    +0.077 C 
ATOM     35  C   UNL     1      28.981 -24.985 -14.084  0.00  0.00    +0.133 C 
ATOM     36  H   UNL     1      28.075 -22.171 -14.653  0.00  0.00    +0.197 HD
ENDBRANCH  30  34
ENDBRANCH  27  30
ENDBRANCH  26  27
ENDBRANCH  21  26
ENDBRANCH   5  20
TORSDOF 8
ENDMDL
MODEL 7
REMARK VINA RESULT:     -10.7      6.847     12.871
REMARK  Name = 11224409
REMARK  8 active torsions:
REMARK  status: ('A' for Active; 'I' for Inactive)
REMARK    1  A    between atoms: C_2  and  N_10
REMARK    2  A    between atoms: C_5  and  C_20
REMARK    3  A    between atoms: C_11  and  C_14
REMARK    4  A    between atoms: C_14  and  N_16
REMARK    5  A    between atoms: C_21  and  C_26
REMARK    6  A    between atoms: C_26  and  N_27
REMARK    7  A    between atoms: N_27  and  C_30
REMARK    8  A    between atoms: C_30  and  C_34
REMARK                            x       y       z     vdW  Elec       q    Type
REMARK                         _______ _______ _______ _____ _____    ______ ____
ROOT
ATOM      1  F   UNL     1      30.902 -12.537 -20.485  0.00  0.00    -0.204 F 
ATOM      2  C   UNL     1      31.424  -9.113 -21.587  0.00  0.00    +0.059 C 
ATOM      3  C   UNL     1      30.945 -10.208 -20.866  0.00  0.00    +0.045 C 
ATOM      4  C   UNL     1      32.331  -9.309 -22.630  0.00  0.00    +0.015 C 
ATOM      5  C   UNL     1      32.278 -11.691 -22.230  0.00  0.00    +0.028 C 
ATOM      6  C   UNL     1      31.371 -11.496 -21.188  0.00  0.00    +0.141 C 
ATOM      7  C   UNL     1      32.758 -10.597 -22.951  0.00  0.00    +0.004 C 
ENDROOT
BRANCH   2  10
ATOM      8  O   UNL     1      30.655  -5.846 -20.177  0.00  0.00    -0.434 OA
ATOM      9  O   UNL     1      31.929  -7.400 -19.125  0.00  0.00    -0.226 OA
ATOM     10  N   UNL     1      30.988  -7.799 -21.259  0.00  0.00    -0.221 N 
ATOM     11  C   UNL     1      30.139  -5.659 -21.502  0.00  0.00    +0.210 C 
ATOM     12  C   UNL     1      30.064  -7.058 -22.076  0.00  0.00    +0.147 C 
ATOM     13  C   UNL     1      31.274  -7.074 -20.105  0.00  0.00    +0.409 C 
BRANCH  11  14
ATOM     14  C   UNL     1      31.081  -4.744 -22.272  0.00  0.00    +0.135 C 
BRANCH  14  16
ATOM     15  O   UNL     1      33.632  -5.864 -23.090  0.00  0.00    -0.275 OA
ATOM     16  N   UNL     1      31.418  -5.303 -23.548  0.00  0.00    -0.301 N 
ATOM     17  C   UNL     1      32.672  -5.820 -23.855  0.00  0.00    +0.223 C 
ATOM     18  C   UNL     1      32.747  -6.365 -25.256  0.00  0.00    +0.095 C 
ATOM     19  H   UNL     1      30.723  -5.321 -24.246  0.00  0.00    +0.150 HD
ENDBRANCH  14  16
ENDBRANCH  11  14
ENDBRANCH   2  10
BRANCH   5  20
ATOM     20  C   UNL     1      32.723 -13.026 -22.567  0.00  0.00    +0.002 C 
ATOM     21  C   UNL     1      33.580 -15.599 -23.216  0.00  0.00    -0.044 C 
ATOM     22  C   UNL     1      33.522 -13.740 -21.675  0.00  0.00    -0.000 C 
ATOM     23  C   UNL     1      32.353 -13.598 -23.785  0.00  0.00    -0.000 C 
ATOM     24  C   UNL     1      33.950 -15.028 -21.999  0.00  0.00    -0.006 C 
ATOM     25  C   UNL     1      32.782 -14.885 -24.109  0.00  0.00    -0.006 C 
BRANCH  21  26
ATOM     26  C   UNL     1      34.038 -16.976 -23.562  0.00  0.00    -0.054 C 
BRANCH  26  27
ATOM     27  N   UNL     1      34.788 -17.606 -22.473  0.00  0.00    +0.390 N 
ATOM     28  H   UNL     1      34.930 -16.924 -21.728  0.00  0.00    -0.083 HD
ATOM     29  H   UNL     1      35.685 -17.926 -22.836  0.00  0.00    -0.083 HD
BRANCH  27  30
ATOM     30  C   UNL     1      34.062 -18.748 -21.943  0.00  0.00    -0.031 C 
BRANCH  30  34
ATOM     31  N   UNL     1      35.869 -18.808 -20.253  0.00  0.00    -0.170 NA
ATOM     32  N   UNL     1      36.047 -19.545 -19.146  0.00  0.00    -0.157 N 
ATOM     33  N   UNL     1      35.110 -20.450 -18.820  0.00  0.00    -0.162 NA
ATOM     34  C   UNL     1      34.697 -19.283 -20.687  0.00  0.00    +0.077 C 
ATOM     35  C   UNL     1      34.237 -20.281 -19.817  0.00  0.00    +0.133 C 
ATOM     36  H   UNL     1      36.848 -19.425 -18.585  0.00  0.00    +0.197 HD
ENDBRANCH  30  34
ENDBRANCH  27  30
ENDBRANCH  26  27
ENDBRANCH  21  26
ENDBRANCH   5  20
TORSDOF 8
ENDMDL
MODEL 8
REMARK VINA RESULT:     -10.7      2.056      3.443
REMARK  Name = 11224409
REMARK  8 active torsions:
REMARK  status: ('A' for Active; 'I' for Inactive)
REMARK    1  A    between atoms: C_2  and  N_10
REMARK    2  A    between atoms: C_5  and  C_20
REMARK    3  A    between atoms: C_11  and  C_14
REMARK    4  A    between atoms: C_14  and  N_16
REMARK    5  A    between atoms: C_21  and  C_26
REMARK    6  A    between atoms: C_26  and  N_27
REMARK    7  A    between atoms: N_27  and  C_30
REMARK    8  A    between atoms: C_30  and  C_34
REMARK                            x       y       z     vdW  Elec       q    Type
REMARK                         _______ _______ _______ _____ _____    ______ ____
ROOT
ATOM      1  F   UNL     1      36.253 -20.152 -19.419  0.00  0.00    -0.204 F 
ATOM      2  C   UNL     1      33.757 -21.770 -17.331  0.00  0.00    +0.059 C 
ATOM      3  C   UNL     1      34.994 -21.353 -17.824  0.00  0.00    +0.045 C 
ATOM      4  C   UNL     1      32.583 -21.377 -17.975  0.00  0.00    +0.015 C 
ATOM      5  C   UNL     1      33.882 -20.152 -19.601  0.00  0.00    +0.028 C 
ATOM      6  C   UNL     1      35.056 -20.544 -18.959  0.00  0.00    +0.141 C 
ATOM      7  C   UNL     1      32.645 -20.568 -19.109  0.00  0.00    +0.004 C 
ENDROOT
BRANCH   2  10
ATOM      8  O   UNL     1      32.969 -24.023 -14.582  0.00  0.00    -0.434 OA
ATOM      9  O   UNL     1      31.521 -23.531 -16.257  0.00  0.00    -0.226 OA
ATOM     10  N   UNL     1      33.693 -22.595 -16.174  0.00  0.00    -0.221 N 
ATOM     11  C   UNL     1      34.370 -23.835 -14.339  0.00  0.00    +0.210 C 
ATOM     12  C   UNL     1      34.739 -22.636 -15.187  0.00  0.00    +0.147 C 
ATOM     13  C   UNL     1      32.626 -23.386 -15.753  0.00  0.00    +0.409 C 
BRANCH  11  14
ATOM     14  C   UNL     1      35.112 -25.103 -14.737  0.00  0.00    +0.135 C 
BRANCH  14  16
ATOM     15  O   UNL     1      36.740 -26.722 -12.959  0.00  0.00    -0.275 OA
ATOM     16  N   UNL     1      36.518 -24.980 -14.490  0.00  0.00    -0.301 N 
ATOM     17  C   UNL     1      37.221 -25.803 -13.616  0.00  0.00    +0.223 C 
ATOM     18  C   UNL     1      38.689 -25.472 -13.563  0.00  0.00    +0.095 C 
ATOM     19  H   UNL     1      37.014 -24.273 -14.964  0.00  0.00    +0.150 HD
ENDBRANCH  14  16
ENDBRANCH  11  14
ENDBRANCH   2  10
BRANCH   5  20
ATOM     20  C   UNL     1      33.942 -19.314 -20.779  0.00  0.00    +0.002 C 
ATOM     21  C   UNL     1      34.056 -17.696 -23.049  0.00  0.00    -0.044 C 
ATOM     22  C   UNL     1      33.479 -19.796 -22.003  0.00  0.00    -0.000 C 
ATOM     23  C   UNL     1      34.463 -18.022 -20.690  0.00  0.00    -0.000 C 
ATOM     24  C   UNL     1      33.535 -18.987 -23.138  0.00  0.00    -0.006 C 
ATOM     25  C   UNL     1      34.520 -17.214 -21.825  0.00  0.00    -0.006 C 
BRANCH  21  26
ATOM     26  C   UNL     1      34.115 -16.832 -24.263  0.00  0.00    -0.054 C 
BRANCH  26  27
ATOM     27  N   UNL     1      34.155 -15.406 -23.931  0.00  0.00    +0.390 N 
ATOM     28  H   UNL     1      34.865 -14.949 -24.503  0.00  0.00    -0.083 HD
ATOM     29  H   UNL     1      34.379 -15.306 -22.942  0.00  0.00    -0.083 HD
BRANCH  27  30
ATOM     30  C   UNL     1      32.865 -14.784 -24.184  0.00  0.00    -0.031 C 
BRANCH  30  34
ATOM     31  N   UNL     1      32.695 -12.567 -25.271  0.00  0.00    -0.170 NA
ATOM     32  N   UNL     1      32.892 -11.320 -24.815  0.00  0.00    -0.157 N 
ATOM     33  N   UNL     1      33.254 -11.155 -23.532  0.00  0.00    -0.162 NA
ATOM     34  C   UNL     1      32.955 -13.281 -24.171  0.00  0.00    +0.077 C 
ATOM     35  C   UNL     1      33.294 -12.423 -23.116  0.00  0.00    +0.133 C 
ATOM     36  H   UNL     1      32.774 -10.543 -25.409  0.00  0.00    +0.197 HD
ENDBRANCH  30  34
ENDBRANCH  27  30
ENDBRANCH  26  27
ENDBRANCH  21  26
ENDBRANCH   5  20
TORSDOF 8
ENDMDL
MODEL 9
REMARK VINA RESULT:     -10.4      1.821      2.499
REMARK  Name = 11224409
REMARK  8 active torsions:
REMARK  status: ('A' for Active; 'I' for Inactive)
REMARK    1  A    between atoms: C_2  and  N_10
REMARK    2  A    between atoms: C_5  and  C_20
REMARK    3  A    between atoms: C_11  and  C_14
REMARK    4  A    between atoms: C_14  and  N_16
REMARK    5  A    between atoms: C_21  and  C_26
REMARK    6  A    between atoms: C_26  and  N_27
REMARK    7  A    between atoms: N_27  and  C_30
REMARK    8  A    between atoms: C_30  and  C_34
REMARK                            x       y       z     vdW  Elec       q    Type
REMARK                         _______ _______ _______ _____ _____    ______ ____
ROOT
ATOM      1  F   UNL     1      36.803 -19.955 -18.058  0.00  0.00    -0.204 F 
ATOM      2  C   UNL     1      34.747 -22.369 -16.280  0.00  0.00    +0.059 C 
ATOM      3  C   UNL     1      35.820 -21.539 -16.609  0.00  0.00    +0.045 C 
ATOM      4  C   UNL     1      33.618 -22.404 -17.098  0.00  0.00    +0.015 C 
ATOM      5  C   UNL     1      34.634 -20.783 -18.572  0.00  0.00    +0.028 C 
ATOM      6  C   UNL     1      35.763 -20.747 -17.755  0.00  0.00    +0.141 C 
ATOM      7  C   UNL     1      33.560 -21.611 -18.244  0.00  0.00    +0.004 C 
ENDROOT
BRANCH   2  10
ATOM      8  O   UNL     1      35.497 -24.144 -13.191  0.00  0.00    -0.434 OA
ATOM      9  O   UNL     1      36.889 -22.622 -14.134  0.00  0.00    -0.226 OA
ATOM     10  N   UNL     1      34.806 -23.178 -15.110  0.00  0.00    -0.221 N 
ATOM     11  C   UNL     1      34.130 -24.542 -13.367  0.00  0.00    +0.210 C 
ATOM     12  C   UNL     1      33.814 -24.172 -14.800  0.00  0.00    +0.147 C 
ATOM     13  C   UNL     1      35.827 -23.229 -14.165  0.00  0.00    +0.409 C 
BRANCH  11  14
ATOM     14  C   UNL     1      33.269 -23.804 -12.351  0.00  0.00    +0.135 C 
BRANCH  14  16
ATOM     15  O   UNL     1      30.515 -24.720 -12.255  0.00  0.00    -0.275 OA
ATOM     16  N   UNL     1      32.129 -23.203 -12.979  0.00  0.00    -0.301 N 
ATOM     17  C   UNL     1      30.839 -23.712 -12.879  0.00  0.00    +0.223 C 
ATOM     18  C   UNL     1      29.827 -22.873 -13.613  0.00  0.00    +0.095 C 
ATOM     19  H   UNL     1      32.267 -22.385 -13.510  0.00  0.00    +0.150 HD
ENDBRANCH  14  16
ENDBRANCH  11  14
ENDBRANCH   2  10
BRANCH   5  20
ATOM     20  C   UNL     1      34.570 -19.962 -19.763  0.00  0.00    +0.002 C 
ATOM     21  C   UNL     1      34.449 -18.382 -22.058  0.00  0.00    -0.044 C 
ATOM     22  C   UNL     1      35.702 -19.271 -20.194  0.00  0.00    -0.000 C 
ATOM     23  C   UNL     1      33.377 -19.863 -20.479  0.00  0.00    -0.000 C 
ATOM     24  C   UNL     1      35.642 -18.482 -21.343  0.00  0.00    -0.006 C 
ATOM     25  C   UNL     1      33.316 -19.072 -21.626  0.00  0.00    -0.006 C 
BRANCH  21  26
ATOM     26  C   UNL     1      34.384 -17.538 -23.286  0.00  0.00    -0.054 C 
BRANCH  26  27
ATOM     27  N   UNL     1      34.716 -16.137 -23.019  0.00  0.00    +0.390 N 
ATOM     28  H   UNL     1      35.602 -15.910 -23.470  0.00  0.00    -0.083 HD
ATOM     29  H   UNL     1      34.788 -16.004 -22.010  0.00  0.00    -0.083 HD
BRANCH  27  30
ATOM     30  C   UNL     1      33.679 -15.257 -23.533  0.00  0.00    -0.031 C 
BRANCH  30  34
ATOM     31  N   UNL     1      32.185 -13.449 -22.741  0.00  0.00    -0.170 NA
ATOM     32  N   UNL     1      31.977 -12.915 -21.528  0.00  0.00    -0.157 N 
ATOM     33  N   UNL     1      32.676 -13.396 -20.486  0.00  0.00    -0.162 NA
ATOM     34  C   UNL     1      33.111 -14.370 -22.456  0.00  0.00    +0.077 C 
ATOM     35  C   UNL     1      33.409 -14.338 -21.087  0.00  0.00    +0.133 C 
ATOM     36  H   UNL     1      31.328 -12.185 -21.404  0.00  0.00    +0.197 HD
ENDBRANCH  30  34
ENDBRANCH  27  30
ENDBRANCH  26  27
ENDBRANCH  21  26
ENDBRANCH   5  20
TORSDOF 8
ENDMDL
