MODEL 1
REMARK VINA RESULT:     -11.9      0.000      0.000
REMARK  Name = 11974440
REMARK  4 active torsions:
REMARK  status: ('A' for Active; 'I' for Inactive)
REMARK    1  A    between atoms: C_1  and  C_25
REMARK    2  A    between atoms: C_2  and  N_31
REMARK    3  A    between atoms: C_5  and  C_12
REMARK    4  A    between atoms: C_17  and  C_21
REMARK                            x       y       z     vdW  Elec       q    Type
REMARK                         _______ _______ _______ _____ _____    ______ ____
ROOT
ATOM      1  C   UNL     1      33.665 -19.577 -19.680  0.00  0.00    +0.009 C 
ATOM      2  C   UNL     1      34.761 -20.651 -19.453  0.00  0.00    -0.057 C 
ATOM      3  C   UNL     1      34.551 -21.360 -18.100  0.00  0.00    +0.009 C 
ATOM      4  C   UNL     1      32.259 -20.221 -19.643  0.00  0.00    +0.028 C 
ATOM      5  C   UNL     1      33.120 -21.733 -17.856  0.00  0.00    +0.025 C 
ATOM      6  C   UNL     1      32.088 -21.236 -18.550  0.00  0.00    -0.026 C 
ENDROOT
BRANCH   5  12
ATOM      7  O   UNL     1      31.816 -23.420 -16.933  0.00  0.00    -0.270 OA
ATOM      8  N   UNL     1      33.704 -22.803 -15.725  0.00  0.00    -0.267 N 
ATOM      9  N   UNL     1      35.938 -23.925 -14.567  0.00  0.00    -0.292 N 
ATOM     10  N   UNL     1      34.884 -25.478 -13.455  0.00  0.00    -0.132 NA
ATOM     11  N   UNL     1      36.247 -25.670 -13.307  0.00  0.00    -0.125 NA
ATOM     12  C   UNL     1      32.822 -22.721 -16.798  0.00  0.00    +0.245 C 
ATOM     13  C   UNL     1      34.873 -21.932 -15.492  0.00  0.00    +0.119 C 
ATOM     14  C   UNL     1      33.441 -23.785 -14.661  0.00  0.00    +0.160 C 
ATOM     15  C   UNL     1      36.143 -22.778 -15.425  0.00  0.00    +0.130 C 
ATOM     16  C   UNL     1      34.711 -24.421 -14.221  0.00  0.00    +0.164 A 
ATOM     17  C   UNL     1      36.862 -24.726 -13.985  0.00  0.00    +0.238 A 
BRANCH  17  21
ATOM     18  F   UNL     1      38.973 -25.596 -14.701  0.00  0.00    -0.163 F 
ATOM     19  F   UNL     1      38.674 -23.456 -14.892  0.00  0.00    -0.163 F 
ATOM     20  F   UNL     1      38.957 -24.340 -12.926  0.00  0.00    -0.163 F 
ATOM     21  C   UNL     1      38.316 -24.537 -14.124  0.00  0.00    +0.452 C 
ENDBRANCH  17  21
ENDBRANCH   5  12
BRANCH   1  25
ATOM     22  F   UNL     1      34.678 -16.928 -19.727  0.00  0.00    -0.204 F 
ATOM     23  F   UNL     1      33.316 -19.148 -24.535  0.00  0.00    -0.202 F 
ATOM     24  F   UNL     1      34.306 -16.603 -24.433  0.00  0.00    -0.202 F 
ATOM     25  C   UNL     1      33.840 -18.774 -20.960  0.00  0.00    +0.006 C 
ATOM     26  C   UNL     1      34.344 -17.479 -20.902  0.00  0.00    +0.138 C 
ATOM     27  C   UNL     1      33.491 -19.342 -22.182  0.00  0.00    +0.030 C 
ATOM     28  C   UNL     1      33.650 -18.608 -23.356  0.00  0.00    +0.167 C 
ATOM     29  C   UNL     1      34.503 -16.744 -22.077  0.00  0.00    +0.061 C 
ATOM     30  C   UNL     1      34.156 -17.309 -23.304  0.00  0.00    +0.170 C 
ENDBRANCH   1  25
BRANCH   2  31
ATOM     31  N   UNL     1      36.103 -20.063 -19.489  0.00  0.00    +0.382 N 
ATOM     32  H   UNL     1      36.148 -19.366 -20.232  0.00  0.00    -0.089 HD
ATOM     33  H   UNL     1      36.790 -20.795 -19.667  0.00  0.00    -0.089 HD
ATOM     34  H   UNL     1      36.303 -19.618 -18.593  0.00  0.00    -0.089 HD
ENDBRANCH   2  31
TORSDOF 4
ENDMDL
MODEL 2
REMARK VINA RESULT:     -11.8      3.806      4.732
REMARK  Name = 11974440
REMARK  4 active torsions:
REMARK  status: ('A' for Active; 'I' for Inactive)
REMARK    1  A    between atoms: C_1  and  C_25
REMARK    2  A    between atoms: C_2  and  N_31
REMARK    3  A    between atoms: C_5  and  C_12
REMARK    4  A    between atoms: C_17  and  C_21
REMARK                            x       y       z     vdW  Elec       q    Type
REMARK                         _______ _______ _______ _____ _____    ______ ____
ROOT
ATOM      1  C   UNL     1      34.341 -19.666 -20.729  0.00  0.00    +0.009 C 
ATOM      2  C   UNL     1      33.141 -19.769 -19.752  0.00  0.00    -0.057 C 
ATOM      3  C   UNL     1      33.335 -20.951 -18.781  0.00  0.00    +0.009 C 
ATOM      4  C   UNL     1      35.663 -19.486 -19.946  0.00  0.00    +0.028 C 
ATOM      5  C   UNL     1      34.723 -21.022 -18.221  0.00  0.00    +0.025 C 
ATOM      6  C   UNL     1      35.770 -20.360 -18.730  0.00  0.00    -0.026 C 
ENDROOT
BRANCH   5  12
ATOM      7  O   UNL     1      36.029 -21.724 -16.433  0.00  0.00    -0.270 OA
ATOM      8  N   UNL     1      33.944 -22.731 -16.641  0.00  0.00    -0.267 N 
ATOM      9  N   UNL     1      31.678 -23.234 -15.156  0.00  0.00    -0.292 N 
ATOM     10  N   UNL     1      32.699 -24.111 -13.439  0.00  0.00    -0.132 NA
ATOM     11  N   UNL     1      31.352 -23.995 -13.145  0.00  0.00    -0.125 NA
ATOM     12  C   UNL     1      34.957 -21.857 -17.025  0.00  0.00    +0.245 C 
ATOM     13  C   UNL     1      32.681 -22.971 -17.367  0.00  0.00    +0.119 C 
ATOM     14  C   UNL     1      34.141 -23.568 -15.446  0.00  0.00    +0.160 C 
ATOM     15  C   UNL     1      31.495 -22.642 -16.463  0.00  0.00    +0.130 C 
ATOM     16  C   UNL     1      32.884 -23.645 -14.657  0.00  0.00    +0.164 A 
ATOM     17  C   UNL     1      30.756 -23.465 -14.190  0.00  0.00    +0.238 A 
BRANCH  17  21
ATOM     18  F   UNL     1      28.984 -21.879 -13.929  0.00  0.00    -0.163 F 
ATOM     19  F   UNL     1      28.850 -23.235 -15.616  0.00  0.00    -0.163 F 
ATOM     20  F   UNL     1      28.509 -23.975 -13.601  0.00  0.00    -0.163 F 
ATOM     21  C   UNL     1      29.325 -23.147 -14.331  0.00  0.00    +0.452 C 
ENDBRANCH  17  21
ENDBRANCH   5  12
BRANCH   1  25
ATOM     22  F   UNL     1      33.912 -20.192 -23.484  0.00  0.00    -0.204 F 
ATOM     23  F   UNL     1      34.226 -14.943 -21.979  0.00  0.00    -0.202 F 
ATOM     24  F   UNL     1      33.814 -15.595 -24.601  0.00  0.00    -0.202 F 
ATOM     25  C   UNL     1      34.198 -18.570 -21.774  0.00  0.00    +0.006 C 
ATOM     26  C   UNL     1      33.988 -18.908 -23.108  0.00  0.00    +0.138 C 
ATOM     27  C   UNL     1      34.279 -17.236 -21.388  0.00  0.00    +0.030 C 
ATOM     28  C   UNL     1      34.148 -16.230 -22.344  0.00  0.00    +0.167 C 
ATOM     29  C   UNL     1      33.857 -17.901 -24.064  0.00  0.00    +0.061 C 
ATOM     30  C   UNL     1      33.937 -16.562 -23.682  0.00  0.00    +0.170 C 
ENDBRANCH   1  25
BRANCH   2  31
ATOM     31  N   UNL     1      31.876 -19.936 -20.473  0.00  0.00    +0.382 N 
ATOM     32  H   UNL     1      31.987 -19.609 -21.433  0.00  0.00    -0.089 HD
ATOM     33  H   UNL     1      31.147 -19.394 -20.011  0.00  0.00    -0.089 HD
ATOM     34  H   UNL     1      31.616 -20.922 -20.479  0.00  0.00    -0.089 HD
ENDBRANCH   2  31
TORSDOF 4
ENDMDL
MODEL 3
REMARK VINA RESULT:     -11.5      1.572      2.128
REMARK  Name = 11974440
REMARK  4 active torsions:
REMARK  status: ('A' for Active; 'I' for Inactive)
REMARK    1  A    between atoms: C_1  and  C_25
REMARK    2  A    between atoms: C_2  and  N_31
REMARK    3  A    between atoms: C_5  and  C_12
REMARK    4  A    between atoms: C_17  and  C_21
REMARK                            x       y       z     vdW  Elec       q    Type
REMARK                         _______ _______ _______ _____ _____    ______ ____
ROOT
ATOM      1  C   UNL     1      34.159 -20.993 -19.219  0.00  0.00    +0.009 C 
ATOM      2  C   UNL     1      32.756 -20.927 -18.562  0.00  0.00    -0.057 C 
ATOM      3  C   UNL     1      32.571 -22.089 -17.564  0.00  0.00    +0.009 C 
ATOM      4  C   UNL     1      35.266 -20.934 -18.141  0.00  0.00    +0.028 C 
ATOM      5  C   UNL     1      33.767 -22.294 -16.684  0.00  0.00    +0.025 C 
ATOM      6  C   UNL     1      34.976 -21.771 -16.929  0.00  0.00    -0.026 C 
ENDROOT
BRANCH   5  12
ATOM      7  O   UNL     1      32.532 -23.682 -15.290  0.00  0.00    -0.270 OA
ATOM      8  N   UNL     1      34.690 -23.177 -14.588  0.00  0.00    -0.267 N 
ATOM      9  N   UNL     1      36.998 -24.437 -13.762  0.00  0.00    -0.292 N 
ATOM     10  N   UNL     1      36.060 -25.703 -12.253  0.00  0.00    -0.132 NA
ATOM     11  N   UNL     1      37.395 -26.050 -12.360  0.00  0.00    -0.125 NA
ATOM     12  C   UNL     1      33.608 -23.107 -15.461  0.00  0.00    +0.245 C 
ATOM     13  C   UNL     1      35.964 -22.443 -14.721  0.00  0.00    +0.119 C 
ATOM     14  C   UNL     1      34.567 -23.989 -13.366  0.00  0.00    +0.160 C 
ATOM     15  C   UNL     1      37.125 -23.432 -14.795  0.00  0.00    +0.130 C 
ATOM     16  C   UNL     1      35.831 -24.728 -13.109  0.00  0.00    +0.164 A 
ATOM     17  C   UNL     1      37.940 -25.277 -13.273  0.00  0.00    +0.238 A 
BRANCH  17  21
ATOM     18  F   UNL     1      40.026 -24.126 -13.494  0.00  0.00    -0.163 F 
ATOM     19  F   UNL     1      40.115 -26.265 -13.144  0.00  0.00    -0.163 F 
ATOM     20  F   UNL     1      39.471 -25.508 -15.078  0.00  0.00    -0.163 F 
ATOM     21  C   UNL     1      39.341 -25.293 -13.729  0.00  0.00    +0.452 C 
ENDBRANCH  17  21
ENDBRANCH   5  12
BRANCH   1  25
ATOM     22  F   UNL     1      36.491 -19.379 -19.299  0.00  0.00    -0.204 F 
ATOM     23  F   UNL     1      32.742 -18.518 -23.187  0.00  0.00    -0.202 F 
ATOM     24  F   UNL     1      35.038 -17.034 -23.144  0.00  0.00    -0.202 F 
ATOM     25  C   UNL     1      34.399 -19.926 -20.277  0.00  0.00    +0.006 C 
ATOM     26  C   UNL     1      35.569 -19.174 -20.250  0.00  0.00    +0.138 C 
ATOM     27  C   UNL     1      33.442 -19.710 -21.264  0.00  0.00    +0.030 C 
ATOM     28  C   UNL     1      33.659 -18.732 -22.234  0.00  0.00    +0.167 C 
ATOM     29  C   UNL     1      35.786 -18.197 -21.220  0.00  0.00    +0.061 C 
ATOM     30  C   UNL     1      34.831 -17.975 -22.213  0.00  0.00    +0.170 C 
ENDBRANCH   1  25
BRANCH   2  31
ATOM     31  N   UNL     1      31.690 -20.978 -19.566  0.00  0.00    +0.382 N 
ATOM     32  H   UNL     1      30.787 -21.068 -19.099  0.00  0.00    -0.089 HD
ATOM     33  H   UNL     1      31.837 -21.780 -20.178  0.00  0.00    -0.089 HD
ATOM     34  H   UNL     1      31.702 -20.120 -20.119  0.00  0.00    -0.089 HD
ENDBRANCH   2  31
TORSDOF 4
ENDMDL
MODEL 4
REMARK VINA RESULT:     -11.1      3.540      4.310
REMARK  Name = 11974440
REMARK  4 active torsions:
REMARK  status: ('A' for Active; 'I' for Inactive)
REMARK    1  A    between atoms: C_1  and  C_25
REMARK    2  A    between atoms: C_2  and  N_31
REMARK    3  A    between atoms: C_5  and  C_12
REMARK    4  A    between atoms: C_17  and  C_21
REMARK                            x       y       z     vdW  Elec       q    Type
REMARK                         _______ _______ _______ _____ _____    ______ ____
ROOT
ATOM      1  C   UNL     1      34.349 -20.056 -20.238  0.00  0.00    +0.009 C 
ATOM      2  C   UNL     1      33.180 -20.144 -19.223  0.00  0.00    -0.057 C 
ATOM      3  C   UNL     1      33.425 -21.286 -18.215  0.00  0.00    +0.009 C 
ATOM      4  C   UNL     1      35.689 -19.822 -19.502  0.00  0.00    +0.028 C 
ATOM      5  C   UNL     1      34.830 -21.309 -17.694  0.00  0.00    +0.025 C 
ATOM      6  C   UNL     1      35.848 -20.647 -18.259  0.00  0.00    -0.026 C 
ENDROOT
BRANCH   5  12
ATOM      7  O   UNL     1      36.186 -21.893 -15.901  0.00  0.00    -0.270 OA
ATOM      8  N   UNL     1      34.148 -23.000 -16.051  0.00  0.00    -0.267 N 
ATOM      9  N   UNL     1      31.923 -23.559 -14.523  0.00  0.00    -0.292 N 
ATOM     10  N   UNL     1      33.003 -24.332 -12.793  0.00  0.00    -0.132 NA
ATOM     11  N   UNL     1      31.655 -24.269 -12.486  0.00  0.00    -0.125 NA
ATOM     12  C   UNL     1      35.115 -22.094 -16.476  0.00  0.00    +0.245 C 
ATOM     13  C   UNL     1      32.889 -23.321 -16.754  0.00  0.00    +0.119 C 
ATOM     14  C   UNL     1      34.396 -23.789 -14.834  0.00  0.00    +0.160 C 
ATOM     15  C   UNL     1      31.699 -23.018 -15.846  0.00  0.00    +0.130 C 
ATOM     16  C   UNL     1      33.152 -23.898 -14.027  0.00  0.00    +0.164 A 
ATOM     17  C   UNL     1      31.024 -23.800 -13.540  0.00  0.00    +0.238 A 
BRANCH  17  21
ATOM     18  F   UNL     1      29.227 -22.225 -13.662  0.00  0.00    -0.163 F 
ATOM     19  F   UNL     1      29.025 -24.040 -14.832  0.00  0.00    -0.163 F 
ATOM     20  F   UNL     1      28.835 -24.118 -12.667  0.00  0.00    -0.163 F 
ATOM     21  C   UNL     1      29.578 -23.553 -13.673  0.00  0.00    +0.452 C 
ENDBRANCH  17  21
ENDBRANCH   5  12
BRANCH   1  25
ATOM     22  F   UNL     1      34.955 -17.309 -19.863  0.00  0.00    -0.204 F 
ATOM     23  F   UNL     1      32.987 -18.772 -24.752  0.00  0.00    -0.202 F 
ATOM     24  F   UNL     1      33.614 -16.158 -24.253  0.00  0.00    -0.202 F 
ATOM     25  C   UNL     1      34.153 -19.003 -21.319  0.00  0.00    +0.006 C 
ATOM     26  C   UNL     1      34.474 -17.675 -21.059  0.00  0.00    +0.138 C 
ATOM     27  C   UNL     1      33.651 -19.379 -22.561  0.00  0.00    +0.030 C 
ATOM     28  C   UNL     1      33.470 -18.417 -23.554  0.00  0.00    +0.167 C 
ATOM     29  C   UNL     1      34.293 -16.712 -22.052  0.00  0.00    +0.061 C 
ATOM     30  C   UNL     1      33.791 -17.083 -23.300  0.00  0.00    +0.170 C 
ENDBRANCH   1  25
BRANCH   2  31
ATOM     31  N   UNL     1      31.898 -20.362 -19.899  0.00  0.00    +0.382 N 
ATOM     32  H   UNL     1      32.049 -20.405 -20.907  0.00  0.00    -0.089 HD
ATOM     33  H   UNL     1      31.265 -19.594 -19.683  0.00  0.00    -0.089 HD
ATOM     34  H   UNL     1      31.490 -21.241 -19.580  0.00  0.00    -0.089 HD
ENDBRANCH   2  31
TORSDOF 4
ENDMDL
MODEL 5
REMARK VINA RESULT:     -10.9      3.926     10.021
REMARK  Name = 11974440
REMARK  4 active torsions:
REMARK  status: ('A' for Active; 'I' for Inactive)
REMARK    1  A    between atoms: C_1  and  C_25
REMARK    2  A    between atoms: C_2  and  N_31
REMARK    3  A    between atoms: C_5  and  C_12
REMARK    4  A    between atoms: C_17  and  C_21
REMARK                            x       y       z     vdW  Elec       q    Type
REMARK                         _______ _______ _______ _____ _____    ______ ____
ROOT
ATOM      1  C   UNL     1      33.946 -21.410 -18.666  0.00  0.00    +0.009 C 
ATOM      2  C   UNL     1      35.205 -20.527 -18.869  0.00  0.00    -0.057 C 
ATOM      3  C   UNL     1      35.303 -20.056 -20.334  0.00  0.00    +0.009 C 
ATOM      4  C   UNL     1      32.667 -20.627 -19.048  0.00  0.00    +0.028 C 
ATOM      5  C   UNL     1      33.993 -19.572 -20.878  0.00  0.00    +0.025 C 
ATOM      6  C   UNL     1      32.808 -19.814 -20.302  0.00  0.00    -0.026 C 
ENDROOT
BRANCH   5  12
ATOM      7  O   UNL     1      33.814 -19.350 -23.184  0.00  0.00    -0.270 OA
ATOM      8  N   UNL     1      34.208 -17.394 -21.990  0.00  0.00    -0.267 N 
ATOM      9  N   UNL     1      33.181 -14.855 -21.687  0.00  0.00    -0.292 N 
ATOM     10  N   UNL     1      33.109 -14.365 -23.811  0.00  0.00    -0.132 NA
ATOM     11  N   UNL     1      32.520 -13.337 -23.096  0.00  0.00    -0.125 NA
ATOM     12  C   UNL     1      34.001 -18.765 -22.115  0.00  0.00    +0.245 C 
ATOM     13  C   UNL     1      34.509 -16.671 -20.738  0.00  0.00    +0.119 C 
ATOM     14  C   UNL     1      34.209 -16.561 -23.203  0.00  0.00    +0.160 C 
ATOM     15  C   UNL     1      33.438 -15.613 -20.482  0.00  0.00    +0.130 C 
ATOM     16  C   UNL     1      33.503 -15.278 -22.948  0.00  0.00    +0.164 A 
ATOM     17  C   UNL     1      32.573 -13.652 -21.821  0.00  0.00    +0.238 A 
BRANCH  17  21
ATOM     18  F   UNL     1      31.574 -11.626 -21.034  0.00  0.00    -0.163 F 
ATOM     19  F   UNL     1      31.022 -13.456 -20.010  0.00  0.00    -0.163 F 
ATOM     20  F   UNL     1      33.005 -12.611 -19.727  0.00  0.00    -0.163 F 
ATOM     21  C   UNL     1      32.059 -12.863 -20.688  0.00  0.00    +0.452 C 
ENDBRANCH  17  21
ENDBRANCH   5  12
BRANCH   1  25
ATOM     22  F   UNL     1      31.545 -22.555 -17.678  0.00  0.00    -0.204 F 
ATOM     23  F   UNL     1      35.827 -22.454 -14.279  0.00  0.00    -0.202 F 
ATOM     24  F   UNL     1      33.452 -23.529 -13.459  0.00  0.00    -0.202 F 
ATOM     25  C   UNL     1      33.810 -21.983 -17.263  0.00  0.00    +0.006 C 
ATOM     26  C   UNL     1      32.599 -22.529 -16.851  0.00  0.00    +0.138 C 
ATOM     27  C   UNL     1      34.902 -21.955 -16.401  0.00  0.00    +0.030 C 
ATOM     28  C   UNL     1      34.780 -22.479 -15.114  0.00  0.00    +0.167 C 
ATOM     29  C   UNL     1      32.477 -23.053 -15.565  0.00  0.00    +0.061 C 
ATOM     30  C   UNL     1      33.569 -23.028 -14.696  0.00  0.00    +0.170 C 
ENDBRANCH   1  25
BRANCH   2  31
ATOM     31  N   UNL     1      36.429 -21.249 -18.509  0.00  0.00    +0.382 N 
ATOM     32  H   UNL     1      36.577 -21.184 -17.502  0.00  0.00    -0.089 HD
ATOM     33  H   UNL     1      37.223 -20.835 -18.996  0.00  0.00    -0.089 HD
ATOM     34  H   UNL     1      36.337 -22.229 -18.776  0.00  0.00    -0.089 HD
ENDBRANCH   2  31
TORSDOF 4
ENDMDL
MODEL 6
REMARK VINA RESULT:     -10.8      3.738      9.967
REMARK  Name = 11974440
REMARK  4 active torsions:
REMARK  status: ('A' for Active; 'I' for Inactive)
REMARK    1  A    between atoms: C_1  and  C_25
REMARK    2  A    between atoms: C_2  and  N_31
REMARK    3  A    between atoms: C_5  and  C_12
REMARK    4  A    between atoms: C_17  and  C_21
REMARK                            x       y       z     vdW  Elec       q    Type
REMARK                         _______ _______ _______ _____ _____    ______ ____
ROOT
ATOM      1  C   UNL     1      34.124 -20.935 -17.921  0.00  0.00    +0.009 C 
ATOM      2  C   UNL     1      32.908 -21.209 -18.843  0.00  0.00    -0.057 C 
ATOM      3  C   UNL     1      32.814 -20.135 -19.946  0.00  0.00    +0.009 C 
ATOM      4  C   UNL     1      35.435 -20.916 -18.743  0.00  0.00    +0.028 C 
ATOM      5  C   UNL     1      34.139 -19.833 -20.578  0.00  0.00    +0.025 C 
ATOM      6  C   UNL     1      35.318 -20.189 -20.050  0.00  0.00    -0.026 C 
ENDROOT
BRANCH   5  12
ATOM      7  O   UNL     1      33.954 -19.768 -22.892  0.00  0.00    -0.270 OA
ATOM      8  N   UNL     1      34.387 -17.741 -21.839  0.00  0.00    -0.267 N 
ATOM      9  N   UNL     1      33.405 -15.169 -21.709  0.00  0.00    -0.292 N 
ATOM     10  N   UNL     1      33.333 -14.826 -23.862  0.00  0.00    -0.132 NA
ATOM     11  N   UNL     1      32.764 -13.741 -23.218  0.00  0.00    -0.125 NA
ATOM     12  C   UNL     1      34.155 -19.114 -21.868  0.00  0.00    +0.245 C 
ATOM     13  C   UNL     1      34.707 -16.939 -20.641  0.00  0.00    +0.119 C 
ATOM     14  C   UNL     1      34.397 -16.994 -23.106  0.00  0.00    +0.160 C 
ATOM     15  C   UNL     1      33.656 -15.846 -20.455  0.00  0.00    +0.130 C 
ATOM     16  C   UNL     1      33.714 -15.684 -22.939  0.00  0.00    +0.164 A 
ATOM     17  C   UNL     1      32.818 -13.968 -21.924  0.00  0.00    +0.238 A 
BRANCH  17  21
ATOM     18  F   UNL     1      31.239 -13.590 -20.167  0.00  0.00    -0.163 F 
ATOM     19  F   UNL     1      33.246 -12.828 -19.866  0.00  0.00    -0.163 F 
ATOM     20  F   UNL     1      31.921 -11.859 -21.291  0.00  0.00    -0.163 F 
ATOM     21  C   UNL     1      32.323 -13.093 -20.847  0.00  0.00    +0.452 C 
ENDBRANCH  17  21
ENDBRANCH   5  12
BRANCH   1  25
ATOM     22  F   UNL     1      36.558 -21.398 -16.537  0.00  0.00    -0.204 F 
ATOM     23  F   UNL     1      32.170 -24.191 -14.845  0.00  0.00    -0.202 F 
ATOM     24  F   UNL     1      34.580 -24.539 -13.602  0.00  0.00    -0.202 F 
ATOM     25  C   UNL     1      34.250 -21.905 -16.756  0.00  0.00    +0.006 C 
ATOM     26  C   UNL     1      35.478 -22.078 -16.127  0.00  0.00    +0.138 C 
ATOM     27  C   UNL     1      33.131 -22.614 -16.329  0.00  0.00    +0.030 C 
ATOM     28  C   UNL     1      33.243 -23.505 -15.261  0.00  0.00    +0.167 C 
ATOM     29  C   UNL     1      35.590 -22.968 -15.059  0.00  0.00    +0.061 C 
ATOM     30  C   UNL     1      34.472 -23.682 -14.626  0.00  0.00    +0.170 C 
ENDBRANCH   1  25
BRANCH   2  31
ATOM     31  N   UNL     1      31.654 -21.235 -18.084  0.00  0.00    +0.382 N 
ATOM     32  H   UNL     1      30.920 -20.778 -18.626  0.00  0.00    -0.089 HD
ATOM     33  H   UNL     1      31.782 -20.743 -17.201  0.00  0.00    -0.089 HD
ATOM     34  H   UNL     1      31.388 -22.202 -17.901  0.00  0.00    -0.089 HD
ENDBRANCH   2  31
TORSDOF 4
ENDMDL
MODEL 7
REMARK VINA RESULT:     -10.4     10.838     16.532
REMARK  Name = 11974440
REMARK  4 active torsions:
REMARK  status: ('A' for Active; 'I' for Inactive)
REMARK    1  A    between atoms: C_1  and  C_25
REMARK    2  A    between atoms: C_2  and  N_31
REMARK    3  A    between atoms: C_5  and  C_12
REMARK    4  A    between atoms: C_17  and  C_21
REMARK                            x       y       z     vdW  Elec       q    Type
REMARK                         _______ _______ _______ _____ _____    ______ ____
ROOT
ATOM      1  C   UNL     1      32.346 -11.342 -23.071  0.00  0.00    +0.009 C 
ATOM      2  C   UNL     1      33.474 -10.278 -23.103  0.00  0.00    -0.057 C 
ATOM      3  C   UNL     1      32.907  -8.880 -22.783  0.00  0.00    +0.009 C 
ATOM      4  C   UNL     1      31.661 -11.363 -21.684  0.00  0.00    +0.028 C 
ATOM      5  C   UNL     1      31.963  -8.888 -21.618  0.00  0.00    +0.025 C 
ATOM      6  C   UNL     1      31.409  -9.998 -21.113  0.00  0.00    -0.026 C 
ENDROOT
BRANCH   5  12
ATOM      7  O   UNL     1      32.294  -7.266 -19.989  0.00  0.00    -0.270 OA
ATOM      8  N   UNL     1      30.600  -6.849 -21.526  0.00  0.00    -0.267 N 
ATOM      9  N   UNL     1      29.762  -4.892 -23.276  0.00  0.00    -0.292 N 
ATOM     10  N   UNL     1      29.817  -3.245 -21.846  0.00  0.00    -0.132 NA
ATOM     11  N   UNL     1      29.526  -2.737 -23.100  0.00  0.00    -0.125 NA
ATOM     12  C   UNL     1      31.632  -7.602 -20.973  0.00  0.00    +0.245 C 
ATOM     13  C   UNL     1      29.738  -7.253 -22.655  0.00  0.00    +0.119 C 
ATOM     14  C   UNL     1      30.254  -5.557 -20.914  0.00  0.00    +0.160 C 
ATOM     15  C   UNL     1      29.864  -6.240 -23.790  0.00  0.00    +0.130 C 
ATOM     16  C   UNL     1      29.960  -4.549 -21.966  0.00  0.00    +0.164 A 
ATOM     17  C   UNL     1      29.499  -3.744 -23.945  0.00  0.00    +0.238 A 
BRANCH  17  21
ATOM     18  F   UNL     1      29.271  -2.414 -25.921  0.00  0.00    -0.163 F 
ATOM     19  F   UNL     1      30.131  -4.390 -26.159  0.00  0.00    -0.163 F 
ATOM     20  F   UNL     1      28.007  -4.175 -25.747  0.00  0.00    -0.163 F 
ATOM     21  C   UNL     1      29.238  -3.682 -25.394  0.00  0.00    +0.452 C 
ENDBRANCH  17  21
ENDBRANCH   5  12
BRANCH   1  25
ATOM     22  F   UNL     1      31.880 -12.489 -25.624  0.00  0.00    -0.204 F 
ATOM     23  F   UNL     1      34.556 -15.559 -21.974  0.00  0.00    -0.202 F 
ATOM     24  F   UNL     1      34.040 -16.538 -24.473  0.00  0.00    -0.202 F 
ATOM     25  C   UNL     1      32.803 -12.742 -23.452  0.00  0.00    +0.006 C 
ATOM     26  C   UNL     1      32.537 -13.235 -24.725  0.00  0.00    +0.138 C 
ATOM     27  C   UNL     1      33.482 -13.520 -22.520  0.00  0.00    +0.030 C 
ATOM     28  C   UNL     1      33.902 -14.804 -22.866  0.00  0.00    +0.167 C 
ATOM     29  C   UNL     1      32.957 -14.519 -25.071  0.00  0.00    +0.061 C 
ATOM     30  C   UNL     1      33.640 -15.304 -24.141  0.00  0.00    +0.170 C 
ENDBRANCH   1  25
BRANCH   2  31
ATOM     31  N   UNL     1      34.140 -10.243 -24.408  0.00  0.00    +0.382 N 
ATOM     32  H   UNL     1      35.032 -10.734 -24.347  0.00  0.00    -0.089 HD
ATOM     33  H   UNL     1      34.303  -9.274 -24.680  0.00  0.00    -0.089 HD
ATOM     34  H   UNL     1      33.549 -10.698 -25.104  0.00  0.00    -0.089 HD
ENDBRANCH   2  31
TORSDOF 4
ENDMDL
MODEL 8
REMARK VINA RESULT:     -10.3     10.211     15.830
REMARK  Name = 11974440
REMARK  4 active torsions:
REMARK  status: ('A' for Active; 'I' for Inactive)
REMARK    1  A    between atoms: C_1  and  C_25
REMARK    2  A    between atoms: C_2  and  N_31
REMARK    3  A    between atoms: C_5  and  C_12
REMARK    4  A    between atoms: C_17  and  C_21
REMARK                            x       y       z     vdW  Elec       q    Type
REMARK                         _______ _______ _______ _____ _____    ______ ____
ROOT
ATOM      1  C   UNL     1      32.064 -12.134 -22.552  0.00  0.00    +0.009 C 
ATOM      2  C   UNL     1      33.067 -10.953 -22.618  0.00  0.00    -0.057 C 
ATOM      3  C   UNL     1      32.334  -9.609 -22.431  0.00  0.00    +0.009 C 
ATOM      4  C   UNL     1      31.314 -12.133 -21.199  0.00  0.00    +0.028 C 
ATOM      5  C   UNL     1      31.337  -9.642 -21.312  0.00  0.00    +0.025 C 
ATOM      6  C   UNL     1      30.884 -10.769 -20.747  0.00  0.00    -0.026 C 
ENDROOT
BRANCH   5  12
ATOM      7  O   UNL     1      30.753  -8.234 -19.560  0.00  0.00    -0.270 OA
ATOM      8  N   UNL     1      30.490  -7.372 -21.703  0.00  0.00    -0.267 N 
ATOM      9  N   UNL     1      31.203  -5.174 -23.205  0.00  0.00    -0.292 N 
ATOM     10  N   UNL     1      30.538  -3.671 -21.770  0.00  0.00    -0.132 NA
ATOM     11  N   UNL     1      31.176  -3.034 -22.820  0.00  0.00    -0.125 NA
ATOM     12  C   UNL     1      30.832  -8.359 -20.783  0.00  0.00    +0.245 C 
ATOM     13  C   UNL     1      30.500  -7.512 -23.173  0.00  0.00    +0.119 C 
ATOM     14  C   UNL     1      29.995  -6.077 -21.208  0.00  0.00    +0.160 C 
ATOM     15  C   UNL     1      31.442  -6.477 -23.785  0.00  0.00    +0.130 C 
ATOM     16  C   UNL     1      30.563  -4.965 -22.013  0.00  0.00    +0.164 A 
ATOM     17  C   UNL     1      31.568  -3.956 -23.671  0.00  0.00    +0.238 A 
BRANCH  17  21
ATOM     18  F   UNL     1      33.534  -4.344 -24.979  0.00  0.00    -0.163 F 
ATOM     19  F   UNL     1      31.650  -4.224 -26.046  0.00  0.00    -0.163 F 
ATOM     20  F   UNL     1      32.539  -2.424 -25.210  0.00  0.00    -0.163 F 
ATOM     21  C   UNL     1      32.298  -3.747 -24.934  0.00  0.00    +0.452 C 
ENDBRANCH  17  21
ENDBRANCH   5  12
BRANCH   1  25
ATOM     22  F   UNL     1      32.019 -13.425 -25.078  0.00  0.00    -0.204 F 
ATOM     23  F   UNL     1      34.510 -16.063 -20.986  0.00  0.00    -0.202 F 
ATOM     24  F   UNL     1      34.393 -17.190 -23.474  0.00  0.00    -0.202 F 
ATOM     25  C   UNL     1      32.692 -13.496 -22.804  0.00  0.00    +0.006 C 
ATOM     26  C   UNL     1      32.630 -14.065 -24.072  0.00  0.00    +0.138 C 
ATOM     27  C   UNL     1      33.324 -14.165 -21.760  0.00  0.00    +0.030 C 
ATOM     28  C   UNL     1      33.900 -15.414 -21.987  0.00  0.00    +0.167 C 
ATOM     29  C   UNL     1      33.206 -15.314 -24.299  0.00  0.00    +0.061 C 
ATOM     30  C   UNL     1      33.842 -15.989 -23.256  0.00  0.00    +0.170 C 
ENDBRANCH   1  25
BRANCH   2  31
ATOM     31  N   UNL     1      33.793 -10.936 -23.892  0.00  0.00    +0.382 N 
ATOM     32  H   UNL     1      34.797 -10.951 -23.711  0.00  0.00    -0.089 HD
ATOM     33  H   UNL     1      33.553 -10.091 -24.408  0.00  0.00    -0.089 HD
ATOM     34  H   UNL     1      33.535 -11.756 -24.441  0.00  0.00    -0.089 HD
ENDBRANCH   2  31
TORSDOF 4
ENDMDL
MODEL 9
REMARK VINA RESULT:     -10.3     10.311     15.895
REMARK  Name = 11974440
REMARK  4 active torsions:
REMARK  status: ('A' for Active; 'I' for Inactive)
REMARK    1  A    between atoms: C_1  and  C_25
REMARK    2  A    between atoms: C_2  and  N_31
REMARK    3  A    between atoms: C_5  and  C_12
REMARK    4  A    between atoms: C_17  and  C_21
REMARK                            x       y       z     vdW  Elec       q    Type
REMARK                         _______ _______ _______ _____ _____    ______ ____
ROOT
ATOM      1  C   UNL     1      32.478 -11.898 -21.749  0.00  0.00    +0.009 C 
ATOM      2  C   UNL     1      31.076 -11.901 -21.086  0.00  0.00    -0.057 C 
ATOM      3  C   UNL     1      30.837 -10.584 -20.321  0.00  0.00    +0.009 C 
ATOM      4  C   UNL     1      32.616 -10.701 -22.719  0.00  0.00    +0.028 C 
ATOM      5  C   UNL     1      31.258  -9.375 -21.100  0.00  0.00    +0.025 C 
ATOM      6  C   UNL     1      32.046  -9.420 -22.183  0.00  0.00    -0.026 C 
ENDROOT
BRANCH   5  12
ATOM      7  O   UNL     1      30.678  -7.842 -19.454  0.00  0.00    -0.270 OA
ATOM      8  N   UNL     1      30.445  -7.126 -21.654  0.00  0.00    -0.267 N 
ATOM      9  N   UNL     1      31.201  -5.046 -23.296  0.00  0.00    -0.292 N 
ATOM     10  N   UNL     1      30.544  -3.440 -21.974  0.00  0.00    -0.132 NA
ATOM     11  N   UNL     1      31.199  -2.884 -23.060  0.00  0.00    -0.125 NA
ATOM     12  C   UNL     1      30.766  -8.052 -20.665  0.00  0.00    +0.245 C 
ATOM     13  C   UNL     1      30.466  -7.367 -23.111  0.00  0.00    +0.119 C 
ATOM     14  C   UNL     1      29.964  -5.795 -21.253  0.00  0.00    +0.160 C 
ATOM     15  C   UNL     1      31.427  -6.389 -23.783  0.00  0.00    +0.130 C 
ATOM     16  C   UNL     1      30.554  -4.747 -22.128  0.00  0.00    +0.164 A 
ATOM     17  C   UNL     1      31.586  -3.868 -23.841  0.00  0.00    +0.238 A 
BRANCH  17  21
ATOM     18  F   UNL     1      33.565  -4.354 -25.095  0.00  0.00    -0.163 F 
ATOM     19  F   UNL     1      31.693  -4.315 -26.188  0.00  0.00    -0.163 F 
ATOM     20  F   UNL     1      32.575  -2.458 -25.482  0.00  0.00    -0.163 F 
ATOM     21  C   UNL     1      32.330  -3.755 -25.108  0.00  0.00    +0.452 C 
ENDBRANCH  17  21
ENDBRANCH   5  12
BRANCH   1  25
ATOM     22  F   UNL     1      33.996 -13.973 -20.549  0.00  0.00    -0.204 F 
ATOM     23  F   UNL     1      32.310 -14.786 -25.687  0.00  0.00    -0.202 F 
ATOM     24  F   UNL     1      33.780 -16.702 -24.408  0.00  0.00    -0.202 F 
ATOM     25  C   UNL     1      32.829 -13.194 -22.463  0.00  0.00    +0.006 C 
ATOM     26  C   UNL     1      33.578 -14.166 -21.807  0.00  0.00    +0.138 C 
ATOM     27  C   UNL     1      32.399 -13.397 -23.771  0.00  0.00    +0.030 C 
ATOM     28  C   UNL     1      32.720 -14.584 -24.428  0.00  0.00    +0.167 C 
ATOM     29  C   UNL     1      33.899 -15.353 -22.464  0.00  0.00    +0.061 C 
ATOM     30  C   UNL     1      33.470 -15.563 -23.775  0.00  0.00    +0.170 C 
ENDBRANCH   1  25
BRANCH   2  31
ATOM     31  N   UNL     1      30.922 -13.031 -20.164  0.00  0.00    +0.382 N 
ATOM     32  H   UNL     1      31.807 -13.534 -20.093  0.00  0.00    -0.089 HD
ATOM     33  H   UNL     1      30.201 -13.660 -20.516  0.00  0.00    -0.089 HD
ATOM     34  H   UNL     1      30.653 -12.684 -19.243  0.00  0.00    -0.089 HD
ENDBRANCH   2  31
TORSDOF 4
ENDMDL
