MODEL 1
REMARK VINA RESULT:     -12.8      0.000      0.000
REMARK  Name = 24779676
REMARK  4 active torsions:
REMARK  status: ('A' for Active; 'I' for Inactive)
REMARK    1  A    between atoms: N_2  and  C_22
REMARK    2  A    between atoms: N_3  and  C_14
REMARK    3  A    between atoms: C_10  and  C_21
REMARK    4  A    between atoms: C_22  and  C_24
REMARK                            x       y       z     vdW  Elec       q    Type
REMARK                         _______ _______ _______ _____ _____    ______ ____
ROOT
ATOM      1  N   UNL     1      31.335 -24.102 -13.466  0.00  0.00    -0.123 N 
ATOM      2  N   UNL     1      33.149 -22.539 -16.674  0.00  0.00    -0.254 N 
ATOM      3  N   UNL     1      33.372 -24.298 -12.288  0.00  0.00    -0.274 N 
ATOM      4  N   UNL     1      33.267 -23.417 -14.485  0.00  0.00    -0.295 NA
ATOM      5  N   UNL     1      31.187 -23.234 -15.648  0.00  0.00    -0.314 NA
ATOM      6  N   UNL     1      30.623 -24.616 -12.449  0.00  0.00    -0.170 NA
ATOM      7  C   UNL     1      32.709 -23.926 -13.426  0.00  0.00    +0.279 C 
ATOM      8  C   UNL     1      30.588 -23.762 -14.558  0.00  0.00    +0.219 C 
ATOM      9  C   UNL     1      32.491 -23.075 -15.592  0.00  0.00    +0.203 C 
ATOM     10  C   UNL     1      29.291 -24.080 -14.228  0.00  0.00    +0.203 C 
ATOM     11  C   UNL     1      29.372 -24.600 -12.920  0.00  0.00    +0.116 C 
ATOM     12  H   UNL     1      34.126 -22.422 -16.629  0.00  0.00    +0.161 HD
ATOM     13  H   UNL     1      32.823 -24.671 -11.561  0.00  0.00    +0.156 HD
ENDROOT
BRANCH   3  14
ATOM     14  C   UNL     1      34.744 -24.206 -12.049  0.00  0.00    +0.051 C 
ATOM     15  C   UNL     1      35.603 -25.199 -12.521  0.00  0.00    +0.015 C 
ATOM     16  C   UNL     1      35.256 -23.121 -11.336  0.00  0.00    +0.015 C 
ATOM     17  C   UNL     1      36.974 -25.106 -12.281  0.00  0.00    +0.001 C 
ATOM     18  C   UNL     1      36.628 -23.029 -11.098  0.00  0.00    +0.001 C 
ATOM     19  C   UNL     1      37.486 -24.022 -11.570  0.00  0.00    +0.000 C 
ENDBRANCH   3  14
BRANCH  10  21
ATOM     20  N   UNL     1      27.199 -23.770 -15.709  0.00  0.00    -0.195 NA
ATOM     21  C   UNL     1      28.140 -23.910 -15.043  0.00  0.00    +0.087 C 
ENDBRANCH  10  21
BRANCH   2  22
ATOM     22  C   UNL     1      32.461 -22.150 -17.865  0.00  0.00    +0.125 C 
BRANCH  22  24
ATOM     23 CL   UNL     1      35.875 -18.451 -21.156  0.00  0.00    -0.082 Cl
ATOM     24  C   UNL     1      33.314 -21.226 -18.688  0.00  0.00    -0.002 C 
ATOM     25  C   UNL     1      32.718 -20.336 -19.582  0.00  0.00    -0.002 C 
ATOM     26  C   UNL     1      34.703 -21.257 -18.557  0.00  0.00    -0.002 C 
ATOM     27  C   UNL     1      33.510 -19.478 -20.344  0.00  0.00    +0.011 C 
ATOM     28  C   UNL     1      35.495 -20.399 -19.321  0.00  0.00    +0.011 C 
ATOM     29  C   UNL     1      34.898 -19.510 -20.214  0.00  0.00    +0.058 C 
ENDBRANCH  22  24
ENDBRANCH   2  22
TORSDOF 4
ENDMDL
MODEL 2
REMARK VINA RESULT:     -11.6      1.490      5.493
REMARK  Name = 24779676
REMARK  4 active torsions:
REMARK  status: ('A' for Active; 'I' for Inactive)
REMARK    1  A    between atoms: N_2  and  C_22
REMARK    2  A    between atoms: N_3  and  C_14
REMARK    3  A    between atoms: C_10  and  C_21
REMARK    4  A    between atoms: C_22  and  C_24
REMARK                            x       y       z     vdW  Elec       q    Type
REMARK                         _______ _______ _______ _____ _____    ______ ____
ROOT
ATOM      1  N   UNL     1      32.902 -23.630 -13.673  0.00  0.00    -0.123 N 
ATOM      2  N   UNL     1      33.350 -22.165 -17.371  0.00  0.00    -0.254 N 
ATOM      3  N   UNL     1      30.547 -23.581 -13.834  0.00  0.00    -0.274 N 
ATOM      4  N   UNL     1      31.946 -22.870 -15.609  0.00  0.00    -0.295 NA
ATOM      5  N   UNL     1      34.326 -22.932 -15.411  0.00  0.00    -0.314 NA
ATOM      6  N   UNL     1      32.871 -24.125 -12.424  0.00  0.00    -0.170 NA
ATOM      7  C   UNL     1      31.764 -23.345 -14.412  0.00  0.00    +0.279 C 
ATOM      8  C   UNL     1      34.160 -23.427 -14.164  0.00  0.00    +0.219 C 
ATOM      9  C   UNL     1      33.236 -22.668 -16.097  0.00  0.00    +0.203 C 
ATOM     10  C   UNL     1      35.014 -23.818 -13.159  0.00  0.00    +0.203 C 
ATOM     11  C   UNL     1      34.166 -24.238 -12.114  0.00  0.00    +0.116 C 
ATOM     12  H   UNL     1      32.532 -21.968 -17.882  0.00  0.00    +0.161 HD
ATOM     13  H   UNL     1      30.557 -23.944 -12.918  0.00  0.00    +0.156 HD
ENDROOT
BRANCH   3  14
ATOM     14  C   UNL     1      29.291 -23.361 -14.403  0.00  0.00    +0.051 C 
ATOM     15  C   UNL     1      28.655 -22.132 -14.235  0.00  0.00    +0.015 C 
ATOM     16  C   UNL     1      28.673 -24.372 -15.139  0.00  0.00    +0.015 C 
ATOM     17  C   UNL     1      27.400 -21.913 -14.804  0.00  0.00    +0.001 C 
ATOM     18  C   UNL     1      27.419 -24.153 -15.709  0.00  0.00    +0.001 C 
ATOM     19  C   UNL     1      26.782 -22.923 -15.541  0.00  0.00    +0.000 C 
ENDBRANCH   3  14
BRANCH  10  21
ATOM     20  N   UNL     1      37.594 -23.775 -13.219  0.00  0.00    -0.195 NA
ATOM     21  C   UNL     1      36.434 -23.794 -13.192  0.00  0.00    +0.087 C 
ENDBRANCH  10  21
BRANCH   2  22
ATOM     22  C   UNL     1      34.620 -21.916 -17.978  0.00  0.00    +0.125 C 
BRANCH  22  24
ATOM     23 CL   UNL     1      34.185 -17.507 -22.046  0.00  0.00    -0.082 Cl
ATOM     24  C   UNL     1      34.511 -20.815 -18.996  0.00  0.00    -0.002 C 
ATOM     25  C   UNL     1      33.269 -20.490 -19.543  0.00  0.00    -0.002 C 
ATOM     26  C   UNL     1      35.652 -20.115 -19.391  0.00  0.00    -0.002 C 
ATOM     27  C   UNL     1      33.169 -19.467 -20.486  0.00  0.00    +0.011 C 
ATOM     28  C   UNL     1      35.551 -19.093 -20.334  0.00  0.00    +0.011 C 
ATOM     29  C   UNL     1      34.310 -18.769 -20.881  0.00  0.00    +0.058 C 
ENDBRANCH  22  24
ENDBRANCH   2  22
TORSDOF 4
ENDMDL
MODEL 3
REMARK VINA RESULT:     -10.7      1.993      5.454
REMARK  Name = 24779676
REMARK  4 active torsions:
REMARK  status: ('A' for Active; 'I' for Inactive)
REMARK    1  A    between atoms: N_2  and  C_22
REMARK    2  A    between atoms: N_3  and  C_14
REMARK    3  A    between atoms: C_10  and  C_21
REMARK    4  A    between atoms: C_22  and  C_24
REMARK                            x       y       z     vdW  Elec       q    Type
REMARK                         _______ _______ _______ _____ _____    ______ ____
ROOT
ATOM      1  N   UNL     1      35.072 -24.330 -13.468  0.00  0.00    -0.123 N 
ATOM      2  N   UNL     1      34.711 -21.905 -16.632  0.00  0.00    -0.254 N 
ATOM      3  N   UNL     1      32.739 -24.366 -13.105  0.00  0.00    -0.274 N 
ATOM      4  N   UNL     1      33.721 -23.131 -14.873  0.00  0.00    -0.295 NA
ATOM      5  N   UNL     1      36.086 -23.118 -15.209  0.00  0.00    -0.314 NA
ATOM      6  N   UNL     1      35.311 -25.143 -12.424  0.00  0.00    -0.170 NA
ATOM      7  C   UNL     1      33.802 -23.919 -13.841  0.00  0.00    +0.279 C 
ATOM      8  C   UNL     1      36.193 -23.936 -14.140  0.00  0.00    +0.219 C 
ATOM      9  C   UNL     1      34.874 -22.737 -15.549  0.00  0.00    +0.203 C 
ATOM     10  C   UNL     1      37.244 -24.536 -13.484  0.00  0.00    +0.203 C 
ATOM     11  C   UNL     1      36.642 -25.266 -12.439  0.00  0.00    +0.116 C 
ATOM     12  H   UNL     1      33.802 -21.623 -16.884  0.00  0.00    +0.161 HD
ATOM     13  H   UNL     1      32.947 -24.959 -12.347  0.00  0.00    +0.156 HD
ENDROOT
BRANCH   3  14
ATOM     14  C   UNL     1      31.391 -24.069 -13.312  0.00  0.00    +0.051 C 
ATOM     15  C   UNL     1      30.460 -25.100 -13.430  0.00  0.00    +0.015 C 
ATOM     16  C   UNL     1      30.976 -22.740 -13.402  0.00  0.00    +0.015 C 
ATOM     17  C   UNL     1      29.113 -24.803 -13.637  0.00  0.00    +0.001 C 
ATOM     18  C   UNL     1      29.628 -22.443 -13.609  0.00  0.00    +0.001 C 
ATOM     19  C   UNL     1      28.697 -23.474 -13.727  0.00  0.00    +0.000 C 
ENDBRANCH   3  14
BRANCH  10  21
ATOM     20  N   UNL     1      39.749 -24.342 -14.077  0.00  0.00    -0.195 NA
ATOM     21  C   UNL     1      38.622 -24.429 -13.810  0.00  0.00    +0.087 C 
ENDBRANCH  10  21
BRANCH   2  22
ATOM     22  C   UNL     1      35.818 -21.436 -17.403  0.00  0.00    +0.125 C 
BRANCH  22  24
ATOM     23 CL   UNL     1      33.894 -18.372 -22.207  0.00  0.00    -0.082 Cl
ATOM     24  C   UNL     1      35.338 -20.670 -18.603  0.00  0.00    -0.002 C 
ATOM     25  C   UNL     1      36.215 -19.835 -19.297  0.00  0.00    -0.002 C 
ATOM     26  C   UNL     1      34.013 -20.794 -19.026  0.00  0.00    -0.002 C 
ATOM     27  C   UNL     1      35.768 -19.125 -20.411  0.00  0.00    +0.011 C 
ATOM     28  C   UNL     1      33.567 -20.083 -20.140  0.00  0.00    +0.011 C 
ATOM     29  C   UNL     1      34.445 -19.249 -20.832  0.00  0.00    +0.058 C 
ENDBRANCH  22  24
ENDBRANCH   2  22
TORSDOF 4
ENDMDL
MODEL 4
REMARK VINA RESULT:     -10.1      2.632      6.851
REMARK  Name = 24779676
REMARK  4 active torsions:
REMARK  status: ('A' for Active; 'I' for Inactive)
REMARK    1  A    between atoms: N_2  and  C_22
REMARK    2  A    between atoms: N_3  and  C_14
REMARK    3  A    between atoms: C_10  and  C_21
REMARK    4  A    between atoms: C_22  and  C_24
REMARK                            x       y       z     vdW  Elec       q    Type
REMARK                         _______ _______ _______ _____ _____    ______ ____
ROOT
ATOM      1  N   UNL     1      31.015 -22.725 -15.798  0.00  0.00    -0.123 N 
ATOM      2  N   UNL     1      34.712 -22.642 -14.264  0.00  0.00    -0.254 N 
ATOM      3  N   UNL     1      31.716 -21.684 -17.798  0.00  0.00    -0.274 N 
ATOM      4  N   UNL     1      33.221 -22.161 -16.031  0.00  0.00    -0.295 NA
ATOM      5  N   UNL     1      32.476 -23.215 -14.020  0.00  0.00    -0.314 NA
ATOM      6  N   UNL     1      29.739 -22.807 -16.212  0.00  0.00    -0.170 NA
ATOM      7  C   UNL     1      32.032 -22.173 -16.560  0.00  0.00    +0.279 C 
ATOM      8  C   UNL     1      31.234 -23.237 -14.551  0.00  0.00    +0.219 C 
ATOM      9  C   UNL     1      33.429 -22.687 -14.757  0.00  0.00    +0.203 C 
ATOM     10  C   UNL     1      30.007 -23.684 -14.118  0.00  0.00    +0.203 C 
ATOM     11  C   UNL     1      29.126 -23.394 -15.180  0.00  0.00    +0.116 C 
ATOM     12  H   UNL     1      35.423 -22.245 -14.818  0.00  0.00    +0.161 HD
ATOM     13  H   UNL     1      30.773 -21.759 -18.073  0.00  0.00    +0.156 HD
ENDROOT
BRANCH   3  14
ATOM     14  C   UNL     1      32.587 -21.091 -18.714  0.00  0.00    +0.051 C 
ATOM     15  C   UNL     1      32.093 -20.211 -19.676  0.00  0.00    +0.015 C 
ATOM     16  C   UNL     1      33.951 -21.379 -18.666  0.00  0.00    +0.015 C 
ATOM     17  C   UNL     1      32.964 -19.618 -20.591  0.00  0.00    +0.001 C 
ATOM     18  C   UNL     1      34.822 -20.785 -19.580  0.00  0.00    +0.001 C 
ATOM     19  C   UNL     1      34.328 -19.905 -20.543  0.00  0.00    +0.000 C 
ENDBRANCH   3  14
BRANCH  10  21
ATOM     20  N   UNL     1      29.482 -24.804 -11.852  0.00  0.00    -0.195 NA
ATOM     21  C   UNL     1      29.718 -24.301 -12.871  0.00  0.00    +0.087 C 
ENDBRANCH  10  21
BRANCH   2  22
ATOM     22  C   UNL     1      35.047 -23.150 -12.971  0.00  0.00    +0.125 C 
BRANCH  22  24
ATOM     23 CL   UNL     1      40.121 -26.369 -13.224  0.00  0.00    -0.082 Cl
ATOM     24  C   UNL     1      36.315 -23.954 -13.034  0.00  0.00    -0.002 C 
ATOM     25  C   UNL     1      36.694 -24.747 -11.950  0.00  0.00    -0.002 C 
ATOM     26  C   UNL     1      37.114 -23.909 -14.177  0.00  0.00    -0.002 C 
ATOM     27  C   UNL     1      37.870 -25.493 -12.009  0.00  0.00    +0.011 C 
ATOM     28  C   UNL     1      38.291 -24.655 -14.236  0.00  0.00    +0.011 C 
ATOM     29  C   UNL     1      38.668 -25.448 -13.152  0.00  0.00    +0.058 C 
ENDBRANCH  22  24
ENDBRANCH   2  22
TORSDOF 4
ENDMDL
