MODEL 1
REMARK VINA RESULT:     -13.2      0.000      0.000
REMARK  Name = 16741238
REMARK  6 active torsions:
REMARK  status: ('A' for Active; 'I' for Inactive)
REMARK    1  A    between atoms: N_1  and  C_22
REMARK    2  A    between atoms: C_10  and  C_15
REMARK    3  A    between atoms: C_15  and  C_16
REMARK    4  A    between atoms: C_22  and  C_23
REMARK    5  A    between atoms: C_23  and  C_26
REMARK    6  A    between atoms: N_25  and  C_28
REMARK                            x       y       z     vdW  Elec       q    Type
REMARK                         _______ _______ _______ _____ _____    ______ ____
ROOT
ATOM      1  N   UNL     1      32.645 -13.985 -23.710  0.00  0.00    -0.249 N 
ATOM      2  N   UNL     1      32.702 -16.041 -24.956  0.00  0.00    -0.373 NA
ATOM      3  N   UNL     1      31.765 -14.144 -25.890  0.00  0.00    -0.321 N 
ATOM      4  C   UNL     1      33.309 -14.544 -22.531  0.00  0.00    +0.071 C 
ATOM      5  C   UNL     1      33.650 -15.999 -22.692  0.00  0.00    +0.045 C 
ATOM      6  C   UNL     1      32.391 -14.773 -24.837  0.00  0.00    +0.239 C 
ATOM      7  C   UNL     1      33.338 -16.677 -23.878  0.00  0.00    +0.136 C 
ATOM      8  C   UNL     1      34.287 -16.683 -21.646  0.00  0.00    +0.007 C 
ATOM      9  C   UNL     1      33.669 -18.032 -24.000  0.00  0.00    +0.032 C 
ATOM     10  C   UNL     1      34.611 -18.032 -21.778  0.00  0.00    +0.039 C 
ATOM     11  C   UNL     1      34.302 -18.707 -22.956  0.00  0.00    +0.006 C 
ATOM     12  H   UNL     1      31.523 -13.191 -25.822  0.00  0.00    +0.146 HD
ATOM     13  H   UNL     1      31.559 -14.646 -26.711  0.00  0.00    +0.146 HD
ENDROOT
BRANCH  10  15
ATOM     14  O   UNL     1      36.450 -18.478 -20.403  0.00  0.00    -0.287 OA
ATOM     15  C   UNL     1      35.270 -18.733 -20.689  0.00  0.00    +0.196 C 
BRANCH  15  16
ATOM     16  C   UNL     1      34.577 -19.774 -19.871  0.00  0.00    +0.039 C 
ATOM     17  C   UNL     1      35.320 -20.647 -19.077  0.00  0.00    +0.003 C 
ATOM     18  C   UNL     1      33.186 -19.873 -19.901  0.00  0.00    +0.003 C 
ATOM     19  C   UNL     1      34.673 -21.618 -18.313  0.00  0.00    +0.000 C 
ATOM     20  C   UNL     1      32.539 -20.844 -19.138  0.00  0.00    +0.000 C 
ATOM     21  C   UNL     1      33.283 -21.717 -18.344  0.00  0.00    +0.000 C 
ENDBRANCH  15  16
ENDBRANCH  10  15
BRANCH   1  22
ATOM     22  C   UNL     1      32.287 -12.574 -23.608  0.00  0.00    +0.109 C 
BRANCH  22  23
ATOM     23  C   UNL     1      33.469 -11.759 -23.091  0.00  0.00    +0.107 C 
BRANCH  23  26
ATOM     24  O   UNL     1      34.429 -10.362 -24.792  0.00  0.00    -0.275 OA
ATOM     25  N   UNL     1      32.944  -9.344 -23.331  0.00  0.00    -0.279 N 
ATOM     26  C   UNL     1      33.668 -10.435 -23.823  0.00  0.00    +0.227 C 
ATOM     27  C   UNL     1      32.048  -9.452 -22.182  0.00  0.00    +0.115 C 
BRANCH  25  28
ATOM     28  C   UNL     1      33.028  -8.030 -23.922  0.00  0.00    +0.075 C 
ATOM     29  C   UNL     1      34.049  -7.170 -23.173  0.00  0.00    +0.020 C 
ATOM     30  C   UNL     1      31.651  -7.360 -23.952  0.00  0.00    +0.020 C 
ATOM     31  C   UNL     1      34.121  -5.756 -23.743  0.00  0.00    +0.002 C 
ATOM     32  C   UNL     1      31.726  -5.946 -24.522  0.00  0.00    +0.002 C 
ATOM     33  C   UNL     1      32.747  -5.092 -23.776  0.00  0.00    +0.000 C 
ENDBRANCH  25  28
ENDBRANCH  23  26
ENDBRANCH  22  23
ENDBRANCH   1  22
TORSDOF 6
ENDMDL
MODEL 2
REMARK VINA RESULT:     -12.9      1.733      2.299
REMARK  Name = 16741238
REMARK  6 active torsions:
REMARK  status: ('A' for Active; 'I' for Inactive)
REMARK    1  A    between atoms: N_1  and  C_22
REMARK    2  A    between atoms: C_10  and  C_15
REMARK    3  A    between atoms: C_15  and  C_16
REMARK    4  A    between atoms: C_22  and  C_23
REMARK    5  A    between atoms: C_23  and  C_26
REMARK    6  A    between atoms: N_25  and  C_28
REMARK                            x       y       z     vdW  Elec       q    Type
REMARK                         _______ _______ _______ _____ _____    ______ ____
ROOT
ATOM      1  N   UNL     1      33.161 -13.656 -23.506  0.00  0.00    -0.249 N 
ATOM      2  N   UNL     1      32.762 -15.658 -24.777  0.00  0.00    -0.373 NA
ATOM      3  N   UNL     1      32.097 -13.605 -25.609  0.00  0.00    -0.321 N 
ATOM      4  C   UNL     1      33.809 -14.351 -22.393  0.00  0.00    +0.071 C 
ATOM      5  C   UNL     1      33.879 -15.838 -22.598  0.00  0.00    +0.045 C 
ATOM      6  C   UNL     1      32.685 -14.359 -24.618  0.00  0.00    +0.239 C 
ATOM      7  C   UNL     1      33.361 -16.422 -23.763  0.00  0.00    +0.136 C 
ATOM      8  C   UNL     1      34.468 -16.648 -21.616  0.00  0.00    +0.007 C 
ATOM      9  C   UNL     1      33.441 -17.810 -23.928  0.00  0.00    +0.032 C 
ATOM     10  C   UNL     1      34.542 -18.030 -21.790  0.00  0.00    +0.039 C 
ATOM     11  C   UNL     1      34.029 -18.611 -22.947  0.00  0.00    +0.006 C 
ATOM     12  H   UNL     1      32.030 -12.627 -25.509  0.00  0.00    +0.146 HD
ATOM     13  H   UNL     1      31.743 -14.043 -26.416  0.00  0.00    +0.146 HD
ENDROOT
BRANCH  10  15
ATOM     14  O   UNL     1      36.369 -18.778 -20.537  0.00  0.00    -0.287 OA
ATOM     15  C   UNL     1      35.153 -18.861 -20.767  0.00  0.00    +0.196 C 
BRANCH  15  16
ATOM     16  C   UNL     1      34.367 -19.838 -19.954  0.00  0.00    +0.039 C 
ATOM     17  C   UNL     1      32.973 -19.804 -19.978  0.00  0.00    +0.003 C 
ATOM     18  C   UNL     1      35.028 -20.785 -19.171  0.00  0.00    +0.003 C 
ATOM     19  C   UNL     1      32.240 -20.716 -19.220  0.00  0.00    +0.000 C 
ATOM     20  C   UNL     1      34.295 -21.697 -18.412  0.00  0.00    +0.000 C 
ATOM     21  C   UNL     1      32.900 -21.662 -18.437  0.00  0.00    +0.000 C 
ENDBRANCH  15  16
ENDBRANCH  10  15
BRANCH   1  22
ATOM     22  C   UNL     1      33.061 -12.207 -23.358  0.00  0.00    +0.109 C 
BRANCH  22  23
ATOM     23  C   UNL     1      32.121 -11.851 -22.210  0.00  0.00    +0.107 C 
BRANCH  23  26
ATOM     24  O   UNL     1      32.441  -9.547 -22.805  0.00  0.00    -0.275 OA
ATOM     25  N   UNL     1      31.031  -9.969 -21.014  0.00  0.00    -0.279 N 
ATOM     26  C   UNL     1      31.890 -10.352 -22.049  0.00  0.00    +0.227 C 
ATOM     27  C   UNL     1      30.387 -10.939 -20.130  0.00  0.00    +0.115 C 
BRANCH  25  28
ATOM     28  C   UNL     1      30.715  -8.587 -20.741  0.00  0.00    +0.075 C 
ATOM     29  C   UNL     1      30.411  -7.840 -22.042  0.00  0.00    +0.020 C 
ATOM     30  C   UNL     1      31.851  -7.915 -19.965  0.00  0.00    +0.020 C 
ATOM     31  C   UNL     1      30.125  -6.362 -21.789  0.00  0.00    +0.002 C 
ATOM     32  C   UNL     1      31.562  -6.437 -19.713  0.00  0.00    +0.002 C 
ATOM     33  C   UNL     1      31.256  -5.695 -21.011  0.00  0.00    +0.000 C 
ENDBRANCH  25  28
ENDBRANCH  23  26
ENDBRANCH  22  23
ENDBRANCH   1  22
TORSDOF 6
ENDMDL
MODEL 3
REMARK VINA RESULT:     -11.9      6.100     10.875
REMARK  Name = 16741238
REMARK  6 active torsions:
REMARK  status: ('A' for Active; 'I' for Inactive)
REMARK    1  A    between atoms: N_1  and  C_22
REMARK    2  A    between atoms: C_10  and  C_15
REMARK    3  A    between atoms: C_15  and  C_16
REMARK    4  A    between atoms: C_22  and  C_23
REMARK    5  A    between atoms: C_23  and  C_26
REMARK    6  A    between atoms: N_25  and  C_28
REMARK                            x       y       z     vdW  Elec       q    Type
REMARK                         _______ _______ _______ _____ _____    ______ ____
ROOT
ATOM      1  N   UNL     1      35.265 -22.225 -16.224  0.00  0.00    -0.249 N 
ATOM      2  N   UNL     1      35.687 -23.179 -14.057  0.00  0.00    -0.373 NA
ATOM      3  N   UNL     1      37.453 -22.535 -15.406  0.00  0.00    -0.321 N 
ATOM      4  C   UNL     1      33.808 -22.309 -16.107  0.00  0.00    +0.071 C 
ATOM      5  C   UNL     1      33.363 -22.906 -14.801  0.00  0.00    +0.045 C 
ATOM      6  C   UNL     1      36.098 -22.665 -15.191  0.00  0.00    +0.239 C 
ATOM      7  C   UNL     1      34.306 -23.310 -13.845  0.00  0.00    +0.136 C 
ATOM      8  C   UNL     1      31.995 -23.059 -14.538  0.00  0.00    +0.007 C 
ATOM      9  C   UNL     1      33.862 -23.862 -12.637  0.00  0.00    +0.032 C 
ATOM     10  C   UNL     1      31.564 -23.611 -13.331  0.00  0.00    +0.039 C 
ATOM     11  C   UNL     1      32.499 -24.012 -12.380  0.00  0.00    +0.006 C 
ATOM     12  H   UNL     1      37.783 -22.150 -16.250  0.00  0.00    +0.146 HD
ATOM     13  H   UNL     1      38.091 -22.827 -14.714  0.00  0.00    +0.146 HD
ENDROOT
BRANCH  10  15
ATOM     14  O   UNL     1      29.751 -24.111 -11.942  0.00  0.00    -0.287 OA
ATOM     15  C   UNL     1      30.144 -23.767 -13.067  0.00  0.00    +0.196 C 
BRANCH  15  16
ATOM     16  C   UNL     1      29.103 -23.524 -14.112  0.00  0.00    +0.039 C 
ATOM     17  C   UNL     1      28.618 -22.234 -14.327  0.00  0.00    +0.003 C 
ATOM     18  C   UNL     1      28.618 -24.587 -14.873  0.00  0.00    +0.003 C 
ATOM     19  C   UNL     1      27.648 -22.007 -15.302  0.00  0.00    +0.000 C 
ATOM     20  C   UNL     1      27.648 -24.360 -15.849  0.00  0.00    +0.000 C 
ATOM     21  C   UNL     1      27.162 -23.070 -16.063  0.00  0.00    +0.000 C 
ENDBRANCH  15  16
ENDBRANCH  10  15
BRANCH   1  22
ATOM     22  C   UNL     1      35.754 -21.656 -17.476  0.00  0.00    +0.109 C 
BRANCH  22  23
ATOM     23  C   UNL     1      34.598 -21.075 -18.285  0.00  0.00    +0.107 C 
BRANCH  23  26
ATOM     24  O   UNL     1      36.227 -19.792 -19.497  0.00  0.00    -0.275 OA
ATOM     25  N   UNL     1      34.034 -19.647 -20.237  0.00  0.00    -0.279 N 
ATOM     26  C   UNL     1      35.041 -20.116 -19.386  0.00  0.00    +0.227 C 
ATOM     27  C   UNL     1      32.636 -20.043 -20.088  0.00  0.00    +0.115 C 
BRANCH  25  28
ATOM     28  C   UNL     1      34.302 -18.737 -21.324  0.00  0.00    +0.075 C 
ATOM     29  C   UNL     1      34.235 -17.287 -20.839  0.00  0.00    +0.020 C 
ATOM     30  C   UNL     1      33.334 -18.981 -22.486  0.00  0.00    +0.020 C 
ATOM     31  C   UNL     1      34.462 -16.299 -21.981  0.00  0.00    +0.002 C 
ATOM     32  C   UNL     1      33.563 -17.992 -23.626  0.00  0.00    +0.002 C 
ATOM     33  C   UNL     1      33.499 -16.547 -23.138  0.00  0.00    +0.000 C 
ENDBRANCH  25  28
ENDBRANCH  23  26
ENDBRANCH  22  23
ENDBRANCH   1  22
TORSDOF 6
ENDMDL
MODEL 4
REMARK VINA RESULT:     -11.2      4.258      7.628
REMARK  Name = 16741238
REMARK  6 active torsions:
REMARK  status: ('A' for Active; 'I' for Inactive)
REMARK    1  A    between atoms: N_1  and  C_22
REMARK    2  A    between atoms: C_10  and  C_15
REMARK    3  A    between atoms: C_15  and  C_16
REMARK    4  A    between atoms: C_22  and  C_23
REMARK    5  A    between atoms: C_23  and  C_26
REMARK    6  A    between atoms: N_25  and  C_28
REMARK                            x       y       z     vdW  Elec       q    Type
REMARK                         _______ _______ _______ _____ _____    ______ ____
ROOT
ATOM      1  N   UNL     1      33.843 -20.259 -19.791  0.00  0.00    -0.249 N 
ATOM      2  N   UNL     1      32.314 -21.359 -18.295  0.00  0.00    -0.373 NA
ATOM      3  N   UNL     1      31.523 -20.315 -20.201  0.00  0.00    -0.321 N 
ATOM      4  C   UNL     1      35.033 -20.584 -19.001  0.00  0.00    +0.071 C 
ATOM      5  C   UNL     1      34.710 -21.367 -17.760  0.00  0.00    +0.045 C 
ATOM      6  C   UNL     1      32.571 -20.671 -19.381  0.00  0.00    +0.239 C 
ATOM      7  C   UNL     1      33.386 -21.718 -17.462  0.00  0.00    +0.136 C 
ATOM      8  C   UNL     1      35.744 -21.752 -16.893  0.00  0.00    +0.007 C 
ATOM      9  C   UNL     1      33.116 -22.450 -16.299  0.00  0.00    +0.032 C 
ATOM     10  C   UNL     1      35.463 -22.480 -15.738  0.00  0.00    +0.039 C 
ATOM     11  C   UNL     1      34.148 -22.829 -15.441  0.00  0.00    +0.006 C 
ATOM     12  H   UNL     1      31.694 -19.799 -21.022  0.00  0.00    +0.146 HD
ATOM     13  H   UNL     1      30.604 -20.576 -19.966  0.00  0.00    +0.146 HD
ENDROOT
BRANCH  10  15
ATOM     14  O   UNL     1      37.716 -22.589 -15.119  0.00  0.00    -0.287 OA
ATOM     15  C   UNL     1      36.541 -22.873 -14.845  0.00  0.00    +0.196 C 
BRANCH  15  16
ATOM     16  C   UNL     1      36.295 -23.622 -13.575  0.00  0.00    +0.039 C 
ATOM     17  C   UNL     1      35.984 -22.929 -12.405  0.00  0.00    +0.003 C 
ATOM     18  C   UNL     1      36.376 -25.015 -13.560  0.00  0.00    +0.003 C 
ATOM     19  C   UNL     1      35.754 -23.629 -11.221  0.00  0.00    +0.000 C 
ATOM     20  C   UNL     1      36.146 -25.714 -12.375  0.00  0.00    +0.000 C 
ATOM     21  C   UNL     1      35.836 -25.021 -11.206  0.00  0.00    +0.000 C 
ENDBRANCH  15  16
ENDBRANCH  10  15
BRANCH   1  22
ATOM     22  C   UNL     1      34.097 -19.494 -21.007  0.00  0.00    +0.109 C 
BRANCH  22  23
ATOM     23  C   UNL     1      34.328 -18.023 -20.673  0.00  0.00    +0.107 C 
BRANCH  23  26
ATOM     24  O   UNL     1      34.552 -17.546 -23.016  0.00  0.00    -0.275 OA
ATOM     25  N   UNL     1      33.966 -15.768 -21.648  0.00  0.00    -0.279 N 
ATOM     26  C   UNL     1      34.297 -17.106 -21.892  0.00  0.00    +0.227 C 
ATOM     27  C   UNL     1      33.668 -15.267 -20.308  0.00  0.00    +0.115 C 
BRANCH  25  28
ATOM     28  C   UNL     1      33.894 -14.784 -22.701  0.00  0.00    +0.075 C 
ATOM     29  C   UNL     1      33.528 -13.413 -22.129  0.00  0.00    +0.020 C 
ATOM     30  C   UNL     1      32.903 -15.220 -23.784  0.00  0.00    +0.020 C 
ATOM     31  C   UNL     1      33.393 -12.362 -23.228  0.00  0.00    +0.002 C 
ATOM     32  C   UNL     1      32.770 -14.167 -24.881  0.00  0.00    +0.002 C 
ATOM     33  C   UNL     1      32.407 -12.800 -24.308  0.00  0.00    +0.000 C 
ENDBRANCH  25  28
ENDBRANCH  23  26
ENDBRANCH  22  23
ENDBRANCH   1  22
TORSDOF 6
ENDMDL
MODEL 5
REMARK VINA RESULT:     -10.9      4.948     12.319
REMARK  Name = 16741238
REMARK  6 active torsions:
REMARK  status: ('A' for Active; 'I' for Inactive)
REMARK    1  A    between atoms: N_1  and  C_22
REMARK    2  A    between atoms: C_10  and  C_15
REMARK    3  A    between atoms: C_15  and  C_16
REMARK    4  A    between atoms: C_22  and  C_23
REMARK    5  A    between atoms: C_23  and  C_26
REMARK    6  A    between atoms: N_25  and  C_28
REMARK                            x       y       z     vdW  Elec       q    Type
REMARK                         _______ _______ _______ _____ _____    ______ ____
ROOT
ATOM      1  N   UNL     1      33.985 -21.332 -18.968  0.00  0.00    -0.249 N 
ATOM      2  N   UNL     1      35.957 -19.965 -19.131  0.00  0.00    -0.373 NA
ATOM      3  N   UNL     1      35.839 -21.647 -17.547  0.00  0.00    -0.321 N 
ATOM      4  C   UNL     1      33.283 -20.655 -20.060  0.00  0.00    +0.071 C 
ATOM      5  C   UNL     1      34.089 -19.540 -20.666  0.00  0.00    +0.045 C 
ATOM      6  C   UNL     1      35.271 -20.939 -18.584  0.00  0.00    +0.239 C 
ATOM      7  C   UNL     1      35.372 -19.246 -20.185  0.00  0.00    +0.136 C 
ATOM      8  C   UNL     1      33.552 -18.790 -21.722  0.00  0.00    +0.007 C 
ATOM      9  C   UNL     1      36.100 -18.202 -20.770  0.00  0.00    +0.032 C 
ATOM     10  C   UNL     1      34.286 -17.753 -22.297  0.00  0.00    +0.039 C 
ATOM     11  C   UNL     1      35.561 -17.459 -21.820  0.00  0.00    +0.006 C 
ATOM     12  H   UNL     1      35.341 -22.383 -17.123  0.00  0.00    +0.146 HD
ATOM     13  H   UNL     1      36.743 -21.417 -17.232  0.00  0.00    +0.146 HD
ENDROOT
BRANCH  10  15
ATOM     14  O   UNL     1      33.436 -17.531 -24.465  0.00  0.00    -0.287 OA
ATOM     15  C   UNL     1      33.721 -16.980 -23.391  0.00  0.00    +0.196 C 
BRANCH  15  16
ATOM     16  C   UNL     1      33.458 -15.513 -23.282  0.00  0.00    +0.039 C 
ATOM     17  C   UNL     1      33.727 -14.842 -22.090  0.00  0.00    +0.003 C 
ATOM     18  C   UNL     1      32.942 -14.814 -24.374  0.00  0.00    +0.003 C 
ATOM     19  C   UNL     1      33.482 -13.473 -21.989  0.00  0.00    +0.000 C 
ATOM     20  C   UNL     1      32.697 -13.445 -24.273  0.00  0.00    +0.000 C 
ATOM     21  C   UNL     1      32.967 -12.774 -23.080  0.00  0.00    +0.000 C 
ENDBRANCH  15  16
ENDBRANCH  10  15
BRANCH   1  22
ATOM     22  C   UNL     1      33.247 -22.422 -18.339  0.00  0.00    +0.109 C 
BRANCH  22  23
ATOM     23  C   UNL     1      33.197 -22.230 -16.826  0.00  0.00    +0.107 C 
BRANCH  23  26
ATOM     24  O   UNL     1      30.805 -22.023 -16.805  0.00  0.00    -0.275 OA
ATOM     25  N   UNL     1      31.766 -23.129 -15.008  0.00  0.00    -0.279 N 
ATOM     26  C   UNL     1      31.811 -22.442 -16.226  0.00  0.00    +0.227 C 
ATOM     27  C   UNL     1      32.969 -23.617 -14.338  0.00  0.00    +0.115 C 
BRANCH  25  28
ATOM     28  C   UNL     1      30.527 -23.407 -14.321  0.00  0.00    +0.075 C 
ATOM     29  C   UNL     1      30.753 -24.417 -13.194  0.00  0.00    +0.020 C 
ATOM     30  C   UNL     1      29.461 -23.899 -15.305  0.00  0.00    +0.020 C 
ATOM     31  C   UNL     1      29.449 -24.770 -12.484  0.00  0.00    +0.002 C 
ATOM     32  C   UNL     1      28.158 -24.251 -14.591  0.00  0.00    +0.002 C 
ATOM     33  C   UNL     1      28.387 -25.256 -13.466  0.00  0.00    +0.000 C 
ENDBRANCH  25  28
ENDBRANCH  23  26
ENDBRANCH  22  23
ENDBRANCH   1  22
TORSDOF 6
ENDMDL
MODEL 6
REMARK VINA RESULT:     -10.8      5.743     10.380
REMARK  Name = 16741238
REMARK  6 active torsions:
REMARK  status: ('A' for Active; 'I' for Inactive)
REMARK    1  A    between atoms: N_1  and  C_22
REMARK    2  A    between atoms: C_10  and  C_15
REMARK    3  A    between atoms: C_15  and  C_16
REMARK    4  A    between atoms: C_22  and  C_23
REMARK    5  A    between atoms: C_23  and  C_26
REMARK    6  A    between atoms: N_25  and  C_28
REMARK                            x       y       z     vdW  Elec       q    Type
REMARK                         _______ _______ _______ _____ _____    ______ ____
ROOT
ATOM      1  N   UNL     1      33.995 -22.263 -17.453  0.00  0.00    -0.249 N 
ATOM      2  N   UNL     1      34.206 -22.395 -15.060  0.00  0.00    -0.373 NA
ATOM      3  N   UNL     1      36.032 -21.813 -16.355  0.00  0.00    -0.321 N 
ATOM      4  C   UNL     1      32.578 -22.631 -17.466  0.00  0.00    +0.071 C 
ATOM      5  C   UNL     1      32.032 -22.887 -16.090  0.00  0.00    +0.045 C 
ATOM      6  C   UNL     1      34.706 -22.170 -16.251  0.00  0.00    +0.239 C 
ATOM      7  C   UNL     1      32.854 -22.761 -14.961  0.00  0.00    +0.136 C 
ATOM      8  C   UNL     1      30.687 -23.255 -15.934  0.00  0.00    +0.007 C 
ATOM      9  C   UNL     1      32.317 -23.005 -13.691  0.00  0.00    +0.032 C 
ATOM     10  C   UNL     1      30.163 -23.496 -14.665  0.00  0.00    +0.039 C 
ATOM     11  C   UNL     1      30.978 -23.371 -13.543  0.00  0.00    +0.006 C 
ATOM     12  H   UNL     1      36.427 -21.639 -17.240  0.00  0.00    +0.146 HD
ATOM     13  H   UNL     1      36.584 -21.731 -15.544  0.00  0.00    +0.146 HD
ENDROOT
BRANCH  10  15
ATOM     14  O   UNL     1      28.464 -24.888 -13.861  0.00  0.00    -0.287 OA
ATOM     15  C   UNL     1      28.769 -23.878 -14.513  0.00  0.00    +0.196 C 
BRANCH  15  16
ATOM     16  C   UNL     1      27.653 -23.091 -15.118  0.00  0.00    +0.039 C 
ATOM     17  C   UNL     1      26.868 -22.262 -14.316  0.00  0.00    +0.003 C 
ATOM     18  C   UNL     1      27.395 -23.184 -16.486  0.00  0.00    +0.003 C 
ATOM     19  C   UNL     1      25.827 -21.527 -14.881  0.00  0.00    +0.000 C 
ATOM     20  C   UNL     1      26.354 -22.448 -17.051  0.00  0.00    +0.000 C 
ATOM     21  C   UNL     1      25.569 -21.620 -16.249  0.00  0.00    +0.000 C 
ENDBRANCH  15  16
ENDBRANCH  10  15
BRANCH   1  22
ATOM     22  C   UNL     1      34.581 -22.006 -18.764  0.00  0.00    +0.109 C 
BRANCH  22  23
ATOM     23  C   UNL     1      34.935 -20.529 -18.911  0.00  0.00    +0.107 C 
BRANCH  23  26
ATOM     24  O   UNL     1      32.829 -20.040 -19.957  0.00  0.00    -0.275 OA
ATOM     25  N   UNL     1      34.651 -18.792 -20.661  0.00  0.00    -0.279 N 
ATOM     26  C   UNL     1      34.032 -19.776 -19.883  0.00  0.00    +0.227 C 
ATOM     27  C   UNL     1      36.078 -18.494 -20.559  0.00  0.00    +0.115 C 
BRANCH  25  28
ATOM     28  C   UNL     1      33.927 -17.996 -21.624  0.00  0.00    +0.075 C 
ATOM     29  C   UNL     1      33.892 -18.699 -22.983  0.00  0.00    +0.020 C 
ATOM     30  C   UNL     1      34.534 -16.595 -21.736  0.00  0.00    +0.020 C 
ATOM     31  C   UNL     1      33.177 -17.856 -24.035  0.00  0.00    +0.002 C 
ATOM     32  C   UNL     1      33.816 -15.754 -22.789  0.00  0.00    +0.002 C 
ATOM     33  C   UNL     1      33.781 -16.458 -24.142  0.00  0.00    +0.000 C 
ENDBRANCH  25  28
ENDBRANCH  23  26
ENDBRANCH  22  23
ENDBRANCH   1  22
TORSDOF 6
ENDMDL
MODEL 7
REMARK VINA RESULT:     -10.8      5.304      9.644
REMARK  Name = 16741238
REMARK  6 active torsions:
REMARK  status: ('A' for Active; 'I' for Inactive)
REMARK    1  A    between atoms: N_1  and  C_22
REMARK    2  A    between atoms: C_10  and  C_15
REMARK    3  A    between atoms: C_15  and  C_16
REMARK    4  A    between atoms: C_22  and  C_23
REMARK    5  A    between atoms: C_23  and  C_26
REMARK    6  A    between atoms: N_25  and  C_28
REMARK                            x       y       z     vdW  Elec       q    Type
REMARK                         _______ _______ _______ _____ _____    ______ ____
ROOT
ATOM      1  N   UNL     1      33.709 -21.787 -18.379  0.00  0.00    -0.249 N 
ATOM      2  N   UNL     1      31.547 -22.062 -17.361  0.00  0.00    -0.373 NA
ATOM      3  N   UNL     1      31.717 -21.270 -19.527  0.00  0.00    -0.321 N 
ATOM      4  C   UNL     1      34.450 -22.258 -17.207  0.00  0.00    +0.071 C 
ATOM      5  C   UNL     1      33.552 -22.634 -16.063  0.00  0.00    +0.045 C 
ATOM      6  C   UNL     1      32.312 -21.724 -18.371  0.00  0.00    +0.239 C 
ATOM      7  C   UNL     1      32.160 -22.523 -16.184  0.00  0.00    +0.136 C 
ATOM      8  C   UNL     1      34.112 -23.100 -14.865  0.00  0.00    +0.007 C 
ATOM      9  C   UNL     1      31.347 -22.881 -15.101  0.00  0.00    +0.032 C 
ATOM     10  C   UNL     1      33.293 -23.454 -13.793  0.00  0.00    +0.039 C 
ATOM     11  C   UNL     1      31.910 -23.344 -13.911  0.00  0.00    +0.006 C 
ATOM     12  H   UNL     1      32.272 -21.012 -20.298  0.00  0.00    +0.146 HD
ATOM     13  H   UNL     1      30.736 -21.204 -19.582  0.00  0.00    +0.146 HD
ENDROOT
BRANCH  10  15
ATOM     14  O   UNL     1      33.205 -23.978 -11.515  0.00  0.00    -0.287 OA
ATOM     15  C   UNL     1      33.882 -23.935 -12.554  0.00  0.00    +0.196 C 
BRANCH  15  16
ATOM     16  C   UNL     1      35.300 -24.396 -12.468  0.00  0.00    +0.039 C 
ATOM     17  C   UNL     1      35.731 -25.476 -13.238  0.00  0.00    +0.003 C 
ATOM     18  C   UNL     1      36.195 -23.745 -11.617  0.00  0.00    +0.003 C 
ATOM     19  C   UNL     1      37.056 -25.905 -13.158  0.00  0.00    +0.000 C 
ATOM     20  C   UNL     1      37.519 -24.174 -11.537  0.00  0.00    +0.000 C 
ATOM     21  C   UNL     1      37.950 -25.255 -12.308  0.00  0.00    +0.000 C 
ENDBRANCH  15  16
ENDBRANCH  10  15
BRANCH   1  22
ATOM     22  C   UNL     1      34.533 -21.404 -19.521  0.00  0.00    +0.109 C 
BRANCH  22  23
ATOM     23  C   UNL     1      34.928 -19.933 -19.424  0.00  0.00    +0.107 C 
BRANCH  23  26
ATOM     24  O   UNL     1      33.124 -19.048 -20.739  0.00  0.00    -0.275 OA
ATOM     25  N   UNL     1      35.256 -18.314 -21.277  0.00  0.00    -0.279 N 
ATOM     26  C   UNL     1      34.340 -19.066 -20.533  0.00  0.00    +0.227 C 
ATOM     27  C   UNL     1      36.693 -18.349 -21.017  0.00  0.00    +0.115 C 
BRANCH  25  28
ATOM     28  C   UNL     1      34.849 -17.446 -22.356  0.00  0.00    +0.075 C 
ATOM     29  C   UNL     1      34.314 -16.122 -21.807  0.00  0.00    +0.020 C 
ATOM     30  C   UNL     1      33.814 -18.138 -23.247  0.00  0.00    +0.020 C 
ATOM     31  C   UNL     1      33.826 -15.203 -22.924  0.00  0.00    +0.002 C 
ATOM     32  C   UNL     1      33.328 -17.218 -24.365  0.00  0.00    +0.002 C 
ATOM     33  C   UNL     1      32.798 -15.897 -23.814  0.00  0.00    +0.000 C 
ENDBRANCH  25  28
ENDBRANCH  23  26
ENDBRANCH  22  23
ENDBRANCH   1  22
TORSDOF 6
ENDMDL
MODEL 8
REMARK VINA RESULT:     -10.5      2.734     11.180
REMARK  Name = 16741238
REMARK  6 active torsions:
REMARK  status: ('A' for Active; 'I' for Inactive)
REMARK    1  A    between atoms: N_1  and  C_22
REMARK    2  A    between atoms: C_10  and  C_15
REMARK    3  A    between atoms: C_15  and  C_16
REMARK    4  A    between atoms: C_22  and  C_23
REMARK    5  A    between atoms: C_23  and  C_26
REMARK    6  A    between atoms: N_25  and  C_28
REMARK                            x       y       z     vdW  Elec       q    Type
REMARK                         _______ _______ _______ _____ _____    ______ ____
ROOT
ATOM      1  N   UNL     1      31.529 -11.980 -21.345  0.00  0.00    -0.249 N 
ATOM      2  N   UNL     1      30.993 -11.059 -19.189  0.00  0.00    -0.373 NA
ATOM      3  N   UNL     1      31.080 -13.352 -19.481  0.00  0.00    -0.321 N 
ATOM      4  C   UNL     1      31.683 -10.677 -21.994  0.00  0.00    +0.071 C 
ATOM      5  C   UNL     1      31.440  -9.528 -21.056  0.00  0.00    +0.045 C 
ATOM      6  C   UNL     1      31.196 -12.077 -19.990  0.00  0.00    +0.239 C 
ATOM      7  C   UNL     1      31.110  -9.762 -19.714  0.00  0.00    +0.136 C 
ATOM      8  C   UNL     1      31.544  -8.212 -21.528  0.00  0.00    +0.007 C 
ATOM      9  C   UNL     1      30.890  -8.672 -18.863  0.00  0.00    +0.032 C 
ATOM     10  C   UNL     1      31.323  -7.134 -20.672  0.00  0.00    +0.039 C 
ATOM     11  C   UNL     1      30.996  -7.364 -19.338  0.00  0.00    +0.006 C 
ATOM     12  H   UNL     1      31.230 -14.130 -20.065  0.00  0.00    +0.146 HD
ATOM     13  H   UNL     1      30.848 -13.484 -18.533  0.00  0.00    +0.146 HD
ENDROOT
BRANCH  10  15
ATOM     14  O   UNL     1      30.901  -4.836 -20.555  0.00  0.00    -0.287 OA
ATOM     15  C   UNL     1      31.433  -5.773 -21.170  0.00  0.00    +0.196 C 
BRANCH  15  16
ATOM     16  C   UNL     1      32.177  -5.436 -22.421  0.00  0.00    +0.039 C 
ATOM     17  C   UNL     1      31.667  -4.482 -23.301  0.00  0.00    +0.003 C 
ATOM     18  C   UNL     1      33.383  -6.076 -22.709  0.00  0.00    +0.003 C 
ATOM     19  C   UNL     1      32.363  -4.167 -24.468  0.00  0.00    +0.000 C 
ATOM     20  C   UNL     1      34.079  -5.760 -23.877  0.00  0.00    +0.000 C 
ATOM     21  C   UNL     1      33.568  -4.806 -24.756  0.00  0.00    +0.000 C 
ENDBRANCH  15  16
ENDBRANCH  10  15
BRANCH   1  22
ATOM     22  C   UNL     1      31.749 -13.134 -22.211  0.00  0.00    +0.109 C 
BRANCH  22  23
ATOM     23  C   UNL     1      33.243 -13.391 -22.386  0.00  0.00    +0.107 C 
BRANCH  23  26
ATOM     24  O   UNL     1      33.785 -14.879 -20.581  0.00  0.00    -0.275 OA
ATOM     25  N   UNL     1      34.032 -15.721 -22.727  0.00  0.00    -0.279 N 
ATOM     26  C   UNL     1      33.709 -14.722 -21.803  0.00  0.00    +0.227 C 
ATOM     27  C   UNL     1      33.935 -15.513 -24.171  0.00  0.00    +0.115 C 
BRANCH  25  28
ATOM     28  C   UNL     1      34.484 -17.031 -22.325  0.00  0.00    +0.075 C 
ATOM     29  C   UNL     1      33.603 -18.116 -22.946  0.00  0.00    +0.020 C 
ATOM     30  C   UNL     1      34.519 -17.147 -20.799  0.00  0.00    +0.020 C 
ATOM     31  C   UNL     1      34.026 -19.512 -22.495  0.00  0.00    +0.002 C 
ATOM     32  C   UNL     1      34.943 -18.544 -20.351  0.00  0.00    +0.002 C 
ATOM     33  C   UNL     1      34.064 -19.624 -20.974  0.00  0.00    +0.000 C 
ENDBRANCH  25  28
ENDBRANCH  23  26
ENDBRANCH  22  23
ENDBRANCH   1  22
TORSDOF 6
ENDMDL
MODEL 9
REMARK VINA RESULT:     -10.4      8.134     13.243
REMARK  Name = 16741238
REMARK  6 active torsions:
REMARK  status: ('A' for Active; 'I' for Inactive)
REMARK    1  A    between atoms: N_1  and  C_22
REMARK    2  A    between atoms: C_10  and  C_15
REMARK    3  A    between atoms: C_15  and  C_16
REMARK    4  A    between atoms: C_22  and  C_23
REMARK    5  A    between atoms: C_23  and  C_26
REMARK    6  A    between atoms: N_25  and  C_28
REMARK                            x       y       z     vdW  Elec       q    Type
REMARK                         _______ _______ _______ _____ _____    ______ ____
ROOT
ATOM      1  N   UNL     1      34.290 -23.792 -14.273  0.00  0.00    -0.249 N 
ATOM      2  N   UNL     1      36.229 -22.686 -15.167  0.00  0.00    -0.373 NA
ATOM      3  N   UNL     1      36.398 -23.939 -13.230  0.00  0.00    -0.321 N 
ATOM      4  C   UNL     1      33.391 -23.324 -15.330  0.00  0.00    +0.071 C 
ATOM      5  C   UNL     1      34.086 -22.458 -16.343  0.00  0.00    +0.045 C 
ATOM      6  C   UNL     1      35.643 -23.440 -14.269  0.00  0.00    +0.239 C 
ATOM      7  C   UNL     1      35.454 -22.179 -16.222  0.00  0.00    +0.136 C 
ATOM      8  C   UNL     1      33.358 -21.926 -17.417  0.00  0.00    +0.007 C 
ATOM      9  C   UNL     1      36.075 -21.370 -17.182  0.00  0.00    +0.032 C 
ATOM     10  C   UNL     1      33.987 -21.121 -18.366  0.00  0.00    +0.039 C 
ATOM     11  C   UNL     1      35.346 -20.843 -18.249  0.00  0.00    +0.006 C 
ATOM     12  H   UNL     1      35.978 -24.509 -12.546  0.00  0.00    +0.146 HD
ATOM     13  H   UNL     1      37.358 -23.726 -13.173  0.00  0.00    +0.146 HD
ENDROOT
BRANCH  10  15
ATOM     14  O   UNL     1      32.025 -20.857 -19.613  0.00  0.00    -0.287 OA
ATOM     15  C   UNL     1      33.225 -20.573 -19.476  0.00  0.00    +0.196 C 
BRANCH  15  16
ATOM     16  C   UNL     1      33.831 -19.657 -20.488  0.00  0.00    +0.039 C 
ATOM     17  C   UNL     1      33.118 -19.315 -21.637  0.00  0.00    +0.003 C 
ATOM     18  C   UNL     1      35.112 -19.141 -20.284  0.00  0.00    +0.003 C 
ATOM     19  C   UNL     1      33.684 -18.458 -22.581  0.00  0.00    +0.000 C 
ATOM     20  C   UNL     1      35.678 -18.285 -21.228  0.00  0.00    +0.000 C 
ATOM     21  C   UNL     1      34.964 -17.944 -22.377  0.00  0.00    +0.000 C 
ENDBRANCH  15  16
ENDBRANCH  10  15
BRANCH   1  22
ATOM     22  C   UNL     1      33.667 -24.636 -13.258  0.00  0.00    +0.109 C 
BRANCH  22  23
ATOM     23  C   UNL     1      32.556 -23.874 -12.540  0.00  0.00    +0.107 C 
BRANCH  23  26
ATOM     24  O   UNL     1      30.746 -25.393 -12.970  0.00  0.00    -0.275 OA
ATOM     25  N   UNL     1      30.390 -23.171 -13.529  0.00  0.00    -0.279 N 
ATOM     26  C   UNL     1      31.155 -24.230 -13.028  0.00  0.00    +0.227 C 
ATOM     27  C   UNL     1      30.893 -21.801 -13.589  0.00  0.00    +0.115 C 
BRANCH  25  28
ATOM     28  C   UNL     1      29.046 -23.353 -14.024  0.00  0.00    +0.075 C 
ATOM     29  C   UNL     1      29.047 -24.272 -15.249  0.00  0.00    +0.020 C 
ATOM     30  C   UNL     1      28.397 -22.003 -14.341  0.00  0.00    +0.020 C 
ATOM     31  C   UNL     1      27.644 -24.440 -15.827  0.00  0.00    +0.002 C 
ATOM     32  C   UNL     1      26.994 -22.175 -14.918  0.00  0.00    +0.002 C 
ATOM     33  C   UNL     1      26.997 -23.093 -16.137  0.00  0.00    +0.000 C 
ENDBRANCH  25  28
ENDBRANCH  23  26
ENDBRANCH  22  23
ENDBRANCH   1  22
TORSDOF 6
ENDMDL
