MODEL 1
REMARK VINA RESULT:     -12.3      0.000      0.000
REMARK  Name = 54689025
REMARK  9 active torsions:
REMARK  status: ('A' for Active; 'I' for Inactive)
REMARK    1  A    between atoms: C_1  and  C_21
REMARK    2  A    between atoms: C_4  and  N_8
REMARK    3  A    between atoms: C_9  and  C_11
REMARK    4  A    between atoms: C_11  and  N_13
REMARK    5  A    between atoms: C_14  and  O_16
REMARK    6  A    between atoms: O_16  and  C_17
REMARK    7  A    between atoms: C_21  and  C_24
REMARK    8  A    between atoms: C_21  and  C_35
REMARK    9  A    between atoms: C_25  and  O_33
REMARK                            x       y       z     vdW  Elec       q    Type
REMARK                         _______ _______ _______ _____ _____    ______ ____
ROOT
ATOM      1  C   UNL     1      34.135 -16.414 -21.795  0.00  0.00    -0.017 C 
ATOM      2  C   UNL     1      34.011 -15.373 -22.714  0.00  0.00    +0.011 C 
ATOM      3  C   UNL     1      33.891 -16.183 -20.441  0.00  0.00    -0.004 C 
ATOM      4  C   UNL     1      33.641 -14.100 -22.279  0.00  0.00    +0.050 C 
ATOM      5  C   UNL     1      33.523 -14.910 -20.006  0.00  0.00    +0.001 C 
ATOM      6  C   UNL     1      33.397 -13.869 -20.925  0.00  0.00    +0.015 C 
ENDROOT
BRANCH   4   8
ATOM      7  O   UNL     1      32.178 -13.978 -24.901  0.00  0.00    -0.273 OA
ATOM      8  N   UNL     1      33.518 -13.057 -23.198  0.00  0.00    -0.283 N 
ATOM      9  C   UNL     1      32.819 -13.050 -24.416  0.00  0.00    +0.246 C 
ATOM     10  H   UNL     1      33.978 -12.219 -22.962  0.00  0.00    +0.155 HD
BRANCH   9  11
ATOM     11  C   UNL     1      32.943 -11.704 -25.106  0.00  0.00    +0.179 C 
BRANCH  11  13
ATOM     12  O   UNL     1      35.123  -9.805 -25.391  0.00  0.00    -0.226 OA
ATOM     13  N   UNL     1      33.362 -10.700 -24.171  0.00  0.00    -0.262 N 
ATOM     14  C   UNL     1      34.418  -9.830 -24.387  0.00  0.00    +0.402 C 
ATOM     15  H   UNL     1      32.868 -10.625 -23.323  0.00  0.00    +0.153 HD
BRANCH  14  16
ATOM     16  O   UNL     1      34.566  -8.997 -23.314  0.00  0.00    -0.442 OA
BRANCH  16  17
ATOM     17  C   UNL     1      33.694  -7.861 -23.283  0.00  0.00    +0.138 C 
ATOM     18  C   UNL     1      33.341  -7.479 -24.719  0.00  0.00    +0.044 C 
ATOM     19  C   UNL     1      34.447  -6.724 -22.594  0.00  0.00    +0.044 C 
ATOM     20  C   UNL     1      32.440  -8.232 -22.493  0.00  0.00    +0.044 C 
ENDBRANCH  16  17
ENDBRANCH  14  16
ENDBRANCH  11  13
ENDBRANCH   9  11
ENDBRANCH   4   8
BRANCH   1  21
ATOM     21  C   UNL     1      34.536 -17.800 -22.268  0.00  0.00    +0.054 C 
BRANCH  21  24
ATOM     22  O   UNL     1      36.010 -19.839 -19.439  0.00  0.00    -0.421 OA
ATOM     23  O   UNL     1      36.891 -18.332 -20.898  0.00  0.00    -0.245 OA
ATOM     24  C   UNL     1      34.562 -18.773 -21.120  0.00  0.00    +0.091 A 
ATOM     25  C   UNL     1      33.503 -19.460 -20.651  0.00  0.00    +0.139 A 
ATOM     26  C   UNL     1      35.907 -18.947 -20.499  0.00  0.00    +0.345 A 
ATOM     27  C   UNL     1      33.646 -20.393 -19.532  0.00  0.00    +0.068 A 
ATOM     28  C   UNL     1      34.902 -20.555 -18.956  0.00  0.00    +0.152 A 
ATOM     29  C   UNL     1      32.583 -21.137 -19.003  0.00  0.00    +0.006 C 
ATOM     30  C   UNL     1      35.125 -21.424 -17.887  0.00  0.00    +0.038 C 
ATOM     31  C   UNL     1      32.789 -22.012 -17.930  0.00  0.00    +0.000 C 
ATOM     32  C   UNL     1      34.059 -22.156 -17.374  0.00  0.00    +0.003 C 
BRANCH  25  33
ATOM     33  O   UNL     1      32.222 -19.362 -21.153  0.00  0.00    -0.506 OA
ATOM     34  H   UNL     1      31.495 -19.269 -20.569  0.00  0.00    +0.292 HD
ENDBRANCH  25  33
ENDBRANCH  21  24
BRANCH  21  35
ATOM     35  C   UNL     1      33.647 -18.349 -23.402  0.00  0.00    +0.009 C 
ATOM     36  C   UNL     1      34.150 -19.675 -23.962  0.00  0.00    +0.001 C 
ENDBRANCH  21  35
ENDBRANCH   1  21
TORSDOF 9
ENDMDL
MODEL 2
REMARK VINA RESULT:     -10.7      4.554     11.556
REMARK  Name = 54689025
REMARK  9 active torsions:
REMARK  status: ('A' for Active; 'I' for Inactive)
REMARK    1  A    between atoms: C_1  and  C_21
REMARK    2  A    between atoms: C_4  and  N_8
REMARK    3  A    between atoms: C_9  and  C_11
REMARK    4  A    between atoms: C_11  and  N_13
REMARK    5  A    between atoms: C_14  and  O_16
REMARK    6  A    between atoms: O_16  and  C_17
REMARK    7  A    between atoms: C_21  and  C_24
REMARK    8  A    between atoms: C_21  and  C_35
REMARK    9  A    between atoms: C_25  and  O_33
REMARK                            x       y       z     vdW  Elec       q    Type
REMARK                         _______ _______ _______ _____ _____    ______ ____
ROOT
ATOM      1  C   UNL     1      33.815 -19.911 -20.206  0.00  0.00    -0.017 C 
ATOM      2  C   UNL     1      34.154 -20.724 -19.125  0.00  0.00    +0.011 C 
ATOM      3  C   UNL     1      32.474 -19.644 -20.485  0.00  0.00    -0.004 C 
ATOM      4  C   UNL     1      33.153 -21.270 -18.322  0.00  0.00    +0.050 C 
ATOM      5  C   UNL     1      31.473 -20.191 -19.682  0.00  0.00    +0.001 C 
ATOM      6  C   UNL     1      31.813 -21.003 -18.600  0.00  0.00    +0.015 C 
ENDROOT
BRANCH   4   8
ATOM      7  O   UNL     1      35.625 -21.311 -16.615  0.00  0.00    -0.273 OA
ATOM      8  N   UNL     1      33.492 -22.084 -17.240  0.00  0.00    -0.283 N 
ATOM      9  C   UNL     1      34.667 -22.064 -16.472  0.00  0.00    +0.246 C 
ATOM     10  H   UNL     1      32.821 -22.757 -16.982  0.00  0.00    +0.155 HD
BRANCH   9  11
ATOM     11  C   UNL     1      34.624 -23.124 -15.386  0.00  0.00    +0.179 C 
BRANCH  11  13
ATOM     12  O   UNL     1      35.789 -22.958 -12.730  0.00  0.00    -0.226 OA
ATOM     13  N   UNL     1      35.953 -23.483 -14.986  0.00  0.00    -0.262 N 
ATOM     14  C   UNL     1      36.431 -23.372 -13.690  0.00  0.00    +0.402 C 
ATOM     15  H   UNL     1      36.565 -23.830 -15.675  0.00  0.00    +0.153 HD
BRANCH  14  16
ATOM     16  O   UNL     1      37.730 -23.793 -13.632  0.00  0.00    -0.442 OA
BRANCH  16  17
ATOM     17  C   UNL     1      37.930 -25.137 -13.183  0.00  0.00    +0.138 C 
ATOM     18  C   UNL     1      37.615 -25.203 -11.689  0.00  0.00    +0.044 C 
ATOM     19  C   UNL     1      39.394 -25.494 -13.440  0.00  0.00    +0.044 C 
ATOM     20  C   UNL     1      37.005 -26.058 -13.977  0.00  0.00    +0.044 C 
ENDBRANCH  16  17
ENDBRANCH  14  16
ENDBRANCH  11  13
ENDBRANCH   9  11
ENDBRANCH   4   8
BRANCH   1  21
ATOM     21  C   UNL     1      34.905 -19.317 -21.080  0.00  0.00    +0.054 C 
BRANCH  21  24
ATOM     22  O   UNL     1      33.579 -17.522 -24.139  0.00  0.00    -0.421 OA
ATOM     23  O   UNL     1      34.231 -19.666 -23.750  0.00  0.00    -0.245 OA
ATOM     24  C   UNL     1      34.372 -18.173 -21.901  0.00  0.00    +0.091 A 
ATOM     25  C   UNL     1      34.171 -16.917 -21.458  0.00  0.00    +0.139 A 
ATOM     26  C   UNL     1      34.065 -18.530 -23.316  0.00  0.00    +0.345 A 
ATOM     27  C   UNL     1      33.656 -15.878 -22.351  0.00  0.00    +0.068 A 
ATOM     28  C   UNL     1      33.374 -16.213 -23.671  0.00  0.00    +0.152 A 
ATOM     29  C   UNL     1      33.430 -14.554 -21.949  0.00  0.00    +0.006 C 
ATOM     30  C   UNL     1      32.882 -15.282 -24.588  0.00  0.00    +0.038 C 
ATOM     31  C   UNL     1      32.936 -13.608 -22.855  0.00  0.00    +0.000 C 
ATOM     32  C   UNL     1      32.664 -13.972 -24.173  0.00  0.00    +0.003 C 
BRANCH  25  33
ATOM     33  O   UNL     1      34.417 -16.493 -20.169  0.00  0.00    -0.506 OA
ATOM     34  H   UNL     1      35.219 -16.056 -19.964  0.00  0.00    +0.292 HD
ENDBRANCH  25  33
ENDBRANCH  21  24
BRANCH  21  35
ATOM     35  C   UNL     1      36.151 -18.862 -20.293  0.00  0.00    +0.009 C 
ATOM     36  C   UNL     1      37.243 -18.286 -21.189  0.00  0.00    +0.001 C 
ENDBRANCH  21  35
ENDBRANCH   1  21
TORSDOF 9
ENDMDL
MODEL 3
REMARK VINA RESULT:     -10.6      4.612     11.138
REMARK  Name = 54689025
REMARK  9 active torsions:
REMARK  status: ('A' for Active; 'I' for Inactive)
REMARK    1  A    between atoms: C_1  and  C_21
REMARK    2  A    between atoms: C_4  and  N_8
REMARK    3  A    between atoms: C_9  and  C_11
REMARK    4  A    between atoms: C_11  and  N_13
REMARK    5  A    between atoms: C_14  and  O_16
REMARK    6  A    between atoms: O_16  and  C_17
REMARK    7  A    between atoms: C_21  and  C_24
REMARK    8  A    between atoms: C_21  and  C_35
REMARK    9  A    between atoms: C_25  and  O_33
REMARK                            x       y       z     vdW  Elec       q    Type
REMARK                         _______ _______ _______ _____ _____    ______ ____
ROOT
ATOM      1  C   UNL     1      34.010 -20.071 -20.047  0.00  0.00    -0.017 C 
ATOM      2  C   UNL     1      34.416 -20.865 -18.975  0.00  0.00    +0.011 C 
ATOM      3  C   UNL     1      32.653 -19.843 -20.272  0.00  0.00    -0.004 C 
ATOM      4  C   UNL     1      33.465 -21.430 -18.125  0.00  0.00    +0.050 C 
ATOM      5  C   UNL     1      31.701 -20.409 -19.423  0.00  0.00    +0.001 C 
ATOM      6  C   UNL     1      32.107 -21.201 -18.350  0.00  0.00    +0.015 C 
ENDROOT
BRANCH   4   8
ATOM      7  O   UNL     1      35.744 -21.084 -16.198  0.00  0.00    -0.273 OA
ATOM      8  N   UNL     1      33.871 -22.224 -17.052  0.00  0.00    -0.283 N 
ATOM      9  C   UNL     1      34.949 -22.018 -16.178  0.00  0.00    +0.246 C 
ATOM     10  H   UNL     1      33.331 -23.031 -16.887  0.00  0.00    +0.155 HD
BRANCH   9  11
ATOM     11  C   UNL     1      35.032 -23.130 -15.147  0.00  0.00    +0.179 C 
BRANCH  11  13
ATOM     12  O   UNL     1      33.578 -23.593 -12.675  0.00  0.00    -0.226 OA
ATOM     13  N   UNL     1      33.753 -23.757 -14.984  0.00  0.00    -0.262 N 
ATOM     14  C   UNL     1      33.127 -23.939 -13.762  0.00  0.00    +0.402 C 
ATOM     15  H   UNL     1      33.291 -24.078 -15.792  0.00  0.00    +0.153 HD
BRANCH  14  16
ATOM     16  O   UNL     1      31.925 -24.564 -13.940  0.00  0.00    -0.442 OA
BRANCH  16  17
ATOM     17  C   UNL     1      30.773 -23.714 -13.933  0.00  0.00    +0.138 C 
ATOM     18  C   UNL     1      30.828 -22.830 -12.688  0.00  0.00    +0.044 C 
ATOM     19  C   UNL     1      29.538 -24.613 -13.899  0.00  0.00    +0.044 C 
ATOM     20  C   UNL     1      30.787 -22.866 -15.204  0.00  0.00    +0.044 C 
ENDBRANCH  16  17
ENDBRANCH  14  16
ENDBRANCH  11  13
ENDBRANCH   9  11
ENDBRANCH   4   8
BRANCH   1  21
ATOM     21  C   UNL     1      35.046 -19.456 -20.971  0.00  0.00    +0.054 C 
BRANCH  21  24
ATOM     22  O   UNL     1      33.549 -17.679 -23.960  0.00  0.00    -0.421 OA
ATOM     23  O   UNL     1      34.262 -19.811 -23.610  0.00  0.00    -0.245 OA
ATOM     24  C   UNL     1      34.454 -18.321 -21.763  0.00  0.00    +0.091 A 
ATOM     25  C   UNL     1      34.247 -17.071 -21.306  0.00  0.00    +0.139 A 
ATOM     26  C   UNL     1      34.092 -18.680 -23.165  0.00  0.00    +0.345 A 
ATOM     27  C   UNL     1      33.672 -16.040 -22.171  0.00  0.00    +0.068 A 
ATOM     28  C   UNL     1      33.339 -16.376 -23.479  0.00  0.00    +0.152 A 
ATOM     29  C   UNL     1      33.436 -14.722 -21.754  0.00  0.00    +0.006 C 
ATOM     30  C   UNL     1      32.787 -15.453 -24.369  0.00  0.00    +0.038 C 
ATOM     31  C   UNL     1      32.883 -13.784 -22.634  0.00  0.00    +0.000 C 
ATOM     32  C   UNL     1      32.561 -14.149 -23.939  0.00  0.00    +0.003 C 
BRANCH  25  33
ATOM     33  O   UNL     1      34.541 -16.646 -20.027  0.00  0.00    -0.506 OA
ATOM     34  H   UNL     1      34.843 -17.260 -19.387  0.00  0.00    +0.292 HD
ENDBRANCH  25  33
ENDBRANCH  21  24
BRANCH  21  35
ATOM     35  C   UNL     1      36.320 -18.980 -20.244  0.00  0.00    +0.009 C 
ATOM     36  C   UNL     1      37.288 -18.241 -21.162  0.00  0.00    +0.001 C 
ENDBRANCH  21  35
ENDBRANCH   1  21
TORSDOF 9
ENDMDL
MODEL 4
REMARK VINA RESULT:     -10.2      3.292     11.734
REMARK  Name = 54689025
REMARK  9 active torsions:
REMARK  status: ('A' for Active; 'I' for Inactive)
REMARK    1  A    between atoms: C_1  and  C_21
REMARK    2  A    between atoms: C_4  and  N_8
REMARK    3  A    between atoms: C_9  and  C_11
REMARK    4  A    between atoms: C_11  and  N_13
REMARK    5  A    between atoms: C_14  and  O_16
REMARK    6  A    between atoms: O_16  and  C_17
REMARK    7  A    between atoms: C_21  and  C_24
REMARK    8  A    between atoms: C_21  and  C_35
REMARK    9  A    between atoms: C_25  and  O_33
REMARK                            x       y       z     vdW  Elec       q    Type
REMARK                         _______ _______ _______ _____ _____    ______ ____
ROOT
ATOM      1  C   UNL     1      32.597  -8.748 -22.405  0.00  0.00    -0.017 C 
ATOM      2  C   UNL     1      32.420 -10.072 -22.805  0.00  0.00    +0.011 C 
ATOM      3  C   UNL     1      33.621  -7.981 -22.961  0.00  0.00    -0.004 C 
ATOM      4  C   UNL     1      33.267 -10.629 -23.764  0.00  0.00    +0.050 C 
ATOM      5  C   UNL     1      34.468  -8.539 -23.918  0.00  0.00    +0.001 C 
ATOM      6  C   UNL     1      34.291  -9.862 -24.320  0.00  0.00    +0.015 C 
ENDROOT
BRANCH   4   8
ATOM      7  O   UNL     1      33.556 -13.187 -22.214  0.00  0.00    -0.273 OA
ATOM      8  N   UNL     1      33.091 -11.954 -24.165  0.00  0.00    -0.283 N 
ATOM      9  C   UNL     1      33.240 -13.121 -23.398  0.00  0.00    +0.246 C 
ATOM     10  H   UNL     1      32.828 -12.088 -25.104  0.00  0.00    +0.155 HD
BRANCH   9  11
ATOM     11  C   UNL     1      32.950 -14.358 -24.230  0.00  0.00    +0.179 C 
BRANCH  11  13
ATOM     12  O   UNL     1      32.400 -17.210 -24.267  0.00  0.00    -0.226 OA
ATOM     13  N   UNL     1      33.830 -15.427 -23.858  0.00  0.00    -0.262 N 
ATOM     14  C   UNL     1      33.486 -16.768 -23.905  0.00  0.00    +0.402 C 
ATOM     15  H   UNL     1      34.735 -15.194 -23.549  0.00  0.00    +0.153 HD
BRANCH  14  16
ATOM     16  O   UNL     1      34.537 -17.537 -23.490  0.00  0.00    -0.442 OA
BRANCH  16  17
ATOM     17  C   UNL     1      34.552 -17.872 -22.098  0.00  0.00    +0.138 C 
ATOM     18  C   UNL     1      34.158 -16.633 -21.294  0.00  0.00    +0.044 C 
ATOM     19  C   UNL     1      35.972 -18.312 -21.746  0.00  0.00    +0.044 C 
ATOM     20  C   UNL     1      33.562 -19.012 -21.862  0.00  0.00    +0.044 C 
ENDBRANCH  16  17
ENDBRANCH  14  16
ENDBRANCH  11  13
ENDBRANCH   9  11
ENDBRANCH   4   8
BRANCH   1  21
ATOM     21  C   UNL     1      31.675  -8.141 -21.362  0.00  0.00    +0.054 C 
BRANCH  21  24
ATOM     22  O   UNL     1      31.070  -4.418 -21.043  0.00  0.00    -0.421 OA
ATOM     23  O   UNL     1      31.982  -5.973 -19.657  0.00  0.00    -0.245 OA
ATOM     24  C   UNL     1      31.231  -6.763 -21.773  0.00  0.00    +0.091 A 
ATOM     25  C   UNL     1      30.666  -6.441 -22.953  0.00  0.00    +0.139 A 
ATOM     26  C   UNL     1      31.463  -5.714 -20.738  0.00  0.00    +0.345 A 
ATOM     27  C   UNL     1      30.263  -5.063 -23.242  0.00  0.00    +0.068 A 
ATOM     28  C   UNL     1      30.477  -4.088 -22.274  0.00  0.00    +0.152 A 
ATOM     29  C   UNL     1      29.667  -4.668 -24.448  0.00  0.00    +0.006 C 
ATOM     30  C   UNL     1      30.121  -2.753 -22.469  0.00  0.00    +0.038 C 
ATOM     31  C   UNL     1      29.305  -3.333 -24.661  0.00  0.00    +0.000 C 
ATOM     32  C   UNL     1      29.531  -2.378 -23.672  0.00  0.00    +0.003 C 
BRANCH  25  33
ATOM     33  O   UNL     1      30.418  -7.336 -23.972  0.00  0.00    -0.506 OA
ATOM     34  H   UNL     1      29.563  -7.389 -24.352  0.00  0.00    +0.292 HD
ENDBRANCH  25  33
ENDBRANCH  21  24
BRANCH  21  35
ATOM     35  C   UNL     1      30.444  -9.014 -21.040  0.00  0.00    +0.009 C 
ATOM     36  C   UNL     1      30.485  -9.602 -19.633  0.00  0.00    +0.001 C 
ENDBRANCH  21  35
ENDBRANCH   1  21
TORSDOF 9
ENDMDL
MODEL 5
REMARK VINA RESULT:     -10.1      3.248      5.808
REMARK  Name = 54689025
REMARK  9 active torsions:
REMARK  status: ('A' for Active; 'I' for Inactive)
REMARK    1  A    between atoms: C_1  and  C_21
REMARK    2  A    between atoms: C_4  and  N_8
REMARK    3  A    between atoms: C_9  and  C_11
REMARK    4  A    between atoms: C_11  and  N_13
REMARK    5  A    between atoms: C_14  and  O_16
REMARK    6  A    between atoms: O_16  and  C_17
REMARK    7  A    between atoms: C_21  and  C_24
REMARK    8  A    between atoms: C_21  and  C_35
REMARK    9  A    between atoms: C_25  and  O_33
REMARK                            x       y       z     vdW  Elec       q    Type
REMARK                         _______ _______ _______ _____ _____    ______ ____
ROOT
ATOM      1  C   UNL     1      32.330 -11.963 -22.092  0.00  0.00    -0.017 C 
ATOM      2  C   UNL     1      32.079 -10.604 -21.908  0.00  0.00    +0.011 C 
ATOM      3  C   UNL     1      31.668 -12.908 -21.308  0.00  0.00    -0.004 C 
ATOM      4  C   UNL     1      31.163 -10.188 -20.941  0.00  0.00    +0.050 C 
ATOM      5  C   UNL     1      30.754 -12.492 -20.340  0.00  0.00    +0.001 C 
ATOM      6  C   UNL     1      30.501 -11.133 -20.157  0.00  0.00    +0.015 C 
ENDROOT
BRANCH   4   8
ATOM      7  O   UNL     1      31.859  -8.374 -18.650  0.00  0.00    -0.273 OA
ATOM      8  N   UNL     1      30.911  -8.828 -20.756  0.00  0.00    -0.283 N 
ATOM      9  C   UNL     1      31.259  -8.022 -19.660  0.00  0.00    +0.246 C 
ATOM     10  H   UNL     1      30.430  -8.377 -21.487  0.00  0.00    +0.155 HD
BRANCH   9  11
ATOM     11  C   UNL     1      30.793  -6.592 -19.869  0.00  0.00    +0.179 C 
BRANCH  11  13
ATOM     12  O   UNL     1      30.293  -6.550 -22.730  0.00  0.00    -0.226 OA
ATOM     13  N   UNL     1      31.575  -5.955 -20.888  0.00  0.00    -0.262 N 
ATOM     14  C   UNL     1      31.264  -5.984 -22.237  0.00  0.00    +0.402 C 
ATOM     15  H   UNL     1      32.383  -5.467 -20.611  0.00  0.00    +0.153 HD
BRANCH  14  16
ATOM     16  O   UNL     1      32.200  -5.287 -22.949  0.00  0.00    -0.442 OA
BRANCH  16  17
ATOM     17  C   UNL     1      33.174  -6.077 -23.640  0.00  0.00    +0.138 C 
ATOM     18  C   UNL     1      34.060  -6.770 -22.606  0.00  0.00    +0.044 C 
ATOM     19  C   UNL     1      34.001  -5.130 -24.508  0.00  0.00    +0.044 C 
ATOM     20  C   UNL     1      32.443  -7.101 -24.507  0.00  0.00    +0.044 C 
ENDBRANCH  16  17
ENDBRANCH  14  16
ENDBRANCH  11  13
ENDBRANCH   9  11
ENDBRANCH   4   8
BRANCH   1  21
ATOM     21  C   UNL     1      33.326 -12.414 -23.145  0.00  0.00    +0.054 C 
BRANCH  21  24
ATOM     22  O   UNL     1      32.583 -15.790 -24.690  0.00  0.00    -0.421 OA
ATOM     23  O   UNL     1      32.128 -13.653 -25.321  0.00  0.00    -0.245 OA
ATOM     24  C   UNL     1      33.324 -13.913 -23.279  0.00  0.00    +0.091 A 
ATOM     25  C   UNL     1      33.875 -14.779 -22.407  0.00  0.00    +0.139 A 
ATOM     26  C   UNL     1      32.634 -14.415 -24.503  0.00  0.00    +0.345 A 
ATOM     27  C   UNL     1      33.804 -16.224 -22.634  0.00  0.00    +0.068 A 
ATOM     28  C   UNL     1      33.157 -16.688 -23.774  0.00  0.00    +0.152 A 
ATOM     29  C   UNL     1      34.355 -17.173 -21.761  0.00  0.00    +0.006 C 
ATOM     30  C   UNL     1      33.044 -18.049 -24.065  0.00  0.00    +0.038 C 
ATOM     31  C   UNL     1      34.251 -18.541 -22.038  0.00  0.00    +0.000 C 
ATOM     32  C   UNL     1      33.595 -18.977 -23.188  0.00  0.00    +0.003 C 
BRANCH  25  33
ATOM     33  O   UNL     1      34.539 -14.413 -21.255  0.00  0.00    -0.506 OA
ATOM     34  H   UNL     1      35.377 -14.783 -21.059  0.00  0.00    +0.292 HD
ENDBRANCH  25  33
ENDBRANCH  21  24
BRANCH  21  35
ATOM     35  C   UNL     1      33.104 -11.764 -24.527  0.00  0.00    +0.009 C 
ATOM     36  C   UNL     1      33.980 -10.536 -24.752  0.00  0.00    +0.001 C 
ENDBRANCH  21  35
ENDBRANCH   1  21
TORSDOF 9
ENDMDL
MODEL 6
REMARK VINA RESULT:     -10.0      2.667     11.217
REMARK  Name = 54689025
REMARK  9 active torsions:
REMARK  status: ('A' for Active; 'I' for Inactive)
REMARK    1  A    between atoms: C_1  and  C_21
REMARK    2  A    between atoms: C_4  and  N_8
REMARK    3  A    between atoms: C_9  and  C_11
REMARK    4  A    between atoms: C_11  and  N_13
REMARK    5  A    between atoms: C_14  and  O_16
REMARK    6  A    between atoms: O_16  and  C_17
REMARK    7  A    between atoms: C_21  and  C_24
REMARK    8  A    between atoms: C_21  and  C_35
REMARK    9  A    between atoms: C_25  and  O_33
REMARK                            x       y       z     vdW  Elec       q    Type
REMARK                         _______ _______ _______ _____ _____    ______ ____
ROOT
ATOM      1  C   UNL     1      31.536  -8.890 -20.879  0.00  0.00    -0.017 C 
ATOM      2  C   UNL     1      32.079  -9.871 -21.708  0.00  0.00    +0.011 C 
ATOM      3  C   UNL     1      30.586  -9.236 -19.918  0.00  0.00    -0.004 C 
ATOM      4  C   UNL     1      31.674 -11.199 -21.575  0.00  0.00    +0.050 C 
ATOM      5  C   UNL     1      30.179 -10.564 -19.786  0.00  0.00    +0.001 C 
ATOM      6  C   UNL     1      30.723 -11.545 -20.614  0.00  0.00    +0.015 C 
ENDROOT
BRANCH   4   8
ATOM      7  O   UNL     1      33.544 -13.464 -20.945  0.00  0.00    -0.273 OA
ATOM      8  N   UNL     1      32.216 -12.182 -22.405  0.00  0.00    -0.283 N 
ATOM      9  C   UNL     1      33.091 -13.224 -22.059  0.00  0.00    +0.246 C 
ATOM     10  H   UNL     1      31.950 -12.139 -23.352  0.00  0.00    +0.155 HD
BRANCH   9  11
ATOM     11  C   UNL     1      33.434 -14.069 -23.273  0.00  0.00    +0.179 C 
BRANCH  11  13
ATOM     12  O   UNL     1      33.089 -16.894 -23.856  0.00  0.00    -0.226 OA
ATOM     13  N   UNL     1      34.293 -15.155 -22.899  0.00  0.00    -0.262 N 
ATOM     14  C   UNL     1      34.053 -16.481 -23.219  0.00  0.00    +0.402 C 
ATOM     15  H   UNL     1      35.104 -14.945 -22.381  0.00  0.00    +0.153 HD
BRANCH  14  16
ATOM     16  O   UNL     1      35.051 -17.271 -22.722  0.00  0.00    -0.442 OA
BRANCH  16  17
ATOM     17  C   UNL     1      34.780 -17.903 -21.466  0.00  0.00    +0.138 C 
ATOM     18  C   UNL     1      34.206 -16.858 -20.510  0.00  0.00    +0.044 C 
ATOM     19  C   UNL     1      36.102 -18.451 -20.932  0.00  0.00    +0.044 C 
ATOM     20  C   UNL     1      33.782 -19.036 -21.698  0.00  0.00    +0.044 C 
ENDBRANCH  16  17
ENDBRANCH  14  16
ENDBRANCH  11  13
ENDBRANCH   9  11
ENDBRANCH   4   8
BRANCH   1  21
ATOM     21  C   UNL     1      31.978  -7.445 -21.023  0.00  0.00    +0.054 C 
BRANCH  21  24
ATOM     22  O   UNL     1      33.783  -6.512 -24.218  0.00  0.00    -0.421 OA
ATOM     23  O   UNL     1      34.492  -7.003 -22.113  0.00  0.00    -0.245 OA
ATOM     24  C   UNL     1      32.140  -7.074 -22.473  0.00  0.00    +0.091 A 
ATOM     25  C   UNL     1      31.138  -6.923 -23.359  0.00  0.00    +0.139 A 
ATOM     26  C   UNL     1      33.556  -6.867 -22.894  0.00  0.00    +0.345 A 
ATOM     27  C   UNL     1      31.412  -6.548 -24.748  0.00  0.00    +0.068 A 
ATOM     28  C   UNL     1      32.733  -6.352 -25.137  0.00  0.00    +0.152 A 
ATOM     29  C   UNL     1      30.412  -6.373 -25.715  0.00  0.00    +0.006 C 
ATOM     30  C   UNL     1      33.080  -5.993 -26.441  0.00  0.00    +0.038 C 
ATOM     31  C   UNL     1      30.743  -6.013 -27.026  0.00  0.00    +0.000 C 
ATOM     32  C   UNL     1      32.075  -5.823 -27.388  0.00  0.00    +0.003 C 
BRANCH  25  33
ATOM     33  O   UNL     1      29.801  -7.099 -23.068  0.00  0.00    -0.506 OA
ATOM     34  H   UNL     1      29.247  -6.355 -22.942  0.00  0.00    +0.292 HD
ENDBRANCH  25  33
ENDBRANCH  21  24
BRANCH  21  35
ATOM     35  C   UNL     1      31.041  -6.438 -20.325  0.00  0.00    +0.009 C 
ATOM     36  C   UNL     1      31.660  -5.818 -19.076  0.00  0.00    +0.001 C 
ENDBRANCH  21  35
ENDBRANCH   1  21
TORSDOF 9
ENDMDL
