MODEL 1
REMARK VINA RESULT:     -12.4      0.000      0.000
REMARK  Name = 44123754
REMARK  11 active torsions:
REMARK  status: ('A' for Active; 'I' for Inactive)
REMARK    1  A    between atoms: C_3  and  C_22
REMARK    2  A    between atoms: C_4  and  C_7
REMARK    3  A    between atoms: N_6  and  C_15
REMARK    4  A    between atoms: C_8  and  N_12
REMARK    5  A    between atoms: C_15  and  O_16
REMARK    6  A    between atoms: O_16  and  P_17
REMARK    7  A    between atoms: P_17  and  O_20
REMARK    8  A    between atoms: C_22  and  C_23
REMARK    9  A    between atoms: C_26  and  C_29
REMARK   10  A    between atoms: C_29  and  O_30
REMARK   11  A    between atoms: O_30  and  C_32
REMARK                            x       y       z     vdW  Elec       q    Type
REMARK                         _______ _______ _______ _____ _____    ______ ____
ROOT
ATOM      1  O   UNL     1      33.960 -15.916 -20.870  0.00  0.00    -0.354 OA
ATOM      2  N   UNL     1      34.511 -16.996 -20.190  0.00  0.00    -0.081 NA
ATOM      3  C   UNL     1      34.918 -17.835 -21.147  0.00  0.00    +0.105 C 
ATOM      4  C   UNL     1      34.050 -16.135 -22.207  0.00  0.00    +0.175 C 
ATOM      5  C   UNL     1      34.653 -17.343 -22.437  0.00  0.00    +0.058 C 
ENDROOT
BRANCH   4   7
ATOM      6  N   UNL     1      32.867 -12.848 -23.415  0.00  0.00    -0.266 N 
ATOM      7  C   UNL     1      33.515 -15.091 -23.049  0.00  0.00    +0.048 C 
ATOM      8  C   UNL     1      33.368 -13.786 -22.600  0.00  0.00    +0.156 C 
ATOM      9  C   UNL     1      33.133 -15.397 -24.351  0.00  0.00    +0.003 C 
ATOM     10  C   UNL     1      32.492 -13.116 -24.673  0.00  0.00    +0.064 C 
ATOM     11  C   UNL     1      32.616 -14.402 -25.176  0.00  0.00    +0.016 C 
BRANCH   8  12
ATOM     12  N   UNL     1      33.743 -13.433 -21.285  0.00  0.00    -0.303 NA
ATOM     13  H   UNL     1      33.083 -13.477 -20.556  0.00  0.00    +0.121 HD
ATOM     14  H   UNL     1      34.665 -13.143 -21.099  0.00  0.00    +0.121 HD
ENDBRANCH   8  12
BRANCH   6  15
ATOM     15  C   UNL     1      32.713 -11.471 -22.940  0.00  0.00    +0.251 C 
BRANCH  15  16
ATOM     16  O   UNL     1      33.169 -10.586 -23.954  0.00  0.00    -0.250 OA
BRANCH  16  17
ATOM     17  P   UNL     1      33.331  -8.996 -23.614  0.00  0.00    +0.504 P 
ATOM     18  O   UNL     1      32.582  -8.665 -22.342  0.00  0.00    -0.225 OA
ATOM     19  O   UNL     1      33.078  -8.207 -24.880  0.00  0.00    -0.116 OA
BRANCH  17  20
ATOM     20  O   UNL     1      34.934  -8.951 -23.300  0.00  0.00    -0.301 OA
ATOM     21  H   UNL     1      35.398  -8.538 -24.045  0.00  0.00    +0.222 HD
ENDBRANCH  17  20
ENDBRANCH  16  17
ENDBRANCH  15  16
ENDBRANCH   6  15
ENDBRANCH   4   7
BRANCH   3  22
ATOM     22  C   UNL     1      35.562 -19.108 -20.782  0.00  0.00    +0.075 C 
BRANCH  22  23
ATOM     23  C   UNL     1      34.722 -20.009 -19.886  0.00  0.00    -0.016 C 
ATOM     24  C   UNL     1      35.345 -20.860 -18.973  0.00  0.00    -0.004 C 
ATOM     25  C   UNL     1      33.330 -19.983 -19.978  0.00  0.00    -0.004 C 
ATOM     26  C   UNL     1      33.185 -21.659 -18.244  0.00  0.00    +0.021 C 
ATOM     27  C   UNL     1      34.577 -21.685 -18.152  0.00  0.00    -0.001 C 
ATOM     28  C   UNL     1      32.562 -20.808 -19.157  0.00  0.00    -0.001 C 
BRANCH  26  29
ATOM     29  C   UNL     1      32.364 -22.539 -17.364  0.00  0.00    +0.234 C 
BRANCH  29  30
ATOM     30  O   UNL     1      31.069 -21.972 -17.204  0.00  0.00    -0.455 OA
BRANCH  30  32
ATOM     31  N   UNL     1      29.005 -22.228 -16.175  0.00  0.00    -0.210 NA
ATOM     32  C   UNL     1      30.347 -22.380 -16.113  0.00  0.00    +0.225 C 
ATOM     33  C   UNL     1      31.018 -22.918 -15.027  0.00  0.00    +0.058 C 
ATOM     34  C   UNL     1      30.263 -23.326 -13.932  0.00  0.00    +0.006 C 
ATOM     35  C   UNL     1      28.304 -22.637 -15.093  0.00  0.00    +0.102 C 
ATOM     36  C   UNL     1      28.879 -23.187 -13.959  0.00  0.00    +0.021 C 
ENDBRANCH  30  32
ENDBRANCH  29  30
ENDBRANCH  26  29
ENDBRANCH  22  23
ENDBRANCH   3  22
TORSDOF 11
ENDMDL
MODEL 2
REMARK VINA RESULT:     -12.3      4.221     11.316
REMARK  Name = 44123754
REMARK  11 active torsions:
REMARK  status: ('A' for Active; 'I' for Inactive)
REMARK    1  A    between atoms: C_3  and  C_22
REMARK    2  A    between atoms: C_4  and  C_7
REMARK    3  A    between atoms: N_6  and  C_15
REMARK    4  A    between atoms: C_8  and  N_12
REMARK    5  A    between atoms: C_15  and  O_16
REMARK    6  A    between atoms: O_16  and  P_17
REMARK    7  A    between atoms: P_17  and  O_20
REMARK    8  A    between atoms: C_22  and  C_23
REMARK    9  A    between atoms: C_26  and  C_29
REMARK   10  A    between atoms: C_29  and  O_30
REMARK   11  A    between atoms: O_30  and  C_32
REMARK                            x       y       z     vdW  Elec       q    Type
REMARK                         _______ _______ _______ _____ _____    ______ ____
ROOT
ATOM      1  O   UNL     1      32.991 -22.987 -17.656  0.00  0.00    -0.354 OA
ATOM      2  N   UNL     1      33.820 -22.453 -18.635  0.00  0.00    -0.081 NA
ATOM      3  C   UNL     1      34.738 -21.751 -17.965  0.00  0.00    +0.105 C 
ATOM      4  C   UNL     1      33.430 -22.594 -16.433  0.00  0.00    +0.175 C 
ATOM      5  C   UNL     1      34.540 -21.805 -16.574  0.00  0.00    +0.058 C 
ENDROOT
BRANCH   4   7
ATOM      6  N   UNL     1      30.626 -23.301 -14.130  0.00  0.00    -0.266 N 
ATOM      7  C   UNL     1      32.661 -23.076 -15.308  0.00  0.00    +0.048 C 
ATOM      8  C   UNL     1      31.300 -22.835 -15.190  0.00  0.00    +0.156 C 
ATOM      9  C   UNL     1      33.302 -23.804 -14.311  0.00  0.00    +0.003 C 
ATOM     10  C   UNL     1      31.217 -24.004 -13.156  0.00  0.00    +0.064 C 
ATOM     11  C   UNL     1      32.576 -24.275 -13.221  0.00  0.00    +0.016 C 
BRANCH   8  12
ATOM     12  N   UNL     1      30.612 -22.100 -16.180  0.00  0.00    -0.303 NA
ATOM     13  H   UNL     1      29.914 -21.456 -15.919  0.00  0.00    +0.121 HD
ATOM     14  H   UNL     1      30.831 -22.232 -17.131  0.00  0.00    +0.121 HD
ENDBRANCH   8  12
BRANCH   6  15
ATOM     15  C   UNL     1      29.188 -23.046 -14.006  0.00  0.00    +0.251 C 
BRANCH  15  16
ATOM     16  O   UNL     1      28.508 -23.786 -15.011  0.00  0.00    -0.250 OA
BRANCH  16  17
ATOM     17  P   UNL     1      27.169 -23.152 -15.701  0.00  0.00    +0.504 P 
ATOM     18  O   UNL     1      26.215 -22.676 -14.627  0.00  0.00    -0.225 OA
ATOM     19  O   UNL     1      26.695 -24.097 -16.784  0.00  0.00    -0.116 OA
BRANCH  17  20
ATOM     20  O   UNL     1      27.833 -21.846 -16.423  0.00  0.00    -0.301 OA
ATOM     21  H   UNL     1      28.350 -21.345 -15.773  0.00  0.00    +0.222 HD
ENDBRANCH  17  20
ENDBRANCH  16  17
ENDBRANCH  15  16
ENDBRANCH   6  15
ENDBRANCH   4   7
BRANCH   3  22
ATOM     22  C   UNL     1      35.796 -21.036 -18.697  0.00  0.00    +0.075 C 
BRANCH  22  23
ATOM     23  C   UNL     1      35.289 -20.045 -19.737  0.00  0.00    -0.016 C 
ATOM     24  C   UNL     1      33.951 -20.072 -20.132  0.00  0.00    -0.004 C 
ATOM     25  C   UNL     1      36.162 -19.110 -20.294  0.00  0.00    -0.004 C 
ATOM     26  C   UNL     1      34.360 -18.230 -21.640  0.00  0.00    +0.021 C 
ATOM     27  C   UNL     1      33.486 -19.165 -21.083  0.00  0.00    -0.001 C 
ATOM     28  C   UNL     1      35.697 -18.203 -21.246  0.00  0.00    -0.001 C 
BRANCH  26  29
ATOM     29  C   UNL     1      33.862 -17.258 -22.656  0.00  0.00    +0.234 C 
BRANCH  29  30
ATOM     30  O   UNL     1      34.485 -15.996 -22.448  0.00  0.00    -0.455 OA
BRANCH  30  32
ATOM     31  N   UNL     1      33.074 -14.227 -22.960  0.00  0.00    -0.210 NA
ATOM     32  C   UNL     1      33.681 -14.975 -22.012  0.00  0.00    +0.225 C 
ATOM     33  C   UNL     1      33.534 -14.771 -20.650  0.00  0.00    +0.058 C 
ATOM     34  C   UNL     1      32.711 -13.730 -20.233  0.00  0.00    +0.006 C 
ATOM     35  C   UNL     1      32.281 -13.225 -22.517  0.00  0.00    +0.102 C 
ATOM     36  C   UNL     1      32.069 -12.938 -21.178  0.00  0.00    +0.021 C 
ENDBRANCH  30  32
ENDBRANCH  29  30
ENDBRANCH  26  29
ENDBRANCH  22  23
ENDBRANCH   3  22
TORSDOF 11
ENDMDL
MODEL 3
REMARK VINA RESULT:     -12.1      6.101     12.720
REMARK  Name = 44123754
REMARK  11 active torsions:
REMARK  status: ('A' for Active; 'I' for Inactive)
REMARK    1  A    between atoms: C_3  and  C_22
REMARK    2  A    between atoms: C_4  and  C_7
REMARK    3  A    between atoms: N_6  and  C_15
REMARK    4  A    between atoms: C_8  and  N_12
REMARK    5  A    between atoms: C_15  and  O_16
REMARK    6  A    between atoms: O_16  and  P_17
REMARK    7  A    between atoms: P_17  and  O_20
REMARK    8  A    between atoms: C_22  and  C_23
REMARK    9  A    between atoms: C_26  and  C_29
REMARK   10  A    between atoms: C_29  and  O_30
REMARK   11  A    between atoms: O_30  and  C_32
REMARK                            x       y       z     vdW  Elec       q    Type
REMARK                         _______ _______ _______ _____ _____    ______ ____
ROOT
ATOM      1  O   UNL     1      35.357 -22.464 -15.802  0.00  0.00    -0.354 OA
ATOM      2  N   UNL     1      34.852 -21.995 -17.009  0.00  0.00    -0.081 NA
ATOM      3  C   UNL     1      33.548 -22.284 -16.974  0.00  0.00    +0.105 C 
ATOM      4  C   UNL     1      34.350 -23.019 -15.080  0.00  0.00    +0.175 C 
ATOM      5  C   UNL     1      33.177 -22.930 -15.782  0.00  0.00    +0.058 C 
ENDROOT
BRANCH   4   7
ATOM      6  N   UNL     1      36.343 -24.373 -12.277  0.00  0.00    -0.266 N 
ATOM      7  C   UNL     1      34.725 -23.555 -13.792  0.00  0.00    +0.048 C 
ATOM      8  C   UNL     1      36.038 -23.879 -13.485  0.00  0.00    +0.156 C 
ATOM      9  C   UNL     1      33.742 -23.753 -12.828  0.00  0.00    +0.003 C 
ATOM     10  C   UNL     1      35.417 -24.574 -11.330  0.00  0.00    +0.064 C 
ATOM     11  C   UNL     1      34.087 -24.268 -11.581  0.00  0.00    +0.016 C 
BRANCH   8  12
ATOM     12  N   UNL     1      37.065 -23.693 -14.436  0.00  0.00    -0.303 NA
ATOM     13  H   UNL     1      37.235 -22.798 -14.808  0.00  0.00    +0.121 HD
ATOM     14  H   UNL     1      37.611 -24.459 -14.726  0.00  0.00    +0.121 HD
ENDBRANCH   8  12
BRANCH   6  15
ATOM     15  C   UNL     1      37.730 -24.715 -11.953  0.00  0.00    +0.251 C 
BRANCH  15  16
ATOM     16  O   UNL     1      38.170 -25.725 -12.850  0.00  0.00    -0.250 OA
BRANCH  16  17
ATOM     17  P   UNL     1      39.629 -25.575 -13.570  0.00  0.00    +0.504 P 
ATOM     18  O   UNL     1      40.504 -26.755 -13.207  0.00  0.00    -0.225 OA
ATOM     19  O   UNL     1      40.123 -24.160 -13.360  0.00  0.00    -0.116 OA
BRANCH  17  20
ATOM     20  O   UNL     1      39.174 -25.726 -15.132  0.00  0.00    -0.301 OA
ATOM     21  H   UNL     1      38.575 -25.000 -15.366  0.00  0.00    +0.222 HD
ENDBRANCH  17  20
ENDBRANCH  16  17
ENDBRANCH  15  16
ENDBRANCH   6  15
ENDBRANCH   4   7
BRANCH   3  22
ATOM     22  C   UNL     1      32.685 -21.922 -18.110  0.00  0.00    +0.075 C 
BRANCH  22  23
ATOM     23  C   UNL     1      33.301 -20.925 -19.083  0.00  0.00    -0.016 C 
ATOM     24  C   UNL     1      32.478 -20.111 -19.861  0.00  0.00    -0.004 C 
ATOM     25  C   UNL     1      34.688 -20.825 -19.194  0.00  0.00    -0.004 C 
ATOM     26  C   UNL     1      34.429 -19.098 -20.863  0.00  0.00    +0.021 C 
ATOM     27  C   UNL     1      33.041 -19.198 -20.752  0.00  0.00    -0.001 C 
ATOM     28  C   UNL     1      35.251 -19.912 -20.085  0.00  0.00    -0.001 C 
BRANCH  26  29
ATOM     29  C   UNL     1      35.031 -18.119 -21.814  0.00  0.00    +0.234 C 
BRANCH  29  30
ATOM     30  O   UNL     1      34.157 -17.937 -22.921  0.00  0.00    -0.455 OA
BRANCH  30  32
ATOM     31  N   UNL     1      33.146 -16.441 -24.379  0.00  0.00    -0.210 NA
ATOM     32  C   UNL     1      33.771 -16.652 -23.199  0.00  0.00    +0.225 C 
ATOM     33  C   UNL     1      34.035 -15.657 -22.272  0.00  0.00    +0.058 C 
ATOM     34  C   UNL     1      33.632 -14.361 -22.575  0.00  0.00    +0.006 C 
ATOM     35  C   UNL     1      32.768 -15.169 -24.639  0.00  0.00    +0.102 C 
ATOM     36  C   UNL     1      32.985 -14.105 -23.779  0.00  0.00    +0.021 C 
ENDBRANCH  30  32
ENDBRANCH  29  30
ENDBRANCH  26  29
ENDBRANCH  22  23
ENDBRANCH   3  22
TORSDOF 11
ENDMDL
MODEL 4
REMARK VINA RESULT:     -12.0      2.058      2.590
REMARK  Name = 44123754
REMARK  11 active torsions:
REMARK  status: ('A' for Active; 'I' for Inactive)
REMARK    1  A    between atoms: C_3  and  C_22
REMARK    2  A    between atoms: C_4  and  C_7
REMARK    3  A    between atoms: N_6  and  C_15
REMARK    4  A    between atoms: C_8  and  N_12
REMARK    5  A    between atoms: C_15  and  O_16
REMARK    6  A    between atoms: O_16  and  P_17
REMARK    7  A    between atoms: P_17  and  O_20
REMARK    8  A    between atoms: C_22  and  C_23
REMARK    9  A    between atoms: C_26  and  C_29
REMARK   10  A    between atoms: C_29  and  O_30
REMARK   11  A    between atoms: O_30  and  C_32
REMARK                            x       y       z     vdW  Elec       q    Type
REMARK                         _______ _______ _______ _____ _____    ______ ____
ROOT
ATOM      1  O   UNL     1      33.877 -15.385 -20.206  0.00  0.00    -0.354 OA
ATOM      2  N   UNL     1      34.328 -16.690 -20.043  0.00  0.00    -0.081 NA
ATOM      3  C   UNL     1      34.339 -17.208 -21.275  0.00  0.00    +0.105 C 
ATOM      4  C   UNL     1      33.629 -15.158 -21.522  0.00  0.00    +0.175 C 
ATOM      5  C   UNL     1      33.907 -16.287 -22.245  0.00  0.00    +0.058 C 
ENDROOT
BRANCH   4   7
ATOM      6  N   UNL     1      31.805 -11.945 -21.397  0.00  0.00    -0.266 N 
ATOM      7  C   UNL     1      33.150 -13.834 -21.848  0.00  0.00    +0.048 C 
ATOM      8  C   UNL     1      32.221 -13.173 -21.058  0.00  0.00    +0.156 C 
ATOM      9  C   UNL     1      33.632 -13.200 -22.988  0.00  0.00    +0.003 C 
ATOM     10  C   UNL     1      32.252 -11.312 -22.489  0.00  0.00    +0.064 C 
ATOM     11  C   UNL     1      33.181 -11.925 -23.317  0.00  0.00    +0.016 C 
BRANCH   8  12
ATOM     12  N   UNL     1      31.707 -13.781 -19.892  0.00  0.00    -0.303 NA
ATOM     13  H   UNL     1      30.745 -13.722 -19.689  0.00  0.00    +0.121 HD
ATOM     14  H   UNL     1      32.311 -14.264 -19.282  0.00  0.00    +0.121 HD
ENDBRANCH   8  12
BRANCH   6  15
ATOM     15  C   UNL     1      30.824 -11.247 -20.561  0.00  0.00    +0.251 C 
BRANCH  15  16
ATOM     16  O   UNL     1      31.174  -9.871 -20.504  0.00  0.00    -0.250 OA
BRANCH  16  17
ATOM     17  P   UNL     1      30.974  -9.054 -19.103  0.00  0.00    +0.504 P 
ATOM     18  O   UNL     1      30.682  -7.598 -19.397  0.00  0.00    -0.225 OA
ATOM     19  O   UNL     1      32.095  -9.436 -18.161  0.00  0.00    -0.116 OA
BRANCH  17  20
ATOM     20  O   UNL     1      29.602  -9.763 -18.573  0.00  0.00    -0.301 OA
ATOM     21  H   UNL     1      28.970  -9.832 -19.305  0.00  0.00    +0.222 HD
ENDBRANCH  17  20
ENDBRANCH  16  17
ENDBRANCH  15  16
ENDBRANCH   6  15
ENDBRANCH   4   7
BRANCH   3  22
ATOM     22  C   UNL     1      34.770 -18.600 -21.482  0.00  0.00    +0.075 C 
BRANCH  22  23
ATOM     23  C   UNL     1      34.277 -19.581 -20.426  0.00  0.00    -0.016 C 
ATOM     24  C   UNL     1      35.194 -20.296 -19.656  0.00  0.00    -0.004 C 
ATOM     25  C   UNL     1      32.908 -19.764 -20.230  0.00  0.00    -0.004 C 
ATOM     26  C   UNL     1      33.374 -21.377 -18.493  0.00  0.00    +0.021 C 
ATOM     27  C   UNL     1      34.743 -21.194 -18.690  0.00  0.00    -0.001 C 
ATOM     28  C   UNL     1      32.457 -20.663 -19.263  0.00  0.00    -0.001 C 
BRANCH  26  29
ATOM     29  C   UNL     1      32.892 -22.336 -17.457  0.00  0.00    +0.234 C 
BRANCH  29  30
ATOM     30  O   UNL     1      31.473 -22.274 -17.379  0.00  0.00    -0.455 OA
BRANCH  30  32
ATOM     31  N   UNL     1      29.572 -22.354 -16.052  0.00  0.00    -0.210 NA
ATOM     32  C   UNL     1      30.912 -22.507 -16.152  0.00  0.00    +0.225 C 
ATOM     33  C   UNL     1      31.730 -22.881 -15.099  0.00  0.00    +0.058 C 
ATOM     34  C   UNL     1      31.136 -23.114 -13.863  0.00  0.00    +0.006 C 
ATOM     35  C   UNL     1      29.030 -22.590 -14.836  0.00  0.00    +0.102 C 
ATOM     36  C   UNL     1      29.760 -22.968 -13.721  0.00  0.00    +0.021 C 
ENDBRANCH  30  32
ENDBRANCH  29  30
ENDBRANCH  26  29
ENDBRANCH  22  23
ENDBRANCH   3  22
TORSDOF 11
ENDMDL
MODEL 5
REMARK VINA RESULT:     -11.5      4.824     12.309
REMARK  Name = 44123754
REMARK  11 active torsions:
REMARK  status: ('A' for Active; 'I' for Inactive)
REMARK    1  A    between atoms: C_3  and  C_22
REMARK    2  A    between atoms: C_4  and  C_7
REMARK    3  A    between atoms: N_6  and  C_15
REMARK    4  A    between atoms: C_8  and  N_12
REMARK    5  A    between atoms: C_15  and  O_16
REMARK    6  A    between atoms: O_16  and  P_17
REMARK    7  A    between atoms: P_17  and  O_20
REMARK    8  A    between atoms: C_22  and  C_23
REMARK    9  A    between atoms: C_26  and  C_29
REMARK   10  A    between atoms: C_29  and  O_30
REMARK   11  A    between atoms: O_30  and  C_32
REMARK                            x       y       z     vdW  Elec       q    Type
REMARK                         _______ _______ _______ _____ _____    ______ ____
ROOT
ATOM      1  O   UNL     1      32.963 -23.022 -17.886  0.00  0.00    -0.354 OA
ATOM      2  N   UNL     1      33.845 -22.504 -18.827  0.00  0.00    -0.081 NA
ATOM      3  C   UNL     1      34.653 -21.696 -18.135  0.00  0.00    +0.105 C 
ATOM      4  C   UNL     1      33.263 -22.515 -16.663  0.00  0.00    +0.175 C 
ATOM      5  C   UNL     1      34.331 -21.664 -16.766  0.00  0.00    +0.058 C 
ENDROOT
BRANCH   4   7
ATOM      6  N   UNL     1      32.136 -23.996 -13.469  0.00  0.00    -0.266 N 
ATOM      7  C   UNL     1      32.425 -22.966 -15.576  0.00  0.00    +0.048 C 
ATOM      8  C   UNL     1      32.950 -23.594 -14.455  0.00  0.00    +0.156 C 
ATOM      9  C   UNL     1      31.051 -22.767 -15.651  0.00  0.00    +0.003 C 
ATOM     10  C   UNL     1      30.809 -23.818 -13.516  0.00  0.00    +0.064 C 
ATOM     11  C   UNL     1      30.230 -23.197 -14.612  0.00  0.00    +0.016 C 
BRANCH   8  12
ATOM     12  N   UNL     1      34.339 -23.814 -14.339  0.00  0.00    -0.303 NA
ATOM     13  H   UNL     1      34.705 -24.722 -14.452  0.00  0.00    +0.121 HD
ATOM     14  H   UNL     1      34.942 -23.060 -14.146  0.00  0.00    +0.121 HD
ENDBRANCH   8  12
BRANCH   6  15
ATOM     15  C   UNL     1      32.691 -24.658 -12.286  0.00  0.00    +0.251 C 
BRANCH  15  16
ATOM     16  O   UNL     1      33.379 -23.691 -11.505  0.00  0.00    -0.250 OA
BRANCH  16  17
ATOM     17  P   UNL     1      34.752 -24.121 -10.729  0.00  0.00    +0.504 P 
ATOM     18  O   UNL     1      34.413 -24.684  -9.365  0.00  0.00    -0.225 OA
ATOM     19  O   UNL     1      35.753 -22.996 -10.867  0.00  0.00    -0.116 OA
BRANCH  17  20
ATOM     20  O   UNL     1      35.231 -25.349 -11.693  0.00  0.00    -0.301 OA
ATOM     21  H   UNL     1      34.454 -25.770 -12.093  0.00  0.00    +0.222 HD
ENDBRANCH  17  20
ENDBRANCH  16  17
ENDBRANCH  15  16
ENDBRANCH   6  15
ENDBRANCH   4   7
BRANCH   3  22
ATOM     22  C   UNL     1      35.728 -20.965 -18.825  0.00  0.00    +0.075 C 
BRANCH  22  23
ATOM     23  C   UNL     1      35.247 -19.963 -19.867  0.00  0.00    -0.016 C 
ATOM     24  C   UNL     1      33.923 -19.995 -20.306  0.00  0.00    -0.004 C 
ATOM     25  C   UNL     1      36.130 -19.014 -20.382  0.00  0.00    -0.004 C 
ATOM     26  C   UNL     1      34.365 -18.129 -21.775  0.00  0.00    +0.021 C 
ATOM     27  C   UNL     1      33.483 -19.079 -21.260  0.00  0.00    -0.001 C 
ATOM     28  C   UNL     1      35.689 -18.097 -21.336  0.00  0.00    -0.001 C 
BRANCH  26  29
ATOM     29  C   UNL     1      33.893 -17.147 -22.793  0.00  0.00    +0.234 C 
BRANCH  29  30
ATOM     30  O   UNL     1      33.962 -15.834 -22.250  0.00  0.00    -0.455 OA
BRANCH  30  32
ATOM     31  N   UNL     1      33.078 -15.146 -24.283  0.00  0.00    -0.210 NA
ATOM     32  C   UNL     1      33.526 -14.811 -23.051  0.00  0.00    +0.225 C 
ATOM     33  C   UNL     1      33.563 -13.515 -22.565  0.00  0.00    +0.058 C 
ATOM     34  C   UNL     1      33.113 -12.495 -23.397  0.00  0.00    +0.006 C 
ATOM     35  C   UNL     1      32.648 -14.129 -25.062  0.00  0.00    +0.102 C 
ATOM     36  C   UNL     1      32.645 -12.800 -24.671  0.00  0.00    +0.021 C 
ENDBRANCH  30  32
ENDBRANCH  29  30
ENDBRANCH  26  29
ENDBRANCH  22  23
ENDBRANCH   3  22
TORSDOF 11
ENDMDL
MODEL 6
REMARK VINA RESULT:     -11.5      2.582      3.588
REMARK  Name = 44123754
REMARK  11 active torsions:
REMARK  status: ('A' for Active; 'I' for Inactive)
REMARK    1  A    between atoms: C_3  and  C_22
REMARK    2  A    between atoms: C_4  and  C_7
REMARK    3  A    between atoms: N_6  and  C_15
REMARK    4  A    between atoms: C_8  and  N_12
REMARK    5  A    between atoms: C_15  and  O_16
REMARK    6  A    between atoms: O_16  and  P_17
REMARK    7  A    between atoms: P_17  and  O_20
REMARK    8  A    between atoms: C_22  and  C_23
REMARK    9  A    between atoms: C_26  and  C_29
REMARK   10  A    between atoms: C_29  and  O_30
REMARK   11  A    between atoms: O_30  and  C_32
REMARK                            x       y       z     vdW  Elec       q    Type
REMARK                         _______ _______ _______ _____ _____    ______ ____
ROOT
ATOM      1  O   UNL     1      33.557 -14.184 -21.139  0.00  0.00    -0.354 OA
ATOM      2  N   UNL     1      33.935 -15.520 -21.202  0.00  0.00    -0.081 NA
ATOM      3  C   UNL     1      33.888 -15.832 -22.500  0.00  0.00    +0.105 C 
ATOM      4  C   UNL     1      33.295 -13.733 -22.393  0.00  0.00    +0.175 C 
ATOM      5  C   UNL     1      33.491 -14.744 -23.296  0.00  0.00    +0.058 C 
ENDROOT
BRANCH   4   7
ATOM      6  N   UNL     1      31.608 -10.509 -21.743  0.00  0.00    -0.266 N 
ATOM      7  C   UNL     1      32.887 -12.351 -22.487  0.00  0.00    +0.048 C 
ATOM      8  C   UNL     1      31.957 -11.797 -21.620  0.00  0.00    +0.156 C 
ATOM      9  C   UNL     1      33.443 -11.546 -23.477  0.00  0.00    +0.003 C 
ATOM     10  C   UNL     1      32.126  -9.712 -22.686  0.00  0.00    +0.064 C 
ATOM     11  C   UNL     1      33.061 -10.211 -23.581  0.00  0.00    +0.016 C 
BRANCH   8  12
ATOM     12  N   UNL     1      31.369 -12.580 -20.602  0.00  0.00    -0.303 NA
ATOM     13  H   UNL     1      31.583 -13.538 -20.533  0.00  0.00    +0.121 HD
ATOM     14  H   UNL     1      30.746 -12.166 -19.962  0.00  0.00    +0.121 HD
ENDBRANCH   8  12
BRANCH   6  15
ATOM     15  C   UNL     1      30.625  -9.925 -20.826  0.00  0.00    +0.251 C 
BRANCH  15  16
ATOM     16  O   UNL     1      31.319  -9.281 -19.767  0.00  0.00    -0.250 OA
BRANCH  16  17
ATOM     17  P   UNL     1      31.178  -7.662 -19.588  0.00  0.00    +0.504 P 
ATOM     18  O   UNL     1      30.655  -7.344 -18.205  0.00  0.00    -0.225 OA
ATOM     19  O   UNL     1      30.493  -7.102 -20.816  0.00  0.00    -0.116 OA
BRANCH  17  20
ATOM     20  O   UNL     1      32.757  -7.248 -19.655  0.00  0.00    -0.301 OA
ATOM     21  H   UNL     1      32.888  -6.400 -19.202  0.00  0.00    +0.222 HD
ENDBRANCH  17  20
ENDBRANCH  16  17
ENDBRANCH  15  16
ENDBRANCH   6  15
ENDBRANCH   4   7
BRANCH   3  22
ATOM     22  C   UNL     1      34.233 -17.193 -22.941  0.00  0.00    +0.075 C 
BRANCH  22  23
ATOM     23  C   UNL     1      34.505 -18.177 -21.810  0.00  0.00    -0.016 C 
ATOM     24  C   UNL     1      35.769 -18.233 -21.224  0.00  0.00    -0.004 C 
ATOM     25  C   UNL     1      33.490 -19.022 -21.361  0.00  0.00    -0.004 C 
ATOM     26  C   UNL     1      35.003 -19.978 -19.739  0.00  0.00    +0.021 C 
ATOM     27  C   UNL     1      36.019 -19.133 -20.189  0.00  0.00    -0.001 C 
ATOM     28  C   UNL     1      33.739 -19.922 -20.325  0.00  0.00    -0.001 C 
BRANCH  26  29
ATOM     29  C   UNL     1      35.270 -20.938 -18.630  0.00  0.00    +0.234 C 
BRANCH  29  30
ATOM     30  O   UNL     1      34.275 -21.955 -18.637  0.00  0.00    -0.455 OA
BRANCH  30  32
ATOM     31  N   UNL     1      34.553 -22.376 -16.372  0.00  0.00    -0.210 NA
ATOM     32  C   UNL     1      33.716 -22.279 -17.429  0.00  0.00    +0.225 C 
ATOM     33  C   UNL     1      32.347 -22.484 -17.356  0.00  0.00    +0.058 C 
ATOM     34  C   UNL     1      31.803 -22.811 -16.118  0.00  0.00    +0.006 C 
ATOM     35  C   UNL     1      33.989 -22.694 -15.185  0.00  0.00    +0.102 C 
ATOM     36  C   UNL     1      32.633 -22.919 -15.007  0.00  0.00    +0.021 C 
ENDBRANCH  30  32
ENDBRANCH  29  30
ENDBRANCH  26  29
ENDBRANCH  22  23
ENDBRANCH   3  22
TORSDOF 11
ENDMDL
MODEL 7
REMARK VINA RESULT:     -11.4      4.672     11.729
REMARK  Name = 44123754
REMARK  11 active torsions:
REMARK  status: ('A' for Active; 'I' for Inactive)
REMARK    1  A    between atoms: C_3  and  C_22
REMARK    2  A    between atoms: C_4  and  C_7
REMARK    3  A    between atoms: N_6  and  C_15
REMARK    4  A    between atoms: C_8  and  N_12
REMARK    5  A    between atoms: C_15  and  O_16
REMARK    6  A    between atoms: O_16  and  P_17
REMARK    7  A    between atoms: P_17  and  O_20
REMARK    8  A    between atoms: C_22  and  C_23
REMARK    9  A    between atoms: C_26  and  C_29
REMARK   10  A    between atoms: C_29  and  O_30
REMARK   11  A    between atoms: O_30  and  C_32
REMARK                            x       y       z     vdW  Elec       q    Type
REMARK                         _______ _______ _______ _____ _____    ______ ____
ROOT
ATOM      1  O   UNL     1      32.077 -21.012 -18.457  0.00  0.00    -0.354 OA
ATOM      2  N   UNL     1      32.703 -20.411 -19.542  0.00  0.00    -0.081 NA
ATOM      3  C   UNL     1      33.987 -20.766 -19.442  0.00  0.00    +0.105 C 
ATOM      4  C   UNL     1      32.996 -21.706 -17.738  0.00  0.00    +0.175 C 
ATOM      5  C   UNL     1      34.228 -21.582 -18.323  0.00  0.00    +0.058 C 
ENDROOT
BRANCH   4   7
ATOM      6  N   UNL     1      32.823 -23.571 -14.551  0.00  0.00    -0.266 N 
ATOM      7  C   UNL     1      32.490 -22.390 -16.570  0.00  0.00    +0.048 C 
ATOM      8  C   UNL     1      33.335 -22.946 -15.620  0.00  0.00    +0.156 C 
ATOM      9  C   UNL     1      31.115 -22.497 -16.389  0.00  0.00    +0.003 C 
ATOM     10  C   UNL     1      31.503 -23.689 -14.352  0.00  0.00    +0.064 C 
ATOM     11  C   UNL     1      30.612 -23.153 -15.269  0.00  0.00    +0.016 C 
BRANCH   8  12
ATOM     12  N   UNL     1      34.736 -22.860 -15.766  0.00  0.00    -0.303 NA
ATOM     13  H   UNL     1      35.123 -22.483 -16.590  0.00  0.00    +0.121 HD
ATOM     14  H   UNL     1      35.326 -23.176 -15.044  0.00  0.00    +0.121 HD
ENDBRANCH   8  12
BRANCH   6  15
ATOM     15  C   UNL     1      33.715 -24.158 -13.548  0.00  0.00    +0.251 C 
BRANCH  15  16
ATOM     16  O   UNL     1      34.434 -25.226 -14.148  0.00  0.00    -0.250 OA
BRANCH  16  17
ATOM     17  P   UNL     1      35.975 -25.511 -13.686  0.00  0.00    +0.504 P 
ATOM     18  O   UNL     1      36.737 -24.206 -13.611  0.00  0.00    -0.225 OA
ATOM     19  O   UNL     1      36.513 -26.668 -14.500  0.00  0.00    -0.116 OA
BRANCH  17  20
ATOM     20  O   UNL     1      35.705 -26.044 -12.166  0.00  0.00    -0.301 OA
ATOM     21  H   UNL     1      36.533 -26.381 -11.789  0.00  0.00    +0.222 HD
ENDBRANCH  17  20
ENDBRANCH  16  17
ENDBRANCH  15  16
ENDBRANCH   6  15
ENDBRANCH   4   7
BRANCH   3  22
ATOM     22  C   UNL     1      34.959 -20.299 -20.443  0.00  0.00    +0.075 C 
BRANCH  22  23
ATOM     23  C   UNL     1      34.604 -18.971 -21.101  0.00  0.00    -0.016 C 
ATOM     24  C   UNL     1      34.080 -18.951 -22.393  0.00  0.00    -0.004 C 
ATOM     25  C   UNL     1      34.802 -17.775 -20.410  0.00  0.00    -0.004 C 
ATOM     26  C   UNL     1      33.953 -16.540 -22.305  0.00  0.00    +0.021 C 
ATOM     27  C   UNL     1      33.755 -17.736 -22.996  0.00  0.00    -0.001 C 
ATOM     28  C   UNL     1      34.477 -16.560 -21.012  0.00  0.00    -0.001 C 
BRANCH  26  29
ATOM     29  C   UNL     1      33.603 -15.242 -22.948  0.00  0.00    +0.234 C 
BRANCH  29  30
ATOM     30  O   UNL     1      33.979 -14.172 -22.089  0.00  0.00    -0.455 OA
BRANCH  30  32
ATOM     31  N   UNL     1      32.553 -12.345 -22.209  0.00  0.00    -0.210 NA
ATOM     32  C   UNL     1      32.962 -13.441 -21.532  0.00  0.00    +0.225 C 
ATOM     33  C   UNL     1      32.417 -13.858 -20.328  0.00  0.00    +0.058 C 
ATOM     34  C   UNL     1      31.385 -13.100 -19.784  0.00  0.00    +0.006 C 
ATOM     35  C   UNL     1      31.548 -11.634 -21.650  0.00  0.00    +0.102 C 
ATOM     36  C   UNL     1      30.937 -11.966 -20.452  0.00  0.00    +0.021 C 
ENDBRANCH  30  32
ENDBRANCH  29  30
ENDBRANCH  26  29
ENDBRANCH  22  23
ENDBRANCH   3  22
TORSDOF 11
ENDMDL
MODEL 8
REMARK VINA RESULT:     -11.3      2.021      2.878
REMARK  Name = 44123754
REMARK  11 active torsions:
REMARK  status: ('A' for Active; 'I' for Inactive)
REMARK    1  A    between atoms: C_3  and  C_22
REMARK    2  A    between atoms: C_4  and  C_7
REMARK    3  A    between atoms: N_6  and  C_15
REMARK    4  A    between atoms: C_8  and  N_12
REMARK    5  A    between atoms: C_15  and  O_16
REMARK    6  A    between atoms: O_16  and  P_17
REMARK    7  A    between atoms: P_17  and  O_20
REMARK    8  A    between atoms: C_22  and  C_23
REMARK    9  A    between atoms: C_26  and  C_29
REMARK   10  A    between atoms: C_29  and  O_30
REMARK   11  A    between atoms: O_30  and  C_32
REMARK                            x       y       z     vdW  Elec       q    Type
REMARK                         _______ _______ _______ _____ _____    ______ ____
ROOT
ATOM      1  O   UNL     1      33.377 -15.405 -22.827  0.00  0.00    -0.354 OA
ATOM      2  N   UNL     1      34.101 -16.587 -22.927  0.00  0.00    -0.081 NA
ATOM      3  C   UNL     1      34.538 -16.831 -21.688  0.00  0.00    +0.105 C 
ATOM      4  C   UNL     1      33.400 -14.973 -21.539  0.00  0.00    +0.175 C 
ATOM      5  C   UNL     1      34.126 -15.846 -20.773  0.00  0.00    +0.058 C 
ENDROOT
BRANCH   4   7
ATOM      6  N   UNL     1      32.145 -11.506 -21.806  0.00  0.00    -0.266 N 
ATOM      7  C   UNL     1      32.684 -13.746 -21.279  0.00  0.00    +0.048 C 
ATOM      8  C   UNL     1      32.829 -12.625 -22.084  0.00  0.00    +0.156 C 
ATOM      9  C   UNL     1      31.822 -13.681 -20.188  0.00  0.00    +0.003 C 
ATOM     10  C   UNL     1      31.309 -11.417 -20.763  0.00  0.00    +0.064 C 
ATOM     11  C   UNL     1      31.125 -12.506 -19.923  0.00  0.00    +0.016 C 
BRANCH   8  12
ATOM     12  N   UNL     1      33.693 -12.649 -23.200  0.00  0.00    -0.303 NA
ATOM     13  H   UNL     1      34.567 -12.197 -23.156  0.00  0.00    +0.121 HD
ATOM     14  H   UNL     1      33.421 -13.117 -24.022  0.00  0.00    +0.121 HD
ENDBRANCH   8  12
BRANCH   6  15
ATOM     15  C   UNL     1      32.298 -10.324 -22.657  0.00  0.00    +0.251 C 
BRANCH  15  16
ATOM     16  O   UNL     1      31.609  -9.238 -22.052  0.00  0.00    -0.250 OA
BRANCH  16  17
ATOM     17  P   UNL     1      32.121  -7.711 -22.333  0.00  0.00    +0.504 P 
ATOM     18  O   UNL     1      31.176  -7.022 -23.293  0.00  0.00    -0.225 OA
ATOM     19  O   UNL     1      33.608  -7.749 -22.613  0.00  0.00    -0.116 OA
BRANCH  17  20
ATOM     20  O   UNL     1      31.902  -7.077 -20.843  0.00  0.00    -0.301 OA
ATOM     21  H   UNL     1      32.413  -7.588 -20.196  0.00  0.00    +0.222 HD
ENDBRANCH  17  20
ENDBRANCH  16  17
ENDBRANCH  15  16
ENDBRANCH   6  15
ENDBRANCH   4   7
BRANCH   3  22
ATOM     22  C   UNL     1      35.354 -18.026 -21.419  0.00  0.00    +0.075 C 
BRANCH  22  23
ATOM     23  C   UNL     1      34.662 -19.090 -20.576  0.00  0.00    -0.016 C 
ATOM     24  C   UNL     1      33.273 -19.205 -20.602  0.00  0.00    -0.004 C 
ATOM     25  C   UNL     1      35.419 -19.949 -19.779  0.00  0.00    -0.004 C 
ATOM     26  C   UNL     1      33.396 -21.038 -19.033  0.00  0.00    +0.021 C 
ATOM     27  C   UNL     1      32.639 -20.178 -19.830  0.00  0.00    -0.001 C 
ATOM     28  C   UNL     1      34.785 -20.923 -19.007  0.00  0.00    -0.001 C 
BRANCH  26  29
ATOM     29  C   UNL     1      32.718 -22.080 -18.210  0.00  0.00    +0.234 C 
BRANCH  29  30
ATOM     30  O   UNL     1      33.624 -22.570 -17.229  0.00  0.00    -0.455 OA
BRANCH  30  32
ATOM     31  N   UNL     1      33.926 -23.539 -15.142  0.00  0.00    -0.210 NA
ATOM     32  C   UNL     1      33.083 -22.977 -16.037  0.00  0.00    +0.225 C 
ATOM     33  C   UNL     1      31.728 -22.792 -15.817  0.00  0.00    +0.058 C 
ATOM     34  C   UNL     1      31.203 -23.211 -14.599  0.00  0.00    +0.006 C 
ATOM     35  C   UNL     1      33.380 -23.933 -13.969  0.00  0.00    +0.102 C 
ATOM     36  C   UNL     1      32.039 -23.793 -13.652  0.00  0.00    +0.021 C 
ENDBRANCH  30  32
ENDBRANCH  29  30
ENDBRANCH  26  29
ENDBRANCH  22  23
ENDBRANCH   3  22
TORSDOF 11
ENDMDL
MODEL 9
REMARK VINA RESULT:     -11.3      4.803     11.514
REMARK  Name = 44123754
REMARK  11 active torsions:
REMARK  status: ('A' for Active; 'I' for Inactive)
REMARK    1  A    between atoms: C_3  and  C_22
REMARK    2  A    between atoms: C_4  and  C_7
REMARK    3  A    between atoms: N_6  and  C_15
REMARK    4  A    between atoms: C_8  and  N_12
REMARK    5  A    between atoms: C_15  and  O_16
REMARK    6  A    between atoms: O_16  and  P_17
REMARK    7  A    between atoms: P_17  and  O_20
REMARK    8  A    between atoms: C_22  and  C_23
REMARK    9  A    between atoms: C_26  and  C_29
REMARK   10  A    between atoms: C_29  and  O_30
REMARK   11  A    between atoms: O_30  and  C_32
REMARK                            x       y       z     vdW  Elec       q    Type
REMARK                         _______ _______ _______ _____ _____    ______ ____
ROOT
ATOM      1  O   UNL     1      35.586 -19.976 -19.020  0.00  0.00    -0.354 OA
ATOM      2  N   UNL     1      35.879 -19.195 -20.132  0.00  0.00    -0.081 NA
ATOM      3  C   UNL     1      34.810 -19.308 -20.925  0.00  0.00    +0.105 C 
ATOM      4  C   UNL     1      34.357 -20.532 -19.175  0.00  0.00    +0.175 C 
ATOM      5  C   UNL     1      33.820 -20.139 -20.372  0.00  0.00    +0.058 C 
ENDROOT
BRANCH   4   7
ATOM      6  N   UNL     1      34.280 -22.478 -16.033  0.00  0.00    -0.266 N 
ATOM      7  C   UNL     1      33.911 -21.376 -18.090  0.00  0.00    +0.048 C 
ATOM      8  C   UNL     1      34.734 -21.692 -17.018  0.00  0.00    +0.156 C 
ATOM      9  C   UNL     1      32.619 -21.890 -18.117  0.00  0.00    +0.003 C 
ATOM     10  C   UNL     1      33.041 -22.986 -16.034  0.00  0.00    +0.064 C 
ATOM     11  C   UNL     1      32.175 -22.705 -17.080  0.00  0.00    +0.016 C 
BRANCH   8  12
ATOM     12  N   UNL     1      36.052 -21.190 -16.953  0.00  0.00    -0.303 NA
ATOM     13  H   UNL     1      36.816 -21.812 -16.964  0.00  0.00    +0.121 HD
ATOM     14  H   UNL     1      36.207 -20.220 -16.896  0.00  0.00    +0.121 HD
ENDBRANCH   8  12
BRANCH   6  15
ATOM     15  C   UNL     1      35.149 -22.810 -14.901  0.00  0.00    +0.251 C 
BRANCH  15  16
ATOM     16  O   UNL     1      35.124 -24.217 -14.707  0.00  0.00    -0.250 OA
BRANCH  16  17
ATOM     17  P   UNL     1      36.376 -24.942 -13.948  0.00  0.00    +0.504 P 
ATOM     18  O   UNL     1      35.931 -25.448 -12.593  0.00  0.00    -0.225 OA
ATOM     19  O   UNL     1      37.593 -24.051 -14.073  0.00  0.00    -0.116 OA
BRANCH  17  20
ATOM     20  O   UNL     1      36.583 -26.225 -14.939  0.00  0.00    -0.301 OA
ATOM     21  H   UNL     1      36.076 -26.088 -15.754  0.00  0.00    +0.222 HD
ENDBRANCH  17  20
ENDBRANCH  16  17
ENDBRANCH  15  16
ENDBRANCH   6  15
ENDBRANCH   4   7
BRANCH   3  22
ATOM     22  C   UNL     1      34.775 -18.600 -22.215  0.00  0.00    +0.075 C 
BRANCH  22  23
ATOM     23  C   UNL     1      34.340 -17.143 -22.127  0.00  0.00    -0.016 C 
ATOM     24  C   UNL     1      34.082 -16.420 -23.292  0.00  0.00    -0.004 C 
ATOM     25  C   UNL     1      34.198 -16.531 -20.881  0.00  0.00    -0.004 C 
ATOM     26  C   UNL     1      33.542 -14.475 -21.966  0.00  0.00    +0.021 C 
ATOM     27  C   UNL     1      33.684 -15.086 -23.212  0.00  0.00    -0.001 C 
ATOM     28  C   UNL     1      33.799 -15.197 -20.801  0.00  0.00    -0.001 C 
BRANCH  26  29
ATOM     29  C   UNL     1      33.114 -13.049 -21.880  0.00  0.00    +0.234 C 
BRANCH  29  30
ATOM     30  O   UNL     1      31.809 -12.981 -21.318  0.00  0.00    -0.455 OA
BRANCH  30  32
ATOM     31  N   UNL     1      31.500 -10.708 -21.668  0.00  0.00    -0.210 NA
ATOM     32  C   UNL     1      31.410 -11.764 -20.829  0.00  0.00    +0.225 C 
ATOM     33  C   UNL     1      30.943 -11.684 -19.527  0.00  0.00    +0.058 C 
ATOM     34  C   UNL     1      30.543 -10.438 -19.055  0.00  0.00    +0.006 C 
ATOM     35  C   UNL     1      31.102  -9.514 -21.175  0.00  0.00    +0.102 C 
ATOM     36  C   UNL     1      30.620  -9.328 -19.889  0.00  0.00    +0.021 C 
ENDBRANCH  30  32
ENDBRANCH  29  30
ENDBRANCH  26  29
ENDBRANCH  22  23
ENDBRANCH   3  22
TORSDOF 11
ENDMDL
