MODEL 1
REMARK VINA RESULT:     -11.5      0.000      0.000
REMARK  Name = 24880024
REMARK  5 active torsions:
REMARK  status: ('A' for Active; 'I' for Inactive)
REMARK    1  A    between atoms: N_5  and  C_12
REMARK    2  A    between atoms: C_6  and  C_22
REMARK    3  A    between atoms: C_13  and  C_21
REMARK    4  A    between atoms: C_22  and  C_23
REMARK    5  A    between atoms: C_23  and  N_25
REMARK                            x       y       z     vdW  Elec       q    Type
REMARK                         _______ _______ _______ _____ _____    ______ ____
ROOT
ATOM      1  S   UNL     1      35.699 -20.308 -19.106  0.00  0.00    -0.056 S 
ATOM      2  O   UNL     1      34.330 -23.053 -15.586  0.00  0.00    -0.252 OA
ATOM      3  N   UNL     1      33.662 -21.526 -18.080  0.00  0.00    -0.223 NA
ATOM      4  N   UNL     1      35.765 -21.768 -16.930  0.00  0.00    -0.248 N 
ATOM      5  N   UNL     1      36.593 -22.848 -15.033  0.00  0.00    -0.268 N 
ATOM      6  C   UNL     1      34.188 -20.159 -19.904  0.00  0.00    +0.031 C 
ATOM      7  C   UNL     1      33.228 -20.870 -19.214  0.00  0.00    +0.103 C 
ATOM      8  C   UNL     1      34.948 -21.301 -17.924  0.00  0.00    +0.166 C 
ATOM      9  C   UNL     1      35.450 -22.609 -15.814  0.00  0.00    +0.310 C 
ATOM     10  H   UNL     1      36.707 -21.485 -16.990  0.00  0.00    +0.158 HD
ATOM     11  H   UNL     1      37.425 -22.423 -15.343  0.00  0.00    +0.156 HD
ENDROOT
BRANCH   5  12
ATOM     12  C   UNL     1      36.696 -23.625 -13.855  0.00  0.00    +0.052 C 
ATOM     13  C   UNL     1      35.948 -24.142 -11.617  0.00  0.00    +0.073 C 
ATOM     14  C   UNL     1      35.847 -23.375 -12.777  0.00  0.00    +0.019 C 
ATOM     15  C   UNL     1      37.645 -24.643 -13.773  0.00  0.00    +0.015 C 
ATOM     16  C   UNL     1      36.897 -25.160 -11.534  0.00  0.00    +0.004 C 
ATOM     17  C   UNL     1      37.746 -25.411 -12.612  0.00  0.00    +0.001 C 
BRANCH  13  21
ATOM     18  F   UNL     1      34.569 -25.006  -9.863  0.00  0.00    -0.166 F 
ATOM     19  F   UNL     1      35.630 -23.158  -9.460  0.00  0.00    -0.166 F 
ATOM     20  F   UNL     1      33.933 -23.161 -10.821  0.00  0.00    -0.166 F 
ATOM     21  C   UNL     1      35.040 -23.874 -10.463  0.00  0.00    +0.419 C 
ENDBRANCH  13  21
ENDBRANCH   5  12
BRANCH   6  22
ATOM     22  C   UNL     1      34.064 -19.339 -21.166  0.00  0.00    +0.056 C 
BRANCH  22  23
ATOM     23  C   UNL     1      35.106 -18.225 -21.262  0.00  0.00    +0.093 C 
BRANCH  23  25
ATOM     24  S   UNL     1      33.185 -14.087 -20.418  0.00  0.00    -0.101 S 
ATOM     25  N   UNL     1      34.503 -16.941 -21.069  0.00  0.00    -0.320 N 
ATOM     26  N   UNL     1      34.126 -16.610 -23.395  0.00  0.00    -0.233 NA
ATOM     27  N   UNL     1      33.078 -14.609 -24.265  0.00  0.00    -0.247 NA
ATOM     28  C   UNL     1      34.023 -16.153 -22.131  0.00  0.00    +0.118 C 
ATOM     29  C   UNL     1      33.444 -14.911 -21.901  0.00  0.00    +0.145 C 
ATOM     30  C   UNL     1      32.983 -14.164 -22.985  0.00  0.00    +0.073 C 
ATOM     31  C   UNL     1      32.419 -12.919 -22.572  0.00  0.00    +0.022 C 
ATOM     32  C   UNL     1      32.466 -12.752 -21.207  0.00  0.00    +0.033 C 
ATOM     33  C   UNL     1      33.651 -15.818 -24.376  0.00  0.00    +0.251 C 
ATOM     34  H   UNL     1      34.422 -16.593 -20.152  0.00  0.00    +0.148 HD
ENDBRANCH  23  25
ENDBRANCH  22  23
ENDBRANCH   6  22
TORSDOF 5
ENDMDL
MODEL 2
REMARK VINA RESULT:     -11.5      1.183      1.568
REMARK  Name = 24880024
REMARK  5 active torsions:
REMARK  status: ('A' for Active; 'I' for Inactive)
REMARK    1  A    between atoms: N_5  and  C_12
REMARK    2  A    between atoms: C_6  and  C_22
REMARK    3  A    between atoms: C_13  and  C_21
REMARK    4  A    between atoms: C_22  and  C_23
REMARK    5  A    between atoms: C_23  and  N_25
REMARK                            x       y       z     vdW  Elec       q    Type
REMARK                         _______ _______ _______ _____ _____    ______ ____
ROOT
ATOM      1  S   UNL     1      35.685 -20.288 -19.149  0.00  0.00    -0.056 S 
ATOM      2  O   UNL     1      34.348 -23.022 -15.608  0.00  0.00    -0.252 OA
ATOM      3  N   UNL     1      33.660 -21.511 -18.106  0.00  0.00    -0.223 NA
ATOM      4  N   UNL     1      35.770 -21.736 -16.966  0.00  0.00    -0.248 N 
ATOM      5  N   UNL     1      36.613 -22.802 -15.067  0.00  0.00    -0.268 N 
ATOM      6  C   UNL     1      34.170 -20.150 -19.940  0.00  0.00    +0.031 C 
ATOM      7  C   UNL     1      33.217 -20.863 -19.242  0.00  0.00    +0.103 C 
ATOM      8  C   UNL     1      34.946 -21.279 -17.959  0.00  0.00    +0.166 C 
ATOM      9  C   UNL     1      35.465 -22.574 -15.844  0.00  0.00    +0.310 C 
ATOM     10  H   UNL     1      36.710 -21.448 -17.032  0.00  0.00    +0.158 HD
ATOM     11  H   UNL     1      37.441 -22.375 -15.384  0.00  0.00    +0.156 HD
ENDROOT
BRANCH   5  12
ATOM     12  C   UNL     1      36.725 -23.573 -13.886  0.00  0.00    +0.052 C 
ATOM     13  C   UNL     1      36.000 -24.073 -11.637  0.00  0.00    +0.073 C 
ATOM     14  C   UNL     1      35.890 -23.313 -12.801  0.00  0.00    +0.019 C 
ATOM     15  C   UNL     1      37.671 -24.595 -13.809  0.00  0.00    +0.015 C 
ATOM     16  C   UNL     1      36.947 -25.095 -11.559  0.00  0.00    +0.004 C 
ATOM     17  C   UNL     1      37.782 -25.356 -12.645  0.00  0.00    +0.001 C 
BRANCH  13  21
ATOM     18  F   UNL     1      34.715 -24.918  -9.805  0.00  0.00    -0.166 F 
ATOM     19  F   UNL     1      35.679 -22.995  -9.526  0.00  0.00    -0.166 F 
ATOM     20  F   UNL     1      33.954 -23.164 -10.839  0.00  0.00    -0.166 F 
ATOM     21  C   UNL     1      35.107 -23.795 -10.475  0.00  0.00    +0.419 C 
ENDBRANCH  13  21
ENDBRANCH   5  12
BRANCH   6  22
ATOM     22  C   UNL     1      34.036 -19.338 -21.205  0.00  0.00    +0.056 C 
BRANCH  22  23
ATOM     23  C   UNL     1      34.795 -18.013 -21.150  0.00  0.00    +0.093 C 
BRANCH  23  25
ATOM     24  S   UNL     1      33.235 -15.207 -24.500  0.00  0.00    -0.101 S 
ATOM     25  N   UNL     1      34.303 -17.099 -22.136  0.00  0.00    -0.320 N 
ATOM     26  N   UNL     1      33.891 -15.379 -20.544  0.00  0.00    -0.233 NA
ATOM     27  N   UNL     1      32.983 -13.225 -21.169  0.00  0.00    -0.247 NA
ATOM     28  C   UNL     1      33.859 -15.801 -21.823  0.00  0.00    +0.118 C 
ATOM     29  C   UNL     1      33.388 -14.943 -22.811  0.00  0.00    +0.145 C 
ATOM     30  C   UNL     1      32.957 -13.666 -22.455  0.00  0.00    +0.073 C 
ATOM     31  C   UNL     1      32.507 -12.921 -23.586  0.00  0.00    +0.022 C 
ATOM     32  C   UNL     1      32.604 -13.640 -24.756  0.00  0.00    +0.033 C 
ATOM     33  C   UNL     1      33.455 -14.129 -20.297  0.00  0.00    +0.251 C 
ATOM     34  H   UNL     1      34.272 -17.392 -23.075  0.00  0.00    +0.148 HD
ENDBRANCH  23  25
ENDBRANCH  22  23
ENDBRANCH   6  22
TORSDOF 5
ENDMDL
MODEL 3
REMARK VINA RESULT:     -11.4      5.054      7.990
REMARK  Name = 24880024
REMARK  5 active torsions:
REMARK  status: ('A' for Active; 'I' for Inactive)
REMARK    1  A    between atoms: N_5  and  C_12
REMARK    2  A    between atoms: C_6  and  C_22
REMARK    3  A    between atoms: C_13  and  C_21
REMARK    4  A    between atoms: C_22  and  C_23
REMARK    5  A    between atoms: C_23  and  N_25
REMARK                            x       y       z     vdW  Elec       q    Type
REMARK                         _______ _______ _______ _____ _____    ______ ____
ROOT
ATOM      1  S   UNL     1      33.130 -14.769 -24.274  0.00  0.00    -0.056 S 
ATOM      2  O   UNL     1      34.341 -16.462 -20.095  0.00  0.00    -0.252 OA
ATOM      3  N   UNL     1      33.716 -14.108 -21.845  0.00  0.00    -0.223 NA
ATOM      4  N   UNL     1      33.751 -16.459 -22.369  0.00  0.00    -0.248 N 
ATOM      5  N   UNL     1      34.180 -18.476 -21.275  0.00  0.00    -0.268 N 
ATOM      6  C   UNL     1      33.110 -13.103 -23.869  0.00  0.00    +0.031 C 
ATOM      7  C   UNL     1      33.448 -12.946 -22.541  0.00  0.00    +0.103 C 
ATOM      8  C   UNL     1      33.580 -15.132 -22.658  0.00  0.00    +0.166 C 
ATOM      9  C   UNL     1      34.117 -17.080 -21.131  0.00  0.00    +0.310 C 
ATOM     10  H   UNL     1      33.601 -17.077 -23.121  0.00  0.00    +0.158 HD
ATOM     11  H   UNL     1      33.973 -18.828 -22.170  0.00  0.00    +0.156 HD
ENDROOT
BRANCH   5  12
ATOM     12  C   UNL     1      34.504 -19.438 -20.289  0.00  0.00    +0.052 C 
ATOM     13  C   UNL     1      33.814 -21.137 -18.717  0.00  0.00    +0.073 C 
ATOM     14  C   UNL     1      33.494 -20.188 -19.687  0.00  0.00    +0.019 C 
ATOM     15  C   UNL     1      35.835 -19.638 -19.921  0.00  0.00    +0.015 C 
ATOM     16  C   UNL     1      35.144 -21.337 -18.348  0.00  0.00    +0.004 C 
ATOM     17  C   UNL     1      36.155 -20.587 -18.951  0.00  0.00    +0.001 C 
BRANCH  13  21
ATOM     18  F   UNL     1      32.985 -22.245 -16.765  0.00  0.00    -0.166 F 
ATOM     19  F   UNL     1      31.519 -21.314 -18.065  0.00  0.00    -0.166 F 
ATOM     20  F   UNL     1      32.527 -23.136 -18.694  0.00  0.00    -0.166 F 
ATOM     21  C   UNL     1      32.734 -21.939 -18.072  0.00  0.00    +0.419 C 
ENDBRANCH  13  21
ENDBRANCH   5  12
BRANCH   6  22
ATOM     22  C   UNL     1      32.759 -12.065 -24.907  0.00  0.00    +0.056 C 
BRANCH  22  23
ATOM     23  C   UNL     1      33.426 -10.713 -24.653  0.00  0.00    +0.093 C 
BRANCH  23  25
ATOM     24  S   UNL     1      31.161  -8.595 -21.202  0.00  0.00    -0.101 S 
ATOM     25  N   UNL     1      32.757 -10.001 -23.606  0.00  0.00    -0.320 N 
ATOM     26  N   UNL     1      33.781  -7.927 -24.169  0.00  0.00    -0.233 NA
ATOM     27  N   UNL     1      33.330  -5.887 -22.948  0.00  0.00    -0.247 NA
ATOM     28  C   UNL     1      32.942  -8.625 -23.378  0.00  0.00    +0.118 C 
ATOM     29  C   UNL     1      32.274  -7.970 -22.350  0.00  0.00    +0.145 C 
ATOM     30  C   UNL     1      32.487  -6.605 -22.160  0.00  0.00    +0.073 C 
ATOM     31  C   UNL     1      31.726  -6.094 -21.066  0.00  0.00    +0.022 C 
ATOM     32  C   UNL     1      30.964  -7.067 -20.461  0.00  0.00    +0.033 C 
ATOM     33  C   UNL     1      33.923  -6.614 -23.909  0.00  0.00    +0.251 C 
ATOM     34  H   UNL     1      32.142 -10.496 -23.019  0.00  0.00    +0.148 HD
ENDBRANCH  23  25
ENDBRANCH  22  23
ENDBRANCH   6  22
TORSDOF 5
ENDMDL
MODEL 4
REMARK VINA RESULT:     -11.2      3.712      4.346
REMARK  Name = 24880024
REMARK  5 active torsions:
REMARK  status: ('A' for Active; 'I' for Inactive)
REMARK    1  A    between atoms: N_5  and  C_12
REMARK    2  A    between atoms: C_6  and  C_22
REMARK    3  A    between atoms: C_13  and  C_21
REMARK    4  A    between atoms: C_22  and  C_23
REMARK    5  A    between atoms: C_23  and  N_25
REMARK                            x       y       z     vdW  Elec       q    Type
REMARK                         _______ _______ _______ _____ _____    ______ ____
ROOT
ATOM      1  S   UNL     1      35.271 -20.484 -19.234  0.00  0.00    -0.056 S 
ATOM      2  O   UNL     1      31.225 -21.891 -17.375  0.00  0.00    -0.252 OA
ATOM      3  N   UNL     1      32.702 -20.393 -19.514  0.00  0.00    -0.223 NA
ATOM      4  N   UNL     1      33.546 -21.630 -17.626  0.00  0.00    -0.248 N 
ATOM      5  N   UNL     1      32.694 -22.867 -15.839  0.00  0.00    -0.268 N 
ATOM      6  C   UNL     1      34.639 -19.615 -20.570  0.00  0.00    +0.031 C 
ATOM      7  C   UNL     1      33.262 -19.677 -20.553  0.00  0.00    +0.103 C 
ATOM      8  C   UNL     1      33.667 -20.865 -18.755  0.00  0.00    +0.166 C 
ATOM      9  C   UNL     1      32.364 -22.114 -16.977  0.00  0.00    +0.310 C 
ATOM     10  H   UNL     1      34.396 -21.885 -17.197  0.00  0.00    +0.158 HD
ATOM     11  H   UNL     1      33.655 -22.960 -15.646  0.00  0.00    +0.156 HD
ENDROOT
BRANCH   5  12
ATOM     12  C   UNL     1      31.815 -23.511 -14.937  0.00  0.00    +0.052 C 
ATOM     13  C   UNL     1      29.582 -24.195 -14.319  0.00  0.00    +0.073 C 
ATOM     14  C   UNL     1      30.448 -23.559 -15.208  0.00  0.00    +0.019 C 
ATOM     15  C   UNL     1      32.316 -24.099 -13.776  0.00  0.00    +0.015 C 
ATOM     16  C   UNL     1      30.083 -24.783 -13.157  0.00  0.00    +0.004 C 
ATOM     17  C   UNL     1      31.451 -24.735 -12.886  0.00  0.00    +0.001 C 
BRANCH  13  21
ATOM     18  F   UNL     1      27.826 -24.655 -15.877  0.00  0.00    -0.166 F 
ATOM     19  F   UNL     1      27.431 -25.098 -13.791  0.00  0.00    -0.166 F 
ATOM     20  F   UNL     1      27.513 -23.032 -14.465  0.00  0.00    -0.166 F 
ATOM     21  C   UNL     1      28.120 -24.246 -14.608  0.00  0.00    +0.419 C 
ENDBRANCH  13  21
ENDBRANCH   5  12
BRANCH   6  22
ATOM     22  C   UNL     1      35.564 -18.929 -21.546  0.00  0.00    +0.056 C 
BRANCH  22  23
ATOM     23  C   UNL     1      34.825 -18.064 -22.567  0.00  0.00    +0.093 C 
BRANCH  23  25
ATOM     24  S   UNL     1      33.317 -14.243 -20.410  0.00  0.00    -0.101 S 
ATOM     25  N   UNL     1      34.337 -16.862 -21.962  0.00  0.00    -0.320 N 
ATOM     26  N   UNL     1      33.529 -15.983 -24.021  0.00  0.00    -0.233 NA
ATOM     27  N   UNL     1      32.435 -13.831 -24.170  0.00  0.00    -0.247 NA
ATOM     28  C   UNL     1      33.699 -15.842 -22.692  0.00  0.00    +0.118 C 
ATOM     29  C   UNL     1      33.239 -14.689 -22.066  0.00  0.00    +0.145 C 
ATOM     30  C   UNL     1      32.613 -13.704 -22.829  0.00  0.00    +0.073 C 
ATOM     31  C   UNL     1      32.205 -12.592 -22.032  0.00  0.00    +0.022 C 
ATOM     32  C   UNL     1      32.526 -12.757 -20.704  0.00  0.00    +0.033 C 
ATOM     33  C   UNL     1      32.914 -14.980 -24.673  0.00  0.00    +0.251 C 
ATOM     34  H   UNL     1      34.454 -16.743 -20.992  0.00  0.00    +0.148 HD
ENDBRANCH  23  25
ENDBRANCH  22  23
ENDBRANCH   6  22
TORSDOF 5
ENDMDL
MODEL 5
REMARK VINA RESULT:     -11.2      5.354     11.694
REMARK  Name = 24880024
REMARK  5 active torsions:
REMARK  status: ('A' for Active; 'I' for Inactive)
REMARK    1  A    between atoms: N_5  and  C_12
REMARK    2  A    between atoms: C_6  and  C_22
REMARK    3  A    between atoms: C_13  and  C_21
REMARK    4  A    between atoms: C_22  and  C_23
REMARK    5  A    between atoms: C_23  and  N_25
REMARK                            x       y       z     vdW  Elec       q    Type
REMARK                         _______ _______ _______ _____ _____    ______ ____
ROOT
ATOM      1  S   UNL     1      33.266 -22.779 -16.037  0.00  0.00    -0.056 S 
ATOM      2  O   UNL     1      31.580 -20.259 -19.587  0.00  0.00    -0.252 OA
ATOM      3  N   UNL     1      31.089 -21.968 -17.172  0.00  0.00    -0.223 NA
ATOM      4  N   UNL     1      33.164 -21.268 -18.176  0.00  0.00    -0.248 N 
ATOM      5  N   UNL     1      33.867 -19.982 -19.994  0.00  0.00    -0.268 N 
ATOM      6  C   UNL     1      31.773 -23.258 -15.343  0.00  0.00    +0.031 C 
ATOM      7  C   UNL     1      30.732 -22.735 -16.081  0.00  0.00    +0.103 C 
ATOM      8  C   UNL     1      32.401 -21.922 -17.247  0.00  0.00    +0.166 C 
ATOM      9  C   UNL     1      32.752 -20.473 -19.295  0.00  0.00    +0.310 C 
ATOM     10  H   UNL     1      34.138 -21.355 -18.060  0.00  0.00    +0.158 HD
ATOM     11  H   UNL     1      34.747 -20.238 -19.638  0.00  0.00    +0.156 HD
ENDROOT
BRANCH   5  12
ATOM     12  C   UNL     1      33.879 -19.163 -21.148  0.00  0.00    +0.052 C 
ATOM     13  C   UNL     1      33.906 -16.967 -22.155  0.00  0.00    +0.073 C 
ATOM     14  C   UNL     1      33.893 -17.774 -21.018  0.00  0.00    +0.019 C 
ATOM     15  C   UNL     1      33.877 -19.744 -22.415  0.00  0.00    +0.015 C 
ATOM     16  C   UNL     1      33.904 -17.548 -23.423  0.00  0.00    +0.004 C 
ATOM     17  C   UNL     1      33.890 -18.937 -23.553  0.00  0.00    +0.001 C 
BRANCH  13  21
ATOM     18  F   UNL     1      34.872 -14.870 -22.781  0.00  0.00    -0.166 F 
ATOM     19  F   UNL     1      32.742 -14.888 -22.372  0.00  0.00    -0.166 F 
ATOM     20  F   UNL     1      34.163 -15.076 -20.736  0.00  0.00    -0.166 F 
ATOM     21  C   UNL     1      33.921 -15.482 -22.017  0.00  0.00    +0.419 C 
ENDBRANCH  13  21
ENDBRANCH   5  12
BRANCH   6  22
ATOM     22  C   UNL     1      31.744 -24.125 -14.108  0.00  0.00    +0.056 C 
BRANCH  22  23
ATOM     23  C   UNL     1      32.779 -23.714 -13.062  0.00  0.00    +0.093 C 
BRANCH  23  25
ATOM     24  S   UNL     1      36.781 -25.835 -14.067  0.00  0.00    -0.101 S 
ATOM     25  N   UNL     1      34.043 -24.333 -13.322  0.00  0.00    -0.320 N 
ATOM     26  N   UNL     1      35.152 -23.122 -11.598  0.00  0.00    -0.233 NA
ATOM     27  N   UNL     1      37.506 -23.410 -11.121  0.00  0.00    -0.247 NA
ATOM     28  C   UNL     1      35.208 -24.031 -12.591  0.00  0.00    +0.118 C 
ATOM     29  C   UNL     1      36.417 -24.655 -12.875  0.00  0.00    +0.145 C 
ATOM     30  C   UNL     1      37.546 -24.324 -12.126  0.00  0.00    +0.073 C 
ATOM     31  C   UNL     1      38.698 -25.054 -12.548  0.00  0.00    +0.022 C 
ATOM     32  C   UNL     1      38.421 -25.907 -13.592  0.00  0.00    +0.033 C 
ATOM     33  C   UNL     1      36.292 -22.869 -10.930  0.00  0.00    +0.251 C 
ATOM     34  H   UNL     1      34.101 -24.998 -14.044  0.00  0.00    +0.148 HD
ENDBRANCH  23  25
ENDBRANCH  22  23
ENDBRANCH   6  22
TORSDOF 5
ENDMDL
MODEL 6
REMARK VINA RESULT:     -11.1      5.925     11.595
REMARK  Name = 24880024
REMARK  5 active torsions:
REMARK  status: ('A' for Active; 'I' for Inactive)
REMARK    1  A    between atoms: N_5  and  C_12
REMARK    2  A    between atoms: C_6  and  C_22
REMARK    3  A    between atoms: C_13  and  C_21
REMARK    4  A    between atoms: C_22  and  C_23
REMARK    5  A    between atoms: C_23  and  N_25
REMARK                            x       y       z     vdW  Elec       q    Type
REMARK                         _______ _______ _______ _____ _____    ______ ____
ROOT
ATOM      1  S   UNL     1      32.717 -23.333 -15.444  0.00  0.00    -0.056 S 
ATOM      2  O   UNL     1      32.118 -20.461 -19.077  0.00  0.00    -0.252 OA
ATOM      3  N   UNL     1      30.938 -22.111 -16.867  0.00  0.00    -0.223 NA
ATOM      4  N   UNL     1      33.242 -21.776 -17.487  0.00  0.00    -0.248 N 
ATOM      5  N   UNL     1      34.453 -20.596 -19.097  0.00  0.00    -0.268 N 
ATOM      6  C   UNL     1      31.068 -23.548 -15.025  0.00  0.00    +0.031 C 
ATOM      7  C   UNL     1      30.273 -22.826 -15.891  0.00  0.00    +0.103 C 
ATOM      8  C   UNL     1      32.231 -22.303 -16.728  0.00  0.00    +0.166 C 
ATOM      9  C   UNL     1      33.169 -20.892 -18.612  0.00  0.00    +0.310 C 
ATOM     10  H   UNL     1      34.152 -22.043 -17.221  0.00  0.00    +0.158 HD
ATOM     11  H   UNL     1      35.203 -21.018 -18.618  0.00  0.00    +0.156 HD
ENDROOT
BRANCH   5  12
ATOM     12  C   UNL     1      34.802 -19.765 -20.187  0.00  0.00    +0.052 C 
ATOM     13  C   UNL     1      34.335 -18.905 -22.396  0.00  0.00    +0.073 C 
ATOM     14  C   UNL     1      33.991 -19.724 -21.321  0.00  0.00    +0.019 C 
ATOM     15  C   UNL     1      35.957 -18.985 -20.127  0.00  0.00    +0.015 C 
ATOM     16  C   UNL     1      35.490 -18.125 -22.336  0.00  0.00    +0.004 C 
ATOM     17  C   UNL     1      36.301 -18.164 -21.202  0.00  0.00    +0.001 C 
BRANCH  13  21
ATOM     18  F   UNL     1      33.689 -19.892 -24.477  0.00  0.00    -0.166 F 
ATOM     19  F   UNL     1      32.133 -18.911 -23.329  0.00  0.00    -0.166 F 
ATOM     20  F   UNL     1      33.647 -17.723 -24.341  0.00  0.00    -0.166 F 
ATOM     21  C   UNL     1      33.469 -18.861 -23.609  0.00  0.00    +0.419 C 
ENDBRANCH  13  21
ENDBRANCH   5  12
BRANCH   6  22
ATOM     22  C   UNL     1      30.681 -24.425 -13.860  0.00  0.00    +0.056 C 
BRANCH  22  23
ATOM     23  C   UNL     1      31.627 -24.292 -12.668  0.00  0.00    +0.093 C 
BRANCH  23  25
ATOM     24  S   UNL     1      35.876 -25.555 -14.038  0.00  0.00    -0.101 S 
ATOM     25  N   UNL     1      32.962 -24.662 -13.029  0.00  0.00    -0.320 N 
ATOM     26  N   UNL     1      33.872 -23.979 -10.938  0.00  0.00    -0.233 NA
ATOM     27  N   UNL     1      36.229 -24.170 -10.426  0.00  0.00    -0.247 NA
ATOM     28  C   UNL     1      34.062 -24.501 -12.166  0.00  0.00    +0.118 C 
ATOM     29  C   UNL     1      35.343 -24.873 -12.556  0.00  0.00    +0.145 C 
ATOM     30  C   UNL     1      36.404 -24.696 -11.668  0.00  0.00    +0.073 C 
ATOM     31  C   UNL     1      37.644 -25.128 -12.226  0.00  0.00    +0.022 C 
ATOM     32  C   UNL     1      37.499 -25.615 -13.505  0.00  0.00    +0.033 C 
ATOM     33  C   UNL     1      34.955 -23.846 -10.151  0.00  0.00    +0.251 C 
ATOM     34  H   UNL     1      33.118 -25.044 -13.923  0.00  0.00    +0.148 HD
ENDBRANCH  23  25
ENDBRANCH  22  23
ENDBRANCH   6  22
TORSDOF 5
ENDMDL
MODEL 7
REMARK VINA RESULT:     -11.0      8.281     14.317
REMARK  Name = 24880024
REMARK  5 active torsions:
REMARK  status: ('A' for Active; 'I' for Inactive)
REMARK    1  A    between atoms: N_5  and  C_12
REMARK    2  A    between atoms: C_6  and  C_22
REMARK    3  A    between atoms: C_13  and  C_21
REMARK    4  A    between atoms: C_22  and  C_23
REMARK    5  A    between atoms: C_23  and  N_25
REMARK                            x       y       z     vdW  Elec       q    Type
REMARK                         _______ _______ _______ _____ _____    ______ ____
ROOT
ATOM      1  S   UNL     1      33.679 -14.248 -22.784  0.00  0.00    -0.056 S 
ATOM      2  O   UNL     1      32.489 -10.222 -24.829  0.00  0.00    -0.252 OA
ATOM      3  N   UNL     1      32.596 -13.219 -24.894  0.00  0.00    -0.223 NA
ATOM      4  N   UNL     1      33.358 -11.681 -23.204  0.00  0.00    -0.248 N 
ATOM      5  N   UNL     1      33.421  -9.373 -22.858  0.00  0.00    -0.268 N 
ATOM      6  C   UNL     1      33.123 -15.318 -24.004  0.00  0.00    +0.031 C 
ATOM      7  C   UNL     1      32.582 -14.592 -25.044  0.00  0.00    +0.103 C 
ATOM      8  C   UNL     1      33.152 -12.924 -23.740  0.00  0.00    +0.166 C 
ATOM      9  C   UNL     1      33.033 -10.393 -23.742  0.00  0.00    +0.310 C 
ATOM     10  H   UNL     1      33.793 -11.669 -22.321  0.00  0.00    +0.158 HD
ATOM     11  H   UNL     1      33.847  -9.665 -22.021  0.00  0.00    +0.156 HD
ENDROOT
BRANCH   5  12
ATOM     12  C   UNL     1      33.273  -7.975 -23.024  0.00  0.00    +0.052 C 
ATOM     13  C   UNL     1      32.254  -5.886 -22.365  0.00  0.00    +0.073 C 
ATOM     14  C   UNL     1      32.399  -7.264 -22.202  0.00  0.00    +0.019 C 
ATOM     15  C   UNL     1      34.002  -7.309 -24.008  0.00  0.00    +0.015 C 
ATOM     16  C   UNL     1      32.983  -5.220 -23.350  0.00  0.00    +0.004 C 
ATOM     17  C   UNL     1      33.858  -5.931 -24.171  0.00  0.00    +0.001 C 
BRANCH  13  21
ATOM     18  F   UNL     1      30.046  -5.617 -21.484  0.00  0.00    -0.166 F 
ATOM     19  F   UNL     1      31.697  -5.105 -20.174  0.00  0.00    -0.166 F 
ATOM     20  F   UNL     1      31.204  -3.815 -21.854  0.00  0.00    -0.166 F 
ATOM     21  C   UNL     1      31.319  -5.124 -21.487  0.00  0.00    +0.419 C 
ENDBRANCH  13  21
ENDBRANCH   5  12
BRANCH   6  22
ATOM     22  C   UNL     1      33.267 -16.811 -23.839  0.00  0.00    +0.056 C 
BRANCH  22  23
ATOM     23  C   UNL     1      34.213 -17.201 -22.703  0.00  0.00    +0.093 C 
BRANCH  23  25
ATOM     24  S   UNL     1      32.025 -20.237 -19.961  0.00  0.00    -0.101 S 
ATOM     25  N   UNL     1      33.598 -18.152 -21.828  0.00  0.00    -0.320 N 
ATOM     26  N   UNL     1      35.654 -18.725 -20.773  0.00  0.00    -0.233 NA
ATOM     27  N   UNL     1      35.787 -20.368 -19.003  0.00  0.00    -0.247 NA
ATOM     28  C   UNL     1      34.321 -18.899 -20.879  0.00  0.00    +0.118 C 
ATOM     29  C   UNL     1      33.686 -19.813 -20.047  0.00  0.00    +0.145 C 
ATOM     30  C   UNL     1      34.443 -20.532 -19.122  0.00  0.00    +0.073 C 
ATOM     31  C   UNL     1      33.636 -21.423 -18.352  0.00  0.00    +0.022 C 
ATOM     32  C   UNL     1      32.308 -21.362 -18.706  0.00  0.00    +0.033 C 
ATOM     33  C   UNL     1      36.299 -19.462 -19.851  0.00  0.00    +0.251 C 
ATOM     34  H   UNL     1      32.626 -18.291 -21.894  0.00  0.00    +0.148 HD
ENDBRANCH  23  25
ENDBRANCH  22  23
ENDBRANCH   6  22
TORSDOF 5
ENDMDL
MODEL 8
REMARK VINA RESULT:     -10.9      2.428      3.182
REMARK  Name = 24880024
REMARK  5 active torsions:
REMARK  status: ('A' for Active; 'I' for Inactive)
REMARK    1  A    between atoms: N_5  and  C_12
REMARK    2  A    between atoms: C_6  and  C_22
REMARK    3  A    between atoms: C_13  and  C_21
REMARK    4  A    between atoms: C_22  and  C_23
REMARK    5  A    between atoms: C_23  and  N_25
REMARK                            x       y       z     vdW  Elec       q    Type
REMARK                         _______ _______ _______ _____ _____    ______ ____
ROOT
ATOM      1  S   UNL     1      35.921 -18.742 -20.396  0.00  0.00    -0.056 S 
ATOM      2  O   UNL     1      34.193 -21.996 -17.528  0.00  0.00    -0.252 OA
ATOM      3  N   UNL     1      33.920 -20.334 -20.010  0.00  0.00    -0.223 NA
ATOM      4  N   UNL     1      35.686 -20.391 -18.372  0.00  0.00    -0.248 N 
ATOM      5  N   UNL     1      36.186 -21.530 -16.396  0.00  0.00    -0.268 N 
ATOM      6  C   UNL     1      34.649 -18.727 -21.547  0.00  0.00    +0.031 C 
ATOM      7  C   UNL     1      33.678 -19.633 -21.175  0.00  0.00    +0.103 C 
ATOM      8  C   UNL     1      35.074 -19.946 -19.513  0.00  0.00    +0.166 C 
ATOM      9  C   UNL     1      35.247 -21.378 -17.430  0.00  0.00    +0.310 C 
ATOM     10  H   UNL     1      36.554 -19.973 -18.168  0.00  0.00    +0.158 HD
ATOM     11  H   UNL     1      36.988 -20.962 -16.453  0.00  0.00    +0.156 HD
ENDROOT
BRANCH   5  12
ATOM     12  C   UNL     1      36.120 -22.401 -15.283  0.00  0.00    +0.052 C 
ATOM     13  C   UNL     1      37.123 -24.111 -13.902  0.00  0.00    +0.073 C 
ATOM     14  C   UNL     1      37.187 -23.253 -14.999  0.00  0.00    +0.019 C 
ATOM     15  C   UNL     1      34.988 -22.407 -14.468  0.00  0.00    +0.015 C 
ATOM     16  C   UNL     1      35.991 -24.116 -13.087  0.00  0.00    +0.004 C 
ATOM     17  C   UNL     1      34.923 -23.264 -13.370  0.00  0.00    +0.001 C 
BRANCH  13  21
ATOM     18  F   UNL     1      38.021 -26.328 -13.915  0.00  0.00    -0.166 F 
ATOM     19  F   UNL     1      39.412 -24.701 -14.265  0.00  0.00    -0.166 F 
ATOM     20  F   UNL     1      38.597 -25.023 -12.274  0.00  0.00    -0.166 F 
ATOM     21  C   UNL     1      38.264 -25.022 -13.598  0.00  0.00    +0.419 C 
ENDBRANCH  13  21
ENDBRANCH   5  12
BRANCH   6  22
ATOM     22  C   UNL     1      34.708 -17.809 -22.744  0.00  0.00    +0.056 C 
BRANCH  22  23
ATOM     23  C   UNL     1      33.383 -17.725 -23.500  0.00  0.00    +0.093 C 
BRANCH  23  25
ATOM     24  S   UNL     1      32.767 -13.616 -25.565  0.00  0.00    -0.101 S 
ATOM     25  N   UNL     1      33.204 -16.427 -24.077  0.00  0.00    -0.320 N 
ATOM     26  N   UNL     1      33.565 -15.302 -22.011  0.00  0.00    -0.233 NA
ATOM     27  N   UNL     1      33.485 -12.891 -21.818  0.00  0.00    -0.247 NA
ATOM     28  C   UNL     1      33.296 -15.238 -23.330  0.00  0.00    +0.118 C 
ATOM     29  C   UNL     1      33.115 -13.996 -23.928  0.00  0.00    +0.145 C 
ATOM     30  C   UNL     1      33.215 -12.844 -23.149  0.00  0.00    +0.073 C 
ATOM     31  C   UNL     1      33.003 -11.661 -23.919  0.00  0.00    +0.022 C 
ATOM     32  C   UNL     1      32.750 -11.938 -25.242  0.00  0.00    +0.033 C 
ATOM     33  C   UNL     1      33.643 -14.136 -21.342  0.00  0.00    +0.251 C 
ATOM     34  H   UNL     1      33.006 -16.363 -25.039  0.00  0.00    +0.148 HD
ENDBRANCH  23  25
ENDBRANCH  22  23
ENDBRANCH   6  22
TORSDOF 5
ENDMDL
MODEL 9
REMARK VINA RESULT:     -10.9      5.231      8.346
REMARK  Name = 24880024
REMARK  5 active torsions:
REMARK  status: ('A' for Active; 'I' for Inactive)
REMARK    1  A    between atoms: N_5  and  C_12
REMARK    2  A    between atoms: C_6  and  C_22
REMARK    3  A    between atoms: C_13  and  C_21
REMARK    4  A    between atoms: C_22  and  C_23
REMARK    5  A    between atoms: C_23  and  N_25
REMARK                            x       y       z     vdW  Elec       q    Type
REMARK                         _______ _______ _______ _____ _____    ______ ____
ROOT
ATOM      1  S   UNL     1      33.273 -14.231 -24.127  0.00  0.00    -0.056 S 
ATOM      2  O   UNL     1      34.186 -16.209 -19.997  0.00  0.00    -0.252 OA
ATOM      3  N   UNL     1      33.586 -13.750 -21.606  0.00  0.00    -0.223 NA
ATOM      4  N   UNL     1      33.814 -16.042 -22.311  0.00  0.00    -0.248 N 
ATOM      5  N   UNL     1      34.262 -18.120 -21.344  0.00  0.00    -0.268 N 
ATOM      6  C   UNL     1      33.112 -12.609 -23.593  0.00  0.00    +0.031 C 
ATOM      7  C   UNL     1      33.313 -12.549 -22.230  0.00  0.00    +0.103 C 
ATOM      8  C   UNL     1      33.590 -14.706 -22.508  0.00  0.00    +0.166 C 
ATOM      9  C   UNL     1      34.099 -16.747 -21.096  0.00  0.00    +0.310 C 
ATOM     10  H   UNL     1      33.774 -16.601 -23.121  0.00  0.00    +0.158 HD
ATOM     11  H   UNL     1      34.162 -18.404 -22.281  0.00  0.00    +0.156 HD
ENDROOT
BRANCH   5  12
ATOM     12  C   UNL     1      34.550 -19.144 -20.412  0.00  0.00    +0.052 C 
ATOM     13  C   UNL     1      33.798 -20.904 -18.938  0.00  0.00    +0.073 C 
ATOM     14  C   UNL     1      33.513 -19.894 -19.856  0.00  0.00    +0.019 C 
ATOM     15  C   UNL     1      35.871 -19.405 -20.050  0.00  0.00    +0.015 C 
ATOM     16  C   UNL     1      35.119 -21.165 -18.576  0.00  0.00    +0.004 C 
ATOM     17  C   UNL     1      36.156 -20.416 -19.132  0.00  0.00    +0.001 C 
BRANCH  13  21
ATOM     18  F   UNL     1      31.515 -21.020 -18.232  0.00  0.00    -0.166 F 
ATOM     19  F   UNL     1      32.381 -22.828 -19.060  0.00  0.00    -0.166 F 
ATOM     20  F   UNL     1      32.978 -22.145 -17.083  0.00  0.00    -0.166 F 
ATOM     21  C   UNL     1      32.690 -21.706 -18.343  0.00  0.00    +0.419 C 
ENDBRANCH  13  21
ENDBRANCH   5  12
BRANCH   6  22
ATOM     22  C   UNL     1      32.798 -11.506 -24.574  0.00  0.00    +0.056 C 
BRANCH  22  23
ATOM     23  C   UNL     1      33.658 -10.259 -24.371  0.00  0.00    +0.093 C 
BRANCH  23  25
ATOM     24  S   UNL     1      31.172  -6.386 -24.954  0.00  0.00    -0.101 S 
ATOM     25  N   UNL     1      32.870  -9.069 -24.486  0.00  0.00    -0.320 N 
ATOM     26  N   UNL     1      32.099  -9.191 -22.237  0.00  0.00    -0.233 NA
ATOM     27  N   UNL     1      30.592  -7.549 -21.294  0.00  0.00    -0.247 NA
ATOM     28  C   UNL     1      32.105  -8.553 -23.424  0.00  0.00    +0.118 C 
ATOM     29  C   UNL     1      31.353  -7.393 -23.577  0.00  0.00    +0.145 C 
ATOM     30  C   UNL     1      30.608  -6.918 -22.498  0.00  0.00    +0.073 C 
ATOM     31  C   UNL     1      29.899  -5.723 -22.826  0.00  0.00    +0.022 C 
ATOM     32  C   UNL     1      30.116  -5.328 -24.125  0.00  0.00    +0.033 C 
ATOM     33  C   UNL     1      31.351  -8.656 -21.254  0.00  0.00    +0.251 C 
ATOM     34  H   UNL     1      32.863  -8.592 -25.346  0.00  0.00    +0.148 HD
ENDBRANCH  23  25
ENDBRANCH  22  23
ENDBRANCH   6  22
TORSDOF 5
ENDMDL
