MODEL 1
REMARK VINA RESULT:     -12.2      0.000      0.000
REMARK  Name = 447655
REMARK  6 active torsions:
REMARK  status: ('A' for Active; 'I' for Inactive)
REMARK    1  A    between atoms: N_4  and  C_14
REMARK    2  A    between atoms: C_6  and  O_26
REMARK    3  A    between atoms: C_15  and  S_20
REMARK    4  A    between atoms: S_20  and  N_23
REMARK    5  A    between atoms: O_26  and  C_27
REMARK    6  A    between atoms: C_27  and  C_28
REMARK                            x       y       z     vdW  Elec       q    Type
REMARK                         _______ _______ _______ _____ _____    ______ ____
ROOT
ATOM      1  N   UNL     1      32.529 -23.554 -13.945  0.00  0.00    -0.293 NA
ATOM      2  N   UNL     1      29.125 -23.631 -15.334  0.00  0.00    -0.266 NA
ATOM      3  N   UNL     1      30.916 -24.756 -12.566  0.00  0.00    -0.316 NA
ATOM      4  N   UNL     1      33.155 -24.552 -11.921  0.00  0.00    -0.238 N 
ATOM      5  N   UNL     1      28.670 -24.802 -13.494  0.00  0.00    -0.296 N 
ATOM      6  C   UNL     1      31.588 -23.266 -14.871  0.00  0.00    +0.288 C 
ATOM      7  C   UNL     1      30.304 -23.721 -14.651  0.00  0.00    +0.215 C 
ATOM      8  C   UNL     1      29.995 -24.452 -13.512  0.00  0.00    +0.196 C 
ATOM      9  C   UNL     1      32.140 -24.272 -12.865  0.00  0.00    +0.207 C 
ATOM     10  C   UNL     1      28.175 -24.294 -14.602  0.00  0.00    +0.164 C 
ATOM     11  H   UNL     1      28.983 -23.176 -16.195  0.00  0.00    +0.126 HD
ATOM     12  H   UNL     1      32.845 -25.075 -11.147  0.00  0.00    +0.166 HD
ATOM     13  H   UNL     1      28.193 -25.319 -12.804  0.00  0.00    +0.150 HD
ENDROOT
BRANCH   4  14
ATOM     14  C   UNL     1      34.524 -24.228 -11.873  0.00  0.00    +0.060 C 
ATOM     15  C   UNL     1      36.789 -24.578 -12.646  0.00  0.00    +0.123 C 
ATOM     16  C   UNL     1      35.433 -24.899 -12.694  0.00  0.00    +0.035 C 
ATOM     17  C   UNL     1      34.978 -23.232 -11.004  0.00  0.00    +0.015 C 
ATOM     18  C   UNL     1      37.240 -23.583 -11.777  0.00  0.00    +0.020 C 
ATOM     19  C   UNL     1      36.334 -22.911 -10.956  0.00  0.00    +0.003 C 
BRANCH  15  20
ATOM     20  S   UNL     1      37.923 -25.417 -13.673  0.00  0.00    +0.057 S 
ATOM     21  O   UNL     1      39.061 -25.828 -12.863  0.00  0.00    -0.153 OA
ATOM     22  O   UNL     1      37.194 -26.409 -14.452  0.00  0.00    -0.153 OA
BRANCH  20  23
ATOM     23  N   UNL     1      38.415 -24.156 -14.716  0.00  0.00    -0.203 NA
ATOM     24  H   UNL     1      39.315 -23.790 -14.405  0.00  0.00    +0.144 HD
ATOM     25  H   UNL     1      37.720 -23.410 -14.697  0.00  0.00    +0.144 HD
ENDBRANCH  20  23
ENDBRANCH  15  20
ENDBRANCH   4  14
BRANCH   6  26
ATOM     26  O   UNL     1      31.949 -22.539 -15.979  0.00  0.00    -0.453 OA
BRANCH  26  27
ATOM     27  C   UNL     1      33.243 -22.767 -16.504  0.00  0.00    +0.208 C 
BRANCH  27  28
ATOM     28  C   UNL     1      33.301 -22.187 -17.916  0.00  0.00    +0.044 C 
ATOM     29  C   UNL     1      32.100 -21.268 -18.175  0.00  0.00    +0.004 C 
ATOM     30  C   UNL     1      34.620 -21.437 -18.140  0.00  0.00    +0.004 C 
ATOM     31  C   UNL     1      32.163 -20.634 -19.562  0.00  0.00    +0.000 C 
ATOM     32  C   UNL     1      34.680 -20.803 -19.527  0.00  0.00    +0.000 C 
ATOM     33  C   UNL     1      33.480 -19.897 -19.784  0.00  0.00    +0.000 C 
ENDBRANCH  27  28
ENDBRANCH  26  27
ENDBRANCH   6  26
TORSDOF 6
ENDMDL
MODEL 2
REMARK VINA RESULT:     -12.1      2.110      2.614
REMARK  Name = 447655
REMARK  6 active torsions:
REMARK  status: ('A' for Active; 'I' for Inactive)
REMARK    1  A    between atoms: N_4  and  C_14
REMARK    2  A    between atoms: C_6  and  O_26
REMARK    3  A    between atoms: C_15  and  S_20
REMARK    4  A    between atoms: S_20  and  N_23
REMARK    5  A    between atoms: O_26  and  C_27
REMARK    6  A    between atoms: C_27  and  C_28
REMARK                            x       y       z     vdW  Elec       q    Type
REMARK                         _______ _______ _______ _____ _____    ______ ____
ROOT
ATOM      1  N   UNL     1      31.508 -23.125 -15.078  0.00  0.00    -0.293 NA
ATOM      2  N   UNL     1      28.218 -22.167 -16.414  0.00  0.00    -0.266 NA
ATOM      3  N   UNL     1      29.639 -23.652 -13.601  0.00  0.00    -0.316 NA
ATOM      4  N   UNL     1      31.844 -24.153 -13.000  0.00  0.00    -0.238 N 
ATOM      5  N   UNL     1      27.470 -23.015 -14.494  0.00  0.00    -0.296 N 
ATOM      6  C   UNL     1      30.680 -22.600 -16.008  0.00  0.00    +0.288 C 
ATOM      7  C   UNL     1      29.326 -22.596 -15.742  0.00  0.00    +0.215 C 
ATOM      8  C   UNL     1      28.836 -23.119 -14.552  0.00  0.00    +0.196 C 
ATOM      9  C   UNL     1      30.943 -23.613 -13.947  0.00  0.00    +0.207 C 
ATOM     10  C   UNL     1      27.129 -22.438 -15.627  0.00  0.00    +0.164 C 
ATOM     11  H   UNL     1      28.203 -21.741 -17.301  0.00  0.00    +0.126 HD
ATOM     12  H   UNL     1      31.406 -24.500 -12.190  0.00  0.00    +0.166 HD
ATOM     13  H   UNL     1      26.874 -23.306 -13.765  0.00  0.00    +0.150 HD
ENDROOT
BRANCH   4  14
ATOM     14  C   UNL     1      33.243 -24.292 -12.992  0.00  0.00    +0.060 C 
ATOM     15  C   UNL     1      35.373 -24.005 -11.880  0.00  0.00    +0.123 C 
ATOM     16  C   UNL     1      33.985 -23.865 -11.888  0.00  0.00    +0.035 C 
ATOM     17  C   UNL     1      33.897 -24.862 -14.088  0.00  0.00    +0.015 C 
ATOM     18  C   UNL     1      36.023 -24.573 -12.976  0.00  0.00    +0.020 C 
ATOM     19  C   UNL     1      35.285 -25.001 -14.080  0.00  0.00    +0.003 C 
BRANCH  15  20
ATOM     20  S   UNL     1      36.297 -23.470 -10.499  0.00  0.00    +0.057 S 
ATOM     21  O   UNL     1      37.495 -24.292 -10.403  0.00  0.00    -0.153 OA
ATOM     22  O   UNL     1      36.417 -22.020 -10.557  0.00  0.00    -0.153 OA
BRANCH  20  23
ATOM     23  N   UNL     1      35.241 -23.882  -9.220  0.00  0.00    -0.203 NA
ATOM     24  H   UNL     1      35.765 -23.919  -8.346  0.00  0.00    +0.144 HD
ATOM     25  H   UNL     1      34.824 -24.795  -9.405  0.00  0.00    +0.144 HD
ENDBRANCH  20  23
ENDBRANCH  15  20
ENDBRANCH   4  14
BRANCH   6  26
ATOM     26  O   UNL     1      31.219 -22.097 -17.166  0.00  0.00    -0.453 OA
BRANCH  26  27
ATOM     27  C   UNL     1      32.560 -22.445 -17.455  0.00  0.00    +0.208 C 
BRANCH  27  28
ATOM     28  C   UNL     1      32.982 -21.725 -18.735  0.00  0.00    +0.044 C 
ATOM     29  C   UNL     1      32.007 -20.587 -19.064  0.00  0.00    +0.004 C 
ATOM     30  C   UNL     1      34.417 -21.194 -18.610  0.00  0.00    +0.004 C 
ATOM     31  C   UNL     1      32.437 -19.818 -20.310  0.00  0.00    +0.000 C 
ATOM     32  C   UNL     1      34.843 -20.424 -19.857  0.00  0.00    +0.000 C 
ATOM     33  C   UNL     1      33.866 -19.300 -20.185  0.00  0.00    +0.000 C 
ENDBRANCH  27  28
ENDBRANCH  26  27
ENDBRANCH   6  26
TORSDOF 6
ENDMDL
MODEL 3
REMARK VINA RESULT:     -12.0      1.743      2.309
REMARK  Name = 447655
REMARK  6 active torsions:
REMARK  status: ('A' for Active; 'I' for Inactive)
REMARK    1  A    between atoms: N_4  and  C_14
REMARK    2  A    between atoms: C_6  and  O_26
REMARK    3  A    between atoms: C_15  and  S_20
REMARK    4  A    between atoms: S_20  and  N_23
REMARK    5  A    between atoms: O_26  and  C_27
REMARK    6  A    between atoms: C_27  and  C_28
REMARK                            x       y       z     vdW  Elec       q    Type
REMARK                         _______ _______ _______ _____ _____    ______ ____
ROOT
ATOM      1  N   UNL     1      32.519 -22.625 -15.777  0.00  0.00    -0.293 NA
ATOM      2  N   UNL     1      28.880 -22.256 -16.162  0.00  0.00    -0.266 NA
ATOM      3  N   UNL     1      31.257 -22.989 -13.722  0.00  0.00    -0.316 NA
ATOM      4  N   UNL     1      33.590 -23.160 -13.764  0.00  0.00    -0.238 N 
ATOM      5  N   UNL     1      28.853 -22.744 -13.987  0.00  0.00    -0.296 N 
ATOM      6  C   UNL     1      31.390 -22.380 -16.478  0.00  0.00    +0.288 C 
ATOM      7  C   UNL     1      30.186 -22.437 -15.807  0.00  0.00    +0.215 C 
ATOM      8  C   UNL     1      30.143 -22.739 -14.452  0.00  0.00    +0.196 C 
ATOM      9  C   UNL     1      32.385 -22.910 -14.460  0.00  0.00    +0.207 C 
ATOM     10  C   UNL     1      28.119 -22.449 -15.039  0.00  0.00    +0.164 C 
ATOM     11  H   UNL     1      28.547 -22.029 -17.059  0.00  0.00    +0.126 HD
ATOM     12  H   UNL     1      33.462 -23.366 -12.810  0.00  0.00    +0.166 HD
ATOM     13  H   UNL     1      28.544 -22.925 -13.070  0.00  0.00    +0.150 HD
ENDROOT
BRANCH   4  14
ATOM     14  C   UNL     1      34.937 -23.173 -14.170  0.00  0.00    +0.060 C 
ATOM     15  C   UNL     1      37.097 -24.260 -14.235  0.00  0.00    +0.123 C 
ATOM     16  C   UNL     1      35.761 -24.248 -13.832  0.00  0.00    +0.035 C 
ATOM     17  C   UNL     1      35.454 -22.110 -14.916  0.00  0.00    +0.015 C 
ATOM     18  C   UNL     1      37.610 -23.198 -14.980  0.00  0.00    +0.020 C 
ATOM     19  C   UNL     1      36.788 -22.123 -15.320  0.00  0.00    +0.003 C 
BRANCH  15  20
ATOM     20  S   UNL     1      38.125 -25.605 -13.811  0.00  0.00    +0.057 S 
ATOM     21  O   UNL     1      38.782 -25.300 -12.548  0.00  0.00    -0.153 OA
ATOM     22  O   UNL     1      37.358 -26.835 -13.948  0.00  0.00    -0.153 OA
BRANCH  20  23
ATOM     23  N   UNL     1      39.284 -25.539 -15.066  0.00  0.00    -0.203 NA
ATOM     24  H   UNL     1      39.070 -26.253 -15.762  0.00  0.00    +0.144 HD
ATOM     25  H   UNL     1      40.212 -25.708 -14.679  0.00  0.00    +0.144 HD
ENDBRANCH  20  23
ENDBRANCH  15  20
ENDBRANCH   4  14
BRANCH   6  26
ATOM     26  O   UNL     1      31.491 -22.087 -17.816  0.00  0.00    -0.453 OA
BRANCH  26  27
ATOM     27  C   UNL     1      32.724 -22.376 -18.446  0.00  0.00    +0.208 C 
BRANCH  27  28
ATOM     28  C   UNL     1      33.429 -21.058 -18.759  0.00  0.00    +0.044 C 
ATOM     29  C   UNL     1      34.915 -21.295 -19.060  0.00  0.00    +0.004 C 
ATOM     30  C   UNL     1      32.743 -20.340 -19.929  0.00  0.00    +0.004 C 
ATOM     31  C   UNL     1      35.630 -19.997 -19.427  0.00  0.00    +0.000 C 
ATOM     32  C   UNL     1      33.462 -19.044 -20.295  0.00  0.00    +0.000 C 
ATOM     33  C   UNL     1      34.940 -19.283 -20.585  0.00  0.00    +0.000 C 
ENDBRANCH  27  28
ENDBRANCH  26  27
ENDBRANCH   6  26
TORSDOF 6
ENDMDL
MODEL 4
REMARK VINA RESULT:     -11.7      2.675      5.350
REMARK  Name = 447655
REMARK  6 active torsions:
REMARK  status: ('A' for Active; 'I' for Inactive)
REMARK    1  A    between atoms: N_4  and  C_14
REMARK    2  A    between atoms: C_6  and  O_26
REMARK    3  A    between atoms: C_15  and  S_20
REMARK    4  A    between atoms: S_20  and  N_23
REMARK    5  A    between atoms: O_26  and  C_27
REMARK    6  A    between atoms: C_27  and  C_28
REMARK                            x       y       z     vdW  Elec       q    Type
REMARK                         _______ _______ _______ _____ _____    ______ ____
ROOT
ATOM      1  N   UNL     1      34.323 -23.014 -15.660  0.00  0.00    -0.293 NA
ATOM      2  N   UNL     1      32.324 -21.532 -18.369  0.00  0.00    -0.266 NA
ATOM      3  N   UNL     1      35.610 -21.646 -17.216  0.00  0.00    -0.316 NA
ATOM      4  N   UNL     1      36.630 -22.709 -15.399  0.00  0.00    -0.238 N 
ATOM      5  N   UNL     1      34.280 -20.670 -19.001  0.00  0.00    -0.296 N 
ATOM      6  C   UNL     1      33.176 -22.780 -16.337  0.00  0.00    +0.288 C 
ATOM      7  C   UNL     1      33.238 -21.979 -17.458  0.00  0.00    +0.215 C 
ATOM      8  C   UNL     1      34.445 -21.430 -17.872  0.00  0.00    +0.196 C 
ATOM      9  C   UNL     1      35.453 -22.439 -16.135  0.00  0.00    +0.207 C 
ATOM     10  C   UNL     1      32.995 -20.752 -19.274  0.00  0.00    +0.164 C 
ATOM     11  H   UNL     1      31.361 -21.732 -18.374  0.00  0.00    +0.126 HD
ATOM     12  H   UNL     1      37.435 -22.278 -15.766  0.00  0.00    +0.166 HD
ATOM     13  H   UNL     1      34.969 -20.174 -19.499  0.00  0.00    +0.150 HD
ENDROOT
BRANCH   4  14
ATOM     14  C   UNL     1      36.874 -23.471 -14.242  0.00  0.00    +0.060 C 
ATOM     15  C   UNL     1      36.332 -24.044 -11.955  0.00  0.00    +0.123 C 
ATOM     16  C   UNL     1      36.090 -23.286 -13.101  0.00  0.00    +0.035 C 
ATOM     17  C   UNL     1      37.901 -24.420 -14.232  0.00  0.00    +0.015 C 
ATOM     18  C   UNL     1      37.358 -24.989 -11.947  0.00  0.00    +0.020 C 
ATOM     19  C   UNL     1      38.142 -25.176 -13.086  0.00  0.00    +0.003 C 
BRANCH  15  20
ATOM     20  S   UNL     1      35.350 -23.810 -10.530  0.00  0.00    +0.057 S 
ATOM     21  O   UNL     1      35.089 -25.113  -9.934  0.00  0.00    -0.153 OA
ATOM     22  O   UNL     1      35.948 -22.753  -9.726  0.00  0.00    -0.153 OA
BRANCH  20  23
ATOM     23  N   UNL     1      33.904 -23.220 -11.223  0.00  0.00    -0.203 NA
ATOM     24  H   UNL     1      33.686 -23.758 -12.062  0.00  0.00    +0.144 HD
ATOM     25  H   UNL     1      34.022 -22.238 -11.470  0.00  0.00    +0.144 HD
ENDBRANCH  20  23
ENDBRANCH  15  20
ENDBRANCH   4  14
BRANCH   6  26
ATOM     26  O   UNL     1      32.011 -23.349 -15.882  0.00  0.00    -0.453 OA
BRANCH  26  27
ATOM     27  C   UNL     1      31.675 -23.129 -14.525  0.00  0.00    +0.208 C 
BRANCH  27  28
ATOM     28  C   UNL     1      30.153 -23.131 -14.397  0.00  0.00    +0.044 C 
ATOM     29  C   UNL     1      29.506 -22.449 -15.611  0.00  0.00    +0.004 C 
ATOM     30  C   UNL     1      29.625 -24.562 -14.230  0.00  0.00    +0.004 C 
ATOM     31  C   UNL     1      27.982 -22.485 -15.531  0.00  0.00    +0.000 C 
ATOM     32  C   UNL     1      28.101 -24.594 -14.153  0.00  0.00    +0.000 C 
ATOM     33  C   UNL     1      27.462 -23.908 -15.356  0.00  0.00    +0.000 C 
ENDBRANCH  27  28
ENDBRANCH  26  27
ENDBRANCH   6  26
TORSDOF 6
ENDMDL
MODEL 5
REMARK VINA RESULT:     -11.3      3.692      7.365
REMARK  Name = 447655
REMARK  6 active torsions:
REMARK  status: ('A' for Active; 'I' for Inactive)
REMARK    1  A    between atoms: N_4  and  C_14
REMARK    2  A    between atoms: C_6  and  O_26
REMARK    3  A    between atoms: C_15  and  S_20
REMARK    4  A    between atoms: S_20  and  N_23
REMARK    5  A    between atoms: O_26  and  C_27
REMARK    6  A    between atoms: C_27  and  C_28
REMARK                            x       y       z     vdW  Elec       q    Type
REMARK                         _______ _______ _______ _____ _____    ______ ____
ROOT
ATOM      1  N   UNL     1      34.068 -22.908 -15.562  0.00  0.00    -0.293 NA
ATOM      2  N   UNL     1      34.851 -24.766 -12.486  0.00  0.00    -0.266 NA
ATOM      3  N   UNL     1      36.437 -22.924 -14.982  0.00  0.00    -0.316 NA
ATOM      4  N   UNL     1      35.659 -21.816 -16.889  0.00  0.00    -0.238 N 
ATOM      5  N   UNL     1      36.944 -24.156 -12.948  0.00  0.00    -0.296 N 
ATOM      6  C   UNL     1      33.754 -23.652 -14.478  0.00  0.00    +0.288 C 
ATOM      7  C   UNL     1      34.779 -24.037 -13.638  0.00  0.00    +0.215 C 
ATOM      8  C   UNL     1      36.091 -23.669 -13.905  0.00  0.00    +0.196 C 
ATOM      9  C   UNL     1      35.373 -22.595 -15.744  0.00  0.00    +0.207 C 
ATOM     10  C   UNL     1      36.168 -24.809 -12.110  0.00  0.00    +0.164 C 
ATOM     11  H   UNL     1      34.097 -25.184 -12.012  0.00  0.00    +0.126 HD
ATOM     12  H   UNL     1      36.614 -21.605 -16.997  0.00  0.00    +0.166 HD
ATOM     13  H   UNL     1      37.921 -24.040 -12.898  0.00  0.00    +0.150 HD
ENDROOT
BRANCH   4  14
ATOM     14  C   UNL     1      34.843 -21.286 -17.906  0.00  0.00    +0.060 C 
ATOM     15  C   UNL     1      34.555 -19.833 -19.819  0.00  0.00    +0.123 C 
ATOM     16  C   UNL     1      35.364 -20.359 -18.811  0.00  0.00    +0.035 C 
ATOM     17  C   UNL     1      33.509 -21.687 -18.014  0.00  0.00    +0.015 C 
ATOM     18  C   UNL     1      33.223 -20.236 -19.924  0.00  0.00    +0.020 C 
ATOM     19  C   UNL     1      32.700 -21.162 -19.022  0.00  0.00    +0.003 C 
BRANCH  15  20
ATOM     20  S   UNL     1      35.208 -18.675 -20.949  0.00  0.00    +0.057 S 
ATOM     21  O   UNL     1      36.650 -18.612 -20.760  0.00  0.00    -0.153 OA
ATOM     22  O   UNL     1      34.663 -18.960 -22.270  0.00  0.00    -0.153 OA
BRANCH  20  23
ATOM     23  N   UNL     1      34.511 -17.226 -20.371  0.00  0.00    -0.203 NA
ATOM     24  H   UNL     1      33.634 -17.052 -20.862  0.00  0.00    +0.144 HD
ATOM     25  H   UNL     1      35.153 -16.451 -20.536  0.00  0.00    +0.144 HD
ENDBRANCH  20  23
ENDBRANCH  15  20
ENDBRANCH   4  14
BRANCH   6  26
ATOM     26  O   UNL     1      32.439 -23.987 -14.263  0.00  0.00    -0.453 OA
BRANCH  26  27
ATOM     27  C   UNL     1      31.745 -23.258 -13.268  0.00  0.00    +0.208 C 
BRANCH  27  28
ATOM     28  C   UNL     1      30.253 -23.296 -13.595  0.00  0.00    +0.044 C 
ATOM     29  C   UNL     1      29.979 -22.643 -14.956  0.00  0.00    +0.004 C 
ATOM     30  C   UNL     1      29.728 -24.737 -13.565  0.00  0.00    +0.004 C 
ATOM     31  C   UNL     1      28.500 -22.715 -15.329  0.00  0.00    +0.000 C 
ATOM     32  C   UNL     1      28.250 -24.806 -13.941  0.00  0.00    +0.000 C 
ATOM     33  C   UNL     1      27.980 -24.149 -15.290  0.00  0.00    +0.000 C 
ENDBRANCH  27  28
ENDBRANCH  26  27
ENDBRANCH   6  26
TORSDOF 6
ENDMDL
MODEL 6
REMARK VINA RESULT:     -10.7      3.733      7.210
REMARK  Name = 447655
REMARK  6 active torsions:
REMARK  status: ('A' for Active; 'I' for Inactive)
REMARK    1  A    between atoms: N_4  and  C_14
REMARK    2  A    between atoms: C_6  and  O_26
REMARK    3  A    between atoms: C_15  and  S_20
REMARK    4  A    between atoms: S_20  and  N_23
REMARK    5  A    between atoms: O_26  and  C_27
REMARK    6  A    between atoms: C_27  and  C_28
REMARK                            x       y       z     vdW  Elec       q    Type
REMARK                         _______ _______ _______ _____ _____    ______ ____
ROOT
ATOM      1  N   UNL     1      32.722 -22.457 -16.007  0.00  0.00    -0.293 NA
ATOM      2  N   UNL     1      30.560 -24.024 -13.479  0.00  0.00    -0.266 NA
ATOM      3  N   UNL     1      30.377 -22.615 -16.660  0.00  0.00    -0.316 NA
ATOM      4  N   UNL     1      31.973 -21.661 -18.079  0.00  0.00    -0.238 N 
ATOM      5  N   UNL     1      28.956 -23.651 -14.981  0.00  0.00    -0.296 N 
ATOM      6  C   UNL     1      32.474 -23.045 -14.816  0.00  0.00    +0.288 C 
ATOM      7  C   UNL     1      31.177 -23.423 -14.538  0.00  0.00    +0.215 C 
ATOM      8  C   UNL     1      30.161 -23.202 -15.458  0.00  0.00    +0.196 C 
ATOM      9  C   UNL     1      31.671 -22.280 -16.844  0.00  0.00    +0.207 C 
ATOM     10  C   UNL     1      29.230 -24.140 -13.790  0.00  0.00    +0.164 C 
ATOM     11  H   UNL     1      30.990 -24.319 -12.644  0.00  0.00    +0.126 HD
ATOM     12  H   UNL     1      31.192 -21.544 -18.665  0.00  0.00    +0.166 HD
ATOM     13  H   UNL     1      28.080 -23.617 -15.430  0.00  0.00    +0.150 HD
ENDROOT
BRANCH   4  14
ATOM     14  C   UNL     1      33.173 -21.178 -18.631  0.00  0.00    +0.060 C 
ATOM     15  C   UNL     1      34.342 -19.632 -20.080  0.00  0.00    +0.123 C 
ATOM     16  C   UNL     1      33.151 -20.111 -19.532  0.00  0.00    +0.035 C 
ATOM     17  C   UNL     1      34.393 -21.763 -18.279  0.00  0.00    +0.015 C 
ATOM     18  C   UNL     1      35.557 -20.218 -19.726  0.00  0.00    +0.020 C 
ATOM     19  C   UNL     1      35.582 -21.283 -18.826  0.00  0.00    +0.003 C 
BRANCH  15  20
ATOM     20  S   UNL     1      34.312 -18.298 -21.205  0.00  0.00    +0.057 S 
ATOM     21  O   UNL     1      33.350 -18.604 -22.254  0.00  0.00    -0.153 OA
ATOM     22  O   UNL     1      34.188 -17.059 -20.450  0.00  0.00    -0.153 OA
BRANCH  20  23
ATOM     23  N   UNL     1      35.888 -18.387 -21.859  0.00  0.00    -0.203 NA
ATOM     24  H   UNL     1      36.341 -17.476 -21.777  0.00  0.00    +0.144 HD
ATOM     25  H   UNL     1      35.833 -18.652 -22.842  0.00  0.00    +0.144 HD
ENDBRANCH  20  23
ENDBRANCH  15  20
ENDBRANCH   4  14
BRANCH   6  26
ATOM     26  O   UNL     1      33.517 -23.240 -13.944  0.00  0.00    -0.453 OA
BRANCH  26  27
ATOM     27  C   UNL     1      34.800 -22.825 -14.373  0.00  0.00    +0.208 C 
BRANCH  27  28
ATOM     28  C   UNL     1      35.843 -23.746 -13.743  0.00  0.00    +0.044 C 
ATOM     29  C   UNL     1      36.093 -23.361 -12.278  0.00  0.00    +0.004 C 
ATOM     30  C   UNL     1      35.408 -25.214 -13.854  0.00  0.00    +0.004 C 
ATOM     31  C   UNL     1      37.093 -24.301 -11.610  0.00  0.00    +0.000 C 
ATOM     32  C   UNL     1      36.409 -26.151 -13.184  0.00  0.00    +0.000 C 
ATOM     33  C   UNL     1      36.661 -25.759 -11.731  0.00  0.00    +0.000 C 
ENDBRANCH  27  28
ENDBRANCH  26  27
ENDBRANCH   6  26
TORSDOF 6
ENDMDL
MODEL 7
REMARK VINA RESULT:     -10.5      2.697      5.304
REMARK  Name = 447655
REMARK  6 active torsions:
REMARK  status: ('A' for Active; 'I' for Inactive)
REMARK    1  A    between atoms: N_4  and  C_14
REMARK    2  A    between atoms: C_6  and  O_26
REMARK    3  A    between atoms: C_15  and  S_20
REMARK    4  A    between atoms: S_20  and  N_23
REMARK    5  A    between atoms: O_26  and  C_27
REMARK    6  A    between atoms: C_27  and  C_28
REMARK                            x       y       z     vdW  Elec       q    Type
REMARK                         _______ _______ _______ _____ _____    ______ ____
ROOT
ATOM      1  N   UNL     1      33.823 -22.221 -16.708  0.00  0.00    -0.293 NA
ATOM      2  N   UNL     1      31.841 -20.822 -19.472  0.00  0.00    -0.266 NA
ATOM      3  N   UNL     1      35.111 -20.862 -18.271  0.00  0.00    -0.316 NA
ATOM      4  N   UNL     1      36.121 -21.874 -16.420  0.00  0.00    -0.238 N 
ATOM      5  N   UNL     1      33.792 -19.941 -20.093  0.00  0.00    -0.296 N 
ATOM      6  C   UNL     1      32.683 -22.018 -17.405  0.00  0.00    +0.288 C 
ATOM      7  C   UNL     1      32.748 -21.237 -18.540  0.00  0.00    +0.215 C 
ATOM      8  C   UNL     1      33.952 -20.677 -18.947  0.00  0.00    +0.196 C 
ATOM      9  C   UNL     1      34.951 -21.637 -17.178  0.00  0.00    +0.207 C 
ATOM     10  C   UNL     1      32.512 -20.048 -20.383  0.00  0.00    +0.164 C 
ATOM     11  H   UNL     1      30.881 -21.037 -19.487  0.00  0.00    +0.126 HD
ATOM     12  H   UNL     1      36.924 -21.437 -16.783  0.00  0.00    +0.166 HD
ATOM     13  H   UNL     1      34.481 -19.443 -20.590  0.00  0.00    +0.150 HD
ENDROOT
BRANCH   4  14
ATOM     14  C   UNL     1      36.359 -22.611 -15.245  0.00  0.00    +0.060 C 
ATOM     15  C   UNL     1      37.756 -24.108 -13.956  0.00  0.00    +0.123 C 
ATOM     16  C   UNL     1      37.520 -23.378 -15.122  0.00  0.00    +0.035 C 
ATOM     17  C   UNL     1      35.436 -22.576 -14.196  0.00  0.00    +0.015 C 
ATOM     18  C   UNL     1      36.832 -24.072 -12.911  0.00  0.00    +0.020 C 
ATOM     19  C   UNL     1      35.672 -23.306 -13.032  0.00  0.00    +0.003 C 
BRANCH  15  20
ATOM     20  S   UNL     1      39.207 -25.066 -13.804  0.00  0.00    +0.057 S 
ATOM     21  O   UNL     1      40.336 -24.164 -13.626  0.00  0.00    -0.153 OA
ATOM     22  O   UNL     1      38.964 -26.122 -12.831  0.00  0.00    -0.153 OA
BRANCH  20  23
ATOM     23  N   UNL     1      39.301 -25.767 -15.360  0.00  0.00    -0.203 NA
ATOM     24  H   UNL     1      40.243 -25.645 -15.731  0.00  0.00    +0.144 HD
ATOM     25  H   UNL     1      38.630 -25.310 -15.978  0.00  0.00    +0.144 HD
ENDBRANCH  20  23
ENDBRANCH  15  20
ENDBRANCH   4  14
BRANCH   6  26
ATOM     26  O   UNL     1      31.520 -22.597 -16.957  0.00  0.00    -0.453 OA
BRANCH  26  27
ATOM     27  C   UNL     1      31.576 -23.274 -15.715  0.00  0.00    +0.208 C 
BRANCH  27  28
ATOM     28  C   UNL     1      30.208 -23.169 -15.045  0.00  0.00    +0.044 C 
ATOM     29  C   UNL     1      29.240 -22.353 -15.912  0.00  0.00    +0.004 C 
ATOM     30  C   UNL     1      29.638 -24.565 -14.757  0.00  0.00    +0.004 C 
ATOM     31  C   UNL     1      27.849 -22.279 -15.288  0.00  0.00    +0.000 C 
ATOM     32  C   UNL     1      28.246 -24.487 -14.134  0.00  0.00    +0.000 C 
ATOM     33  C   UNL     1      27.289 -23.668 -14.995  0.00  0.00    +0.000 C 
ENDBRANCH  27  28
ENDBRANCH  26  27
ENDBRANCH   6  26
TORSDOF 6
ENDMDL
MODEL 8
REMARK VINA RESULT:     -10.4      2.977      6.449
REMARK  Name = 447655
REMARK  6 active torsions:
REMARK  status: ('A' for Active; 'I' for Inactive)
REMARK    1  A    between atoms: N_4  and  C_14
REMARK    2  A    between atoms: C_6  and  O_26
REMARK    3  A    between atoms: C_15  and  S_20
REMARK    4  A    between atoms: S_20  and  N_23
REMARK    5  A    between atoms: O_26  and  C_27
REMARK    6  A    between atoms: C_27  and  C_28
REMARK                            x       y       z     vdW  Elec       q    Type
REMARK                         _______ _______ _______ _____ _____    ______ ____
ROOT
ATOM      1  N   UNL     1      34.333 -23.192 -13.891  0.00  0.00    -0.293 NA
ATOM      2  N   UNL     1      34.056 -24.597 -10.504  0.00  0.00    -0.266 NA
ATOM      3  N   UNL     1      36.226 -22.679 -12.441  0.00  0.00    -0.316 NA
ATOM      4  N   UNL     1      36.142 -21.910 -14.648  0.00  0.00    -0.238 N 
ATOM      5  N   UNL     1      36.033 -23.613 -10.204  0.00  0.00    -0.296 N 
ATOM      6  C   UNL     1      33.719 -23.894 -12.913  0.00  0.00    +0.288 C 
ATOM      7  C   UNL     1      34.353 -23.994 -11.692  0.00  0.00    +0.215 C 
ATOM      8  C   UNL     1      35.585 -23.389 -11.481  0.00  0.00    +0.196 C 
ATOM      9  C   UNL     1      35.533 -22.636 -13.598  0.00  0.00    +0.207 C 
ATOM     10  C   UNL     1      35.091 -24.341  -9.643  0.00  0.00    +0.164 C 
ATOM     11  H   UNL     1      33.247 -25.120 -10.302  0.00  0.00    +0.126 HD
ATOM     12  H   UNL     1      37.012 -21.518 -14.407  0.00  0.00    +0.166 HD
ATOM     13  H   UNL     1      36.872 -23.298  -9.797  0.00  0.00    +0.150 HD
ENDROOT
BRANCH   4  14
ATOM     14  C   UNL     1      35.746 -21.640 -15.971  0.00  0.00    +0.060 C 
ATOM     15  C   UNL     1      34.169 -21.913 -17.785  0.00  0.00    +0.123 C 
ATOM     16  C   UNL     1      34.561 -22.181 -16.473  0.00  0.00    +0.035 C 
ATOM     17  C   UNL     1      36.538 -20.828 -16.787  0.00  0.00    +0.015 C 
ATOM     18  C   UNL     1      34.962 -21.101 -18.597  0.00  0.00    +0.020 C 
ATOM     19  C   UNL     1      36.146 -20.560 -18.098  0.00  0.00    +0.003 C 
BRANCH  15  20
ATOM     20  S   UNL     1      32.686 -22.590 -18.410  0.00  0.00    +0.057 S 
ATOM     21  O   UNL     1      31.966 -21.541 -19.118  0.00  0.00    -0.153 OA
ATOM     22  O   UNL     1      33.000 -23.839 -19.090  0.00  0.00    -0.153 OA
BRANCH  20  23
ATOM     23  N   UNL     1      31.855 -22.949 -16.961  0.00  0.00    -0.203 NA
ATOM     24  H   UNL     1      31.238 -22.172 -16.722  0.00  0.00    +0.144 HD
ATOM     25  H   UNL     1      32.529 -23.091 -16.209  0.00  0.00    +0.144 HD
ENDBRANCH  20  23
ENDBRANCH  15  20
ENDBRANCH   4  14
BRANCH   6  26
ATOM     26  O   UNL     1      32.501 -24.471 -13.177  0.00  0.00    -0.453 OA
BRANCH  26  27
ATOM     27  C   UNL     1      31.351 -23.773 -12.739  0.00  0.00    +0.208 C 
BRANCH  27  28
ATOM     28  C   UNL     1      30.310 -23.807 -13.857  0.00  0.00    +0.044 C 
ATOM     29  C   UNL     1      29.151 -24.744 -13.491  0.00  0.00    +0.004 C 
ATOM     30  C   UNL     1      29.794 -22.393 -14.159  0.00  0.00    +0.004 C 
ATOM     31  C   UNL     1      28.071 -24.753 -14.569  0.00  0.00    +0.000 C 
ATOM     32  C   UNL     1      28.713 -22.407 -15.237  0.00  0.00    +0.000 C 
ATOM     33  C   UNL     1      27.567 -23.346 -14.874  0.00  0.00    +0.000 C 
ENDBRANCH  27  28
ENDBRANCH  26  27
ENDBRANCH   6  26
TORSDOF 6
ENDMDL
MODEL 9
REMARK VINA RESULT:     -10.0      3.064      5.643
REMARK  Name = 447655
REMARK  6 active torsions:
REMARK  status: ('A' for Active; 'I' for Inactive)
REMARK    1  A    between atoms: N_4  and  C_14
REMARK    2  A    between atoms: C_6  and  O_26
REMARK    3  A    between atoms: C_15  and  S_20
REMARK    4  A    between atoms: S_20  and  N_23
REMARK    5  A    between atoms: O_26  and  C_27
REMARK    6  A    between atoms: C_27  and  C_28
REMARK                            x       y       z     vdW  Elec       q    Type
REMARK                         _______ _______ _______ _____ _____    ______ ____
ROOT
ATOM      1  N   UNL     1      33.986 -22.192 -16.885  0.00  0.00    -0.293 NA
ATOM      2  N   UNL     1      33.111 -20.285 -19.905  0.00  0.00    -0.266 NA
ATOM      3  N   UNL     1      35.855 -20.976 -17.873  0.00  0.00    -0.316 NA
ATOM      4  N   UNL     1      36.130 -22.272 -15.945  0.00  0.00    -0.238 N 
ATOM      5  N   UNL     1      35.266 -19.718 -19.869  0.00  0.00    -0.296 N 
ATOM      6  C   UNL     1      33.137 -21.747 -17.838  0.00  0.00    +0.288 C 
ATOM      7  C   UNL     1      33.640 -20.914 -18.816  0.00  0.00    +0.215 C 
ATOM      8  C   UNL     1      34.980 -20.547 -18.814  0.00  0.00    +0.196 C 
ATOM      9  C   UNL     1      35.275 -21.784 -16.961  0.00  0.00    +0.207 C 
ATOM     10  C   UNL     1      34.122 -19.581 -20.505  0.00  0.00    +0.164 C 
ATOM     11  H   UNL     1      32.174 -20.328 -20.205  0.00  0.00    +0.126 HD
ATOM     12  H   UNL     1      37.059 -21.958 -16.025  0.00  0.00    +0.166 HD
ATOM     13  H   UNL     1      36.134 -19.316 -20.100  0.00  0.00    +0.150 HD
ENDROOT
BRANCH   4  14
ATOM     14  C   UNL     1      35.909 -23.117 -14.842  0.00  0.00    +0.060 C 
ATOM     15  C   UNL     1      36.159 -23.595 -12.484  0.00  0.00    +0.123 C 
ATOM     16  C   UNL     1      36.379 -22.756 -13.577  0.00  0.00    +0.035 C 
ATOM     17  C   UNL     1      35.217 -24.319 -15.008  0.00  0.00    +0.015 C 
ATOM     18  C   UNL     1      35.468 -24.795 -12.653  0.00  0.00    +0.020 C 
ATOM     19  C   UNL     1      34.997 -25.157 -13.915  0.00  0.00    +0.003 C 
BRANCH  15  20
ATOM     20  S   UNL     1      36.747 -23.142 -10.904  0.00  0.00    +0.057 S 
ATOM     21  O   UNL     1      38.168 -23.453 -10.836  0.00  0.00    -0.153 OA
ATOM     22  O   UNL     1      36.287 -21.792 -10.609  0.00  0.00    -0.153 OA
BRANCH  20  23
ATOM     23  N   UNL     1      35.894 -24.240  -9.911  0.00  0.00    -0.203 NA
ATOM     24  H   UNL     1      34.961 -24.390 -10.295  0.00  0.00    +0.144 HD
ATOM     25  H   UNL     1      35.816 -23.856  -8.969  0.00  0.00    +0.144 HD
ENDBRANCH  20  23
ENDBRANCH  15  20
ENDBRANCH   4  14
BRANCH   6  26
ATOM     26  O   UNL     1      31.822 -22.142 -17.791  0.00  0.00    -0.453 OA
BRANCH  26  27
ATOM     27  C   UNL     1      31.513 -23.248 -16.963  0.00  0.00    +0.208 C 
BRANCH  27  28
ATOM     28  C   UNL     1      30.991 -22.721 -15.627  0.00  0.00    +0.044 C 
ATOM     29  C   UNL     1      29.484 -22.977 -15.494  0.00  0.00    +0.004 C 
ATOM     30  C   UNL     1      31.758 -23.355 -14.459  0.00  0.00    +0.004 C 
ATOM     31  C   UNL     1      28.949 -22.507 -14.144  0.00  0.00    +0.000 C 
ATOM     32  C   UNL     1      31.219 -22.884 -13.110  0.00  0.00    +0.000 C 
ATOM     33  C   UNL     1      29.719 -23.132 -12.985  0.00  0.00    +0.000 C 
ENDBRANCH  27  28
ENDBRANCH  26  27
ENDBRANCH   6  26
TORSDOF 6
ENDMDL
