MODEL 1
REMARK VINA RESULT:     -12.0      0.000      0.000
REMARK  Name = 5326930
REMARK  4 active torsions:
REMARK  status: ('A' for Active; 'I' for Inactive)
REMARK    1  A    between atoms: C_7  and  C_21
REMARK    2  A    between atoms: C_21  and  C_22
REMARK    3  A    between atoms: C_22  and  C_23
REMARK    4  A    between atoms: C_28  and  O_29
REMARK                            x       y       z     vdW  Elec       q    Type
REMARK                         _______ _______ _______ _____ _____    ______ ____
ROOT
ATOM      1  O   UNL     1      33.812 -24.548 -11.204  0.00  0.00    -0.209 OA
ATOM      2  N   UNL     1      33.802 -22.636 -14.723  0.00  0.00    -0.275 N 
ATOM      3  N   UNL     1      28.989 -24.867 -13.265  0.00  0.00    -0.315 N 
ATOM      4  N   UNL     1      29.016 -23.798 -15.212  0.00  0.00    -0.316 N 
ATOM      5  N   UNL     1      34.967 -23.348 -12.775  0.00  0.00    -0.302 NA
ATOM      6  N   UNL     1      36.019 -22.113 -14.465  0.00  0.00    -0.320 N 
ATOM      7  C   UNL     1      31.445 -23.137 -15.097  0.00  0.00    +0.007 C 
ATOM      8  C   UNL     1      32.602 -23.222 -14.307  0.00  0.00    +0.060 C 
ATOM      9  C   UNL     1      30.262 -23.742 -14.634  0.00  0.00    +0.056 C 
ATOM     10  C   UNL     1      30.273 -24.405 -13.411  0.00  0.00    +0.060 C 
ATOM     11  C   UNL     1      32.572 -23.899 -13.079  0.00  0.00    +0.109 C 
ATOM     12  C   UNL     1      31.403 -24.509 -12.599  0.00  0.00    +0.029 C 
ATOM     13  C   UNL     1      33.829 -23.958 -12.280  0.00  0.00    +0.208 C 
ATOM     14  C   UNL     1      28.278 -24.480 -14.366  0.00  0.00    +0.182 C 
ATOM     15  C   UNL     1      34.921 -22.735 -13.928  0.00  0.00    +0.248 C 
ATOM     16  H   UNL     1      33.846 -22.156 -15.582  0.00  0.00    +0.156 HD
ATOM     17  H   UNL     1      28.643 -25.386 -12.504  0.00  0.00    +0.148 HD
ATOM     18  H   UNL     1      28.737 -23.412 -16.075  0.00  0.00    +0.148 HD
ATOM     19  H   UNL     1      35.951 -21.659 -15.336  0.00  0.00    +0.146 HD
ATOM     20  H   UNL     1      36.876 -22.121 -13.980  0.00  0.00    +0.146 HD
ENDROOT
BRANCH   7  21
ATOM     21  C   UNL     1      31.470 -22.416 -16.408  0.00  0.00    +0.034 C 
BRANCH  21  22
ATOM     22  C   UNL     1      32.585 -22.888 -17.359  0.00  0.00    +0.031 C 
BRANCH  22  23
ATOM     23  C   UNL     1      33.062 -21.810 -18.300  0.00  0.00    -0.022 C 
ATOM     24  C   UNL     1      34.422 -21.599 -18.459  0.00  0.00    -0.001 C 
ATOM     25  C   UNL     1      32.131 -21.048 -18.988  0.00  0.00    -0.001 C 
ATOM     26  C   UNL     1      34.865 -20.603 -19.328  0.00  0.00    +0.037 C 
ATOM     27  C   UNL     1      32.573 -20.051 -19.859  0.00  0.00    +0.037 C 
ATOM     28  C   UNL     1      33.939 -19.829 -20.029  0.00  0.00    +0.139 C 
BRANCH  28  29
ATOM     29  O   UNL     1      34.370 -18.855 -20.876  0.00  0.00    -0.471 OA
ATOM     30  C   UNL     1      33.774 -18.811 -22.172  0.00  0.00    +0.252 C 
ENDBRANCH  28  29
ENDBRANCH  22  23
ENDBRANCH  21  22
ENDBRANCH   7  21
TORSDOF 4
ENDMDL
MODEL 2
REMARK VINA RESULT:     -11.6      1.664      4.176
REMARK  Name = 5326930
REMARK  4 active torsions:
REMARK  status: ('A' for Active; 'I' for Inactive)
REMARK    1  A    between atoms: C_7  and  C_21
REMARK    2  A    between atoms: C_21  and  C_22
REMARK    3  A    between atoms: C_22  and  C_23
REMARK    4  A    between atoms: C_28  and  O_29
REMARK                            x       y       z     vdW  Elec       q    Type
REMARK                         _______ _______ _______ _____ _____    ______ ____
ROOT
ATOM      1  O   UNL     1      27.813 -25.402 -13.163  0.00  0.00    -0.209 OA
ATOM      2  N   UNL     1      28.999 -22.887 -16.046  0.00  0.00    -0.275 N 
ATOM      3  N   UNL     1      32.993 -24.649 -12.696  0.00  0.00    -0.315 N 
ATOM      4  N   UNL     1      33.619 -23.253 -14.307  0.00  0.00    -0.316 N 
ATOM      5  N   UNL     1      27.263 -24.106 -14.970  0.00  0.00    -0.302 NA
ATOM      6  N   UNL     1      26.849 -22.740 -16.828  0.00  0.00    -0.320 N 
ATOM      7  C   UNL     1      31.319 -22.972 -15.298  0.00  0.00    +0.007 C 
ATOM      8  C   UNL     1      29.978 -23.364 -15.167  0.00  0.00    +0.060 C 
ATOM      9  C   UNL     1      32.265 -23.480 -14.389  0.00  0.00    +0.056 C 
ATOM     10  C   UNL     1      31.846 -24.352 -13.389  0.00  0.00    +0.060 C 
ATOM     11  C   UNL     1      29.595 -24.246 -14.146  0.00  0.00    +0.109 C 
ATOM     12  C   UNL     1      30.522 -24.764 -13.229  0.00  0.00    +0.029 C 
ATOM     13  C   UNL     1      28.157 -24.630 -14.054  0.00  0.00    +0.208 C 
ATOM     14  C   UNL     1      34.023 -23.968 -13.282  0.00  0.00    +0.182 C 
ATOM     15  C   UNL     1      27.692 -23.289 -15.894  0.00  0.00    +0.248 C 
ATOM     16  H   UNL     1      29.246 -22.267 -16.770  0.00  0.00    +0.156 HD
ATOM     17  H   UNL     1      33.059 -25.245 -11.916  0.00  0.00    +0.148 HD
ATOM     18  H   UNL     1      34.167 -22.678 -14.890  0.00  0.00    +0.148 HD
ATOM     19  H   UNL     1      27.204 -22.128 -17.512  0.00  0.00    +0.146 HD
ATOM     20  H   UNL     1      25.889 -22.960 -16.813  0.00  0.00    +0.146 HD
ENDROOT
BRANCH   7  21
ATOM     21  C   UNL     1      31.734 -22.031 -16.385  0.00  0.00    +0.034 C 
BRANCH  21  22
ATOM     22  C   UNL     1      32.736 -22.636 -17.385  0.00  0.00    +0.031 C 
BRANCH  22  23
ATOM     23  C   UNL     1      33.282 -21.628 -18.366  0.00  0.00    -0.022 C 
ATOM     24  C   UNL     1      32.403 -20.835 -19.086  0.00  0.00    -0.001 C 
ATOM     25  C   UNL     1      34.653 -21.515 -18.532  0.00  0.00    -0.001 C 
ATOM     26  C   UNL     1      32.906 -19.903 -19.993  0.00  0.00    +0.037 C 
ATOM     27  C   UNL     1      35.158 -20.583 -19.439  0.00  0.00    +0.037 C 
ATOM     28  C   UNL     1      34.284 -19.777 -20.170  0.00  0.00    +0.139 C 
BRANCH  28  29
ATOM     29  O   UNL     1      34.776 -18.869 -21.055  0.00  0.00    -0.471 OA
ATOM     30  C   UNL     1      34.018 -18.640 -22.242  0.00  0.00    +0.252 C 
ENDBRANCH  28  29
ENDBRANCH  22  23
ENDBRANCH  21  22
ENDBRANCH   7  21
TORSDOF 4
ENDMDL
MODEL 3
REMARK VINA RESULT:     -11.3      3.139      6.112
REMARK  Name = 5326930
REMARK  4 active torsions:
REMARK  status: ('A' for Active; 'I' for Inactive)
REMARK    1  A    between atoms: C_7  and  C_21
REMARK    2  A    between atoms: C_21  and  C_22
REMARK    3  A    between atoms: C_22  and  C_23
REMARK    4  A    between atoms: C_28  and  O_29
REMARK                            x       y       z     vdW  Elec       q    Type
REMARK                         _______ _______ _______ _____ _____    ______ ____
ROOT
ATOM      1  O   UNL     1      36.440 -21.541 -16.249  0.00  0.00    -0.209 OA
ATOM      2  N   UNL     1      32.814 -23.162 -15.730  0.00  0.00    -0.275 N 
ATOM      3  N   UNL     1      36.190 -23.559 -11.403  0.00  0.00    -0.315 N 
ATOM      4  N   UNL     1      34.170 -24.447 -11.147  0.00  0.00    -0.316 N 
ATOM      5  N   UNL     1      34.371 -22.006 -17.111  0.00  0.00    -0.302 NA
ATOM      6  N   UNL     1      32.217 -22.550 -17.858  0.00  0.00    -0.320 N 
ATOM      7  C   UNL     1      33.345 -23.856 -13.454  0.00  0.00    +0.007 C 
ATOM      8  C   UNL     1      33.711 -23.237 -14.659  0.00  0.00    +0.060 C 
ATOM      9  C   UNL     1      34.282 -23.905 -12.406  0.00  0.00    +0.056 C 
ATOM     10  C   UNL     1      35.541 -23.341 -12.593  0.00  0.00    +0.060 C 
ATOM     11  C   UNL     1      34.990 -22.679 -14.808  0.00  0.00    +0.109 C 
ATOM     12  C   UNL     1      35.938 -22.717 -13.776  0.00  0.00    +0.029 C 
ATOM     13  C   UNL     1      35.324 -22.032 -16.110  0.00  0.00    +0.208 C 
ATOM     14  C   UNL     1      35.330 -24.222 -10.574  0.00  0.00    +0.182 C 
ATOM     15  C   UNL     1      33.200 -22.547 -16.900  0.00  0.00    +0.248 C 
ATOM     16  H   UNL     1      31.912 -23.547 -15.647  0.00  0.00    +0.156 HD
ATOM     17  H   UNL     1      37.110 -23.286 -11.188  0.00  0.00    +0.148 HD
ATOM     18  H   UNL     1      33.388 -24.905 -10.759  0.00  0.00    +0.148 HD
ATOM     19  H   UNL     1      31.345 -22.966 -17.668  0.00  0.00    +0.146 HD
ATOM     20  H   UNL     1      32.385 -22.137 -18.736  0.00  0.00    +0.146 HD
ENDROOT
BRANCH   7  21
ATOM     21  C   UNL     1      31.983 -24.454 -13.288  0.00  0.00    +0.034 C 
BRANCH  21  22
ATOM     22  C   UNL     1      30.896 -23.431 -12.909  0.00  0.00    +0.031 C 
BRANCH  22  23
ATOM     23  C   UNL     1      29.739 -23.405 -13.878  0.00  0.00    -0.022 C 
ATOM     24  C   UNL     1      29.535 -22.281 -14.663  0.00  0.00    -0.001 C 
ATOM     25  C   UNL     1      28.901 -24.505 -13.965  0.00  0.00    -0.001 C 
ATOM     26  C   UNL     1      28.466 -22.256 -15.558  0.00  0.00    +0.037 C 
ATOM     27  C   UNL     1      27.832 -24.481 -14.861  0.00  0.00    +0.037 C 
ATOM     28  C   UNL     1      27.615 -23.357 -15.658  0.00  0.00    +0.139 C 
BRANCH  28  29
ATOM     29  O   UNL     1      26.571 -23.333 -16.530  0.00  0.00    -0.471 OA
ATOM     30  C   UNL     1      26.026 -22.056 -16.858  0.00  0.00    +0.252 C 
ENDBRANCH  28  29
ENDBRANCH  22  23
ENDBRANCH  21  22
ENDBRANCH   7  21
TORSDOF 4
ENDMDL
MODEL 4
REMARK VINA RESULT:     -11.1      1.489      3.800
REMARK  Name = 5326930
REMARK  4 active torsions:
REMARK  status: ('A' for Active; 'I' for Inactive)
REMARK    1  A    between atoms: C_7  and  C_21
REMARK    2  A    between atoms: C_21  and  C_22
REMARK    3  A    between atoms: C_22  and  C_23
REMARK    4  A    between atoms: C_28  and  O_29
REMARK                            x       y       z     vdW  Elec       q    Type
REMARK                         _______ _______ _______ _____ _____    ______ ____
ROOT
ATOM      1  O   UNL     1      29.938 -23.455 -11.838  0.00  0.00    -0.209 OA
ATOM      2  N   UNL     1      30.634 -22.799 -15.728  0.00  0.00    -0.275 N 
ATOM      3  N   UNL     1      35.065 -24.153 -12.761  0.00  0.00    -0.315 N 
ATOM      4  N   UNL     1      35.417 -23.784 -14.922  0.00  0.00    -0.316 N 
ATOM      5  N   UNL     1      29.113 -22.902 -13.901  0.00  0.00    -0.302 NA
ATOM      6  N   UNL     1      28.412 -22.350 -16.068  0.00  0.00    -0.320 N 
ATOM      7  C   UNL     1      33.016 -23.259 -15.478  0.00  0.00    +0.007 C 
ATOM      8  C   UNL     1      31.729 -23.147 -14.929  0.00  0.00    +0.060 C 
ATOM      9  C   UNL     1      34.084 -23.611 -14.633  0.00  0.00    +0.056 C 
ATOM     10  C   UNL     1      33.836 -23.837 -13.283  0.00  0.00    +0.060 C 
ATOM     11  C   UNL     1      31.519 -23.383 -13.562  0.00  0.00    +0.109 C 
ATOM     12  C   UNL     1      32.571 -23.735 -12.703  0.00  0.00    +0.029 C 
ATOM     13  C   UNL     1      30.131 -23.250 -13.033  0.00  0.00    +0.208 C 
ATOM     14  C   UNL     1      35.975 -24.107 -13.778  0.00  0.00    +0.182 C 
ATOM     15  C   UNL     1      29.383 -22.697 -15.163  0.00  0.00    +0.248 C 
ATOM     16  H   UNL     1      30.758 -22.629 -16.690  0.00  0.00    +0.156 HD
ATOM     17  H   UNL     1      35.255 -24.373 -11.820  0.00  0.00    +0.148 HD
ATOM     18  H   UNL     1      35.858 -23.686 -15.798  0.00  0.00    +0.148 HD
ATOM     19  H   UNL     1      28.648 -22.203 -17.012  0.00  0.00    +0.146 HD
ATOM     20  H   UNL     1      27.477 -22.249 -15.772  0.00  0.00    +0.146 HD
ENDROOT
BRANCH   7  21
ATOM     21  C   UNL     1      33.247 -23.008 -16.935  0.00  0.00    +0.034 C 
BRANCH  21  22
ATOM     22  C   UNL     1      34.338 -21.961 -17.223  0.00  0.00    +0.031 C 
BRANCH  22  23
ATOM     23  C   UNL     1      34.054 -21.125 -18.447  0.00  0.00    -0.022 C 
ATOM     24  C   UNL     1      35.110 -20.577 -19.156  0.00  0.00    -0.001 C 
ATOM     25  C   UNL     1      32.741 -20.919 -18.838  0.00  0.00    -0.001 C 
ATOM     26  C   UNL     1      34.849 -19.805 -20.287  0.00  0.00    +0.037 C 
ATOM     27  C   UNL     1      32.478 -20.146 -19.970  0.00  0.00    +0.037 C 
ATOM     28  C   UNL     1      33.532 -19.589 -20.694  0.00  0.00    +0.139 C 
BRANCH  28  29
ATOM     29  O   UNL     1      33.276 -18.834 -21.797  0.00  0.00    -0.471 OA
ATOM     30  C   UNL     1      34.396 -18.254 -22.463  0.00  0.00    +0.252 C 
ENDBRANCH  28  29
ENDBRANCH  22  23
ENDBRANCH  21  22
ENDBRANCH   7  21
TORSDOF 4
ENDMDL
MODEL 5
REMARK VINA RESULT:     -10.5      1.757      2.315
REMARK  Name = 5326930
REMARK  4 active torsions:
REMARK  status: ('A' for Active; 'I' for Inactive)
REMARK    1  A    between atoms: C_7  and  C_21
REMARK    2  A    between atoms: C_21  and  C_22
REMARK    3  A    between atoms: C_22  and  C_23
REMARK    4  A    between atoms: C_28  and  O_29
REMARK                            x       y       z     vdW  Elec       q    Type
REMARK                         _______ _______ _______ _____ _____    ______ ____
ROOT
ATOM      1  O   UNL     1      36.088 -24.914 -10.723  0.00  0.00    -0.209 OA
ATOM      2  N   UNL     1      36.434 -24.050 -14.619  0.00  0.00    -0.275 N 
ATOM      3  N   UNL     1      31.431 -23.228 -12.480  0.00  0.00    -0.315 N 
ATOM      4  N   UNL     1      31.656 -22.756 -14.639  0.00  0.00    -0.316 N 
ATOM      5  N   UNL     1      37.412 -24.812 -12.588  0.00  0.00    -0.302 NA
ATOM      6  N   UNL     1      38.644 -24.655 -14.575  0.00  0.00    -0.320 N 
ATOM      7  C   UNL     1      34.094 -23.381 -14.776  0.00  0.00    +0.007 C 
ATOM      8  C   UNL     1      35.181 -23.858 -14.027  0.00  0.00    +0.060 C 
ATOM      9  C   UNL     1      32.855 -23.204 -14.134  0.00  0.00    +0.056 C 
ATOM     10  C   UNL     1      32.741 -23.507 -12.781  0.00  0.00    +0.060 C 
ATOM     11  C   UNL     1      35.026 -24.152 -12.663  0.00  0.00    +0.109 C 
ATOM     12  C   UNL     1      33.799 -23.983 -12.005  0.00  0.00    +0.029 C 
ATOM     13  C   UNL     1      36.214 -24.655 -11.916  0.00  0.00    +0.208 C 
ATOM     14  C   UNL     1      30.826 -22.783 -13.622  0.00  0.00    +0.182 C 
ATOM     15  C   UNL     1      37.482 -24.518 -13.859  0.00  0.00    +0.248 C 
ATOM     16  H   UNL     1      36.564 -23.850 -15.574  0.00  0.00    +0.156 HD
ATOM     17  H   UNL     1      31.005 -23.330 -11.599  0.00  0.00    +0.148 HD
ATOM     18  H   UNL     1      31.463 -22.476 -15.564  0.00  0.00    +0.148 HD
ATOM     19  H   UNL     1      38.664 -24.425 -15.532  0.00  0.00    +0.146 HD
ATOM     20  H   UNL     1      39.460 -24.984 -14.130  0.00  0.00    +0.146 HD
ENDROOT
BRANCH   7  21
ATOM     21  C   UNL     1      34.252 -23.065 -16.230  0.00  0.00    +0.034 C 
BRANCH  21  22
ATOM     22  C   UNL     1      32.986 -22.480 -16.882  0.00  0.00    +0.031 C 
BRANCH  22  23
ATOM     23  C   UNL     1      33.284 -21.563 -18.044  0.00  0.00    -0.022 C 
ATOM     24  C   UNL     1      34.601 -21.306 -18.386  0.00  0.00    -0.001 C 
ATOM     25  C   UNL     1      32.233 -20.993 -18.745  0.00  0.00    -0.001 C 
ATOM     26  C   UNL     1      34.877 -20.459 -19.459  0.00  0.00    +0.037 C 
ATOM     27  C   UNL     1      32.509 -20.145 -19.819  0.00  0.00    +0.037 C 
ATOM     28  C   UNL     1      33.831 -19.879 -20.176  0.00  0.00    +0.139 C 
BRANCH  28  29
ATOM     29  O   UNL     1      34.099 -19.051 -21.222  0.00  0.00    -0.471 OA
ATOM     30  C   UNL     1      34.619 -17.759 -20.913  0.00  0.00    +0.252 C 
ENDBRANCH  28  29
ENDBRANCH  22  23
ENDBRANCH  21  22
ENDBRANCH   7  21
TORSDOF 4
ENDMDL
MODEL 6
REMARK VINA RESULT:      -9.8     11.112     15.300
REMARK  Name = 5326930
REMARK  4 active torsions:
REMARK  status: ('A' for Active; 'I' for Inactive)
REMARK    1  A    between atoms: C_7  and  C_21
REMARK    2  A    between atoms: C_21  and  C_22
REMARK    3  A    between atoms: C_22  and  C_23
REMARK    4  A    between atoms: C_28  and  O_29
REMARK                            x       y       z     vdW  Elec       q    Type
REMARK                         _______ _______ _______ _____ _____    ______ ____
ROOT
ATOM      1  O   UNL     1      30.840  -7.548 -18.524  0.00  0.00    -0.209 OA
ATOM      2  N   UNL     1      31.283 -10.233 -21.463  0.00  0.00    -0.275 N 
ATOM      3  N   UNL     1      32.616  -5.066 -22.801  0.00  0.00    -0.315 N 
ATOM      4  N   UNL     1      32.851  -6.580 -24.410  0.00  0.00    -0.316 N 
ATOM      5  N   UNL     1      30.673  -9.723 -19.220  0.00  0.00    -0.302 NA
ATOM      6  N   UNL     1      30.553 -11.903 -20.071  0.00  0.00    -0.320 N 
ATOM      7  C   UNL     1      32.071  -8.535 -23.025  0.00  0.00    +0.007 C 
ATOM      8  C   UNL     1      31.608  -8.904 -21.753  0.00  0.00    +0.060 C 
ATOM      9  C   UNL     1      32.386  -7.186 -23.266  0.00  0.00    +0.056 C 
ATOM     10  C   UNL     1      32.229  -6.258 -22.242  0.00  0.00    +0.060 C 
ATOM     11  C   UNL     1      31.464  -7.939 -20.745  0.00  0.00    +0.109 C 
ATOM     12  C   UNL     1      31.772  -6.588 -20.965  0.00  0.00    +0.029 C 
ATOM     13  C   UNL     1      30.969  -8.386 -19.411  0.00  0.00    +0.208 C 
ATOM     14  C   UNL     1      32.977  -5.310 -24.096  0.00  0.00    +0.182 C 
ATOM     15  C   UNL     1      30.831 -10.566 -20.206  0.00  0.00    +0.248 C 
ATOM     16  H   UNL     1      31.376 -10.927 -22.155  0.00  0.00    +0.156 HD
ATOM     17  H   UNL     1      32.628  -4.192 -22.350  0.00  0.00    +0.148 HD
ATOM     18  H   UNL     1      33.048  -7.005 -25.276  0.00  0.00    +0.148 HD
ATOM     19  H   UNL     1      30.684 -12.513 -20.833  0.00  0.00    +0.146 HD
ATOM     20  H   UNL     1      30.223 -12.253 -19.211  0.00  0.00    +0.146 HD
ENDROOT
BRANCH   7  21
ATOM     21  C   UNL     1      32.228  -9.560 -24.105  0.00  0.00    +0.034 C 
BRANCH  21  22
ATOM     22  C   UNL     1      33.475 -10.448 -23.945  0.00  0.00    +0.031 C 
BRANCH  22  23
ATOM     23  C   UNL     1      33.196 -11.914 -24.173  0.00  0.00    -0.022 C 
ATOM     24  C   UNL     1      33.355 -12.807 -23.126  0.00  0.00    -0.001 C 
ATOM     25  C   UNL     1      32.787 -12.340 -25.426  0.00  0.00    -0.001 C 
ATOM     26  C   UNL     1      33.097 -14.161 -23.335  0.00  0.00    +0.037 C 
ATOM     27  C   UNL     1      32.529 -13.696 -25.637  0.00  0.00    +0.037 C 
ATOM     28  C   UNL     1      32.684 -14.606 -24.591  0.00  0.00    +0.139 C 
BRANCH  28  29
ATOM     29  O   UNL     1      32.434 -15.927 -24.797  0.00  0.00    -0.471 OA
ATOM     30  C   UNL     1      33.238 -16.861 -24.079  0.00  0.00    +0.252 C 
ENDBRANCH  28  29
ENDBRANCH  22  23
ENDBRANCH  21  22
ENDBRANCH   7  21
TORSDOF 4
ENDMDL
MODEL 7
REMARK VINA RESULT:      -9.8     11.417     15.857
REMARK  Name = 5326930
REMARK  4 active torsions:
REMARK  status: ('A' for Active; 'I' for Inactive)
REMARK    1  A    between atoms: C_7  and  C_21
REMARK    2  A    between atoms: C_21  and  C_22
REMARK    3  A    between atoms: C_22  and  C_23
REMARK    4  A    between atoms: C_28  and  O_29
REMARK                            x       y       z     vdW  Elec       q    Type
REMARK                         _______ _______ _______ _____ _____    ______ ____
ROOT
ATOM      1  O   UNL     1      31.399  -5.955 -19.264  0.00  0.00    -0.209 OA
ATOM      2  N   UNL     1      31.312  -9.374 -21.350  0.00  0.00    -0.275 N 
ATOM      3  N   UNL     1      33.545  -5.090 -23.983  0.00  0.00    -0.315 N 
ATOM      4  N   UNL     1      33.483  -7.001 -25.112  0.00  0.00    -0.316 N 
ATOM      5  N   UNL     1      30.832  -8.171 -19.353  0.00  0.00    -0.302 NA
ATOM      6  N   UNL     1      30.308 -10.443 -19.588  0.00  0.00    -0.320 N 
ATOM      7  C   UNL     1      32.377  -8.334 -23.282  0.00  0.00    +0.007 C 
ATOM      8  C   UNL     1      31.870  -8.254 -21.975  0.00  0.00    +0.060 C 
ATOM      9  C   UNL     1      32.929  -7.180 -23.866  0.00  0.00    +0.056 C 
ATOM     10  C   UNL     1      32.955  -5.995 -23.137  0.00  0.00    +0.060 C 
ATOM     11  C   UNL     1      31.915  -7.040 -21.272  0.00  0.00    +0.109 C 
ATOM     12  C   UNL     1      32.461  -5.878 -21.837  0.00  0.00    +0.029 C 
ATOM     13  C   UNL     1      31.363  -7.012 -19.887  0.00  0.00    +0.208 C 
ATOM     14  C   UNL     1      33.841  -5.738 -25.149  0.00  0.00    +0.182 C 
ATOM     15  C   UNL     1      30.823  -9.265 -20.068  0.00  0.00    +0.248 C 
ATOM     16  H   UNL     1      31.270 -10.235 -21.825  0.00  0.00    +0.156 HD
ATOM     17  H   UNL     1      33.722  -4.142 -23.784  0.00  0.00    +0.148 HD
ATOM     18  H   UNL     1      33.588  -7.675 -25.824  0.00  0.00    +0.148 HD
ATOM     19  H   UNL     1      30.317 -11.251 -20.151  0.00  0.00    +0.146 HD
ATOM     20  H   UNL     1      29.931 -10.481 -18.679  0.00  0.00    +0.146 HD
ENDROOT
BRANCH   7  21
ATOM     21  C   UNL     1      32.332  -9.625 -24.037  0.00  0.00    +0.034 C 
BRANCH  21  22
ATOM     22  C   UNL     1      33.528 -10.553 -23.759  0.00  0.00    +0.031 C 
BRANCH  22  23
ATOM     23  C   UNL     1      33.230 -12.008 -24.028  0.00  0.00    -0.022 C 
ATOM     24  C   UNL     1      32.779 -12.388 -25.281  0.00  0.00    -0.001 C 
ATOM     25  C   UNL     1      33.409 -12.936 -23.015  0.00  0.00    -0.001 C 
ATOM     26  C   UNL     1      32.502 -13.732 -25.531  0.00  0.00    +0.037 C 
ATOM     27  C   UNL     1      33.133 -14.281 -23.264  0.00  0.00    +0.037 C 
ATOM     28  C   UNL     1      32.679 -14.679 -24.522  0.00  0.00    +0.139 C 
BRANCH  28  29
ATOM     29  O   UNL     1      32.409 -15.990 -24.764  0.00  0.00    -0.471 OA
ATOM     30  C   UNL     1      33.191 -16.956 -24.063  0.00  0.00    +0.252 C 
ENDBRANCH  28  29
ENDBRANCH  22  23
ENDBRANCH  21  22
ENDBRANCH   7  21
TORSDOF 4
ENDMDL
MODEL 8
REMARK VINA RESULT:      -9.4      8.239     11.672
REMARK  Name = 5326930
REMARK  4 active torsions:
REMARK  status: ('A' for Active; 'I' for Inactive)
REMARK    1  A    between atoms: C_7  and  C_21
REMARK    2  A    between atoms: C_21  and  C_22
REMARK    3  A    between atoms: C_22  and  C_23
REMARK    4  A    between atoms: C_28  and  O_29
REMARK                            x       y       z     vdW  Elec       q    Type
REMARK                         _______ _______ _______ _____ _____    ______ ____
ROOT
ATOM      1  O   UNL     1      33.813 -19.488 -23.963  0.00  0.00    -0.209 OA
ATOM      2  N   UNL     1      34.492 -16.672 -21.196  0.00  0.00    -0.275 N 
ATOM      3  N   UNL     1      31.880 -14.925 -25.712  0.00  0.00    -0.315 N 
ATOM      4  N   UNL     1      32.271 -13.387 -24.158  0.00  0.00    -0.316 N 
ATOM      5  N   UNL     1      34.677 -18.933 -21.916  0.00  0.00    -0.302 NA
ATOM      6  N   UNL     1      35.514 -18.219 -19.847  0.00  0.00    -0.320 N 
ATOM      7  C   UNL     1      33.425 -14.948 -22.550  0.00  0.00    +0.007 C 
ATOM      8  C   UNL     1      33.831 -16.278 -22.364  0.00  0.00    +0.060 C 
ATOM      9  C   UNL     1      32.762 -14.603 -23.742  0.00  0.00    +0.056 C 
ATOM     10  C   UNL     1      32.530 -15.585 -24.700  0.00  0.00    +0.060 C 
ATOM     11  C   UNL     1      33.578 -17.241 -23.354  0.00  0.00    +0.109 C 
ATOM     12  C   UNL     1      32.919 -16.917 -24.549  0.00  0.00    +0.029 C 
ATOM     13  C   UNL     1      34.031 -18.639 -23.103  0.00  0.00    +0.208 C 
ATOM     14  C   UNL     1      31.750 -13.616 -25.341  0.00  0.00    +0.182 C 
ATOM     15  C   UNL     1      34.879 -17.984 -21.040  0.00  0.00    +0.248 C 
ATOM     16  H   UNL     1      34.680 -16.013 -20.489  0.00  0.00    +0.156 HD
ATOM     17  H   UNL     1      31.566 -15.324 -26.555  0.00  0.00    +0.148 HD
ATOM     18  H   UNL     1      32.303 -12.530 -23.672  0.00  0.00    +0.148 HD
ATOM     19  H   UNL     1      35.650 -17.483 -19.208  0.00  0.00    +0.146 HD
ATOM     20  H   UNL     1      35.834 -19.125 -19.630  0.00  0.00    +0.146 HD
ENDROOT
BRANCH   7  21
ATOM     21  C   UNL     1      33.691 -13.917 -21.499  0.00  0.00    +0.034 C 
BRANCH  21  22
ATOM     22  C   UNL     1      32.522 -13.708 -20.519  0.00  0.00    +0.031 C 
BRANCH  22  23
ATOM     23  C   UNL     1      31.919 -12.327 -20.596  0.00  0.00    -0.022 C 
ATOM     24  C   UNL     1      31.146 -11.864 -19.543  0.00  0.00    -0.001 C 
ATOM     25  C   UNL     1      32.147 -11.548 -21.718  0.00  0.00    -0.001 C 
ATOM     26  C   UNL     1      30.587 -10.588 -19.613  0.00  0.00    +0.037 C 
ATOM     27  C   UNL     1      31.589 -10.271 -21.789  0.00  0.00    +0.037 C 
ATOM     28  C   UNL     1      30.809  -9.791 -20.736  0.00  0.00    +0.139 C 
BRANCH  28  29
ATOM     29  O   UNL     1      30.264  -8.547 -20.806  0.00  0.00    -0.471 OA
ATOM     30  C   UNL     1      30.564  -7.769 -21.964  0.00  0.00    +0.252 C 
ENDBRANCH  28  29
ENDBRANCH  22  23
ENDBRANCH  21  22
ENDBRANCH   7  21
TORSDOF 4
ENDMDL
MODEL 9
REMARK VINA RESULT:      -9.4     11.400     15.155
REMARK  Name = 5326930
REMARK  4 active torsions:
REMARK  status: ('A' for Active; 'I' for Inactive)
REMARK    1  A    between atoms: C_7  and  C_21
REMARK    2  A    between atoms: C_21  and  C_22
REMARK    3  A    between atoms: C_22  and  C_23
REMARK    4  A    between atoms: C_28  and  O_29
REMARK                            x       y       z     vdW  Elec       q    Type
REMARK                         _______ _______ _______ _____ _____    ______ ____
ROOT
ATOM      1  O   UNL     1      31.059  -5.163 -19.419  0.00  0.00    -0.209 OA
ATOM      2  N   UNL     1      32.053  -6.776 -22.948  0.00  0.00    -0.275 N 
ATOM      3  N   UNL     1      30.628 -10.387 -19.049  0.00  0.00    -0.315 N 
ATOM      4  N   UNL     1      31.183 -11.250 -21.019  0.00  0.00    -0.316 N 
ATOM      5  N   UNL     1      31.746  -4.852 -21.581  0.00  0.00    -0.302 NA
ATOM      6  N   UNL     1      32.446  -4.689 -23.811  0.00  0.00    -0.320 N 
ATOM      7  C   UNL     1      31.663  -9.040 -22.131  0.00  0.00    +0.007 C 
ATOM      8  C   UNL     1      31.683  -7.653 -21.922  0.00  0.00    +0.060 C 
ATOM      9  C   UNL     1      31.283  -9.880 -21.068  0.00  0.00    +0.056 C 
ATOM     10  C   UNL     1      30.940  -9.313 -19.844  0.00  0.00    +0.060 C 
ATOM     11  C   UNL     1      31.329  -7.119 -20.673  0.00  0.00    +0.109 C 
ATOM     12  C   UNL     1      30.948  -7.939 -19.601  0.00  0.00    +0.029 C 
ATOM     13  C   UNL     1      31.367  -5.638 -20.508  0.00  0.00    +0.208 C 
ATOM     14  C   UNL     1      30.789 -11.521 -19.796  0.00  0.00    +0.182 C 
ATOM     15  C   UNL     1      32.063  -5.420 -22.715  0.00  0.00    +0.248 C 
ATOM     16  H   UNL     1      32.305  -7.128 -23.832  0.00  0.00    +0.156 HD
ATOM     17  H   UNL     1      30.340 -10.347 -18.109  0.00  0.00    +0.148 HD
ATOM     18  H   UNL     1      31.368 -11.891 -21.745  0.00  0.00    +0.148 HD
ATOM     19  H   UNL     1      32.677  -5.146 -24.652  0.00  0.00    +0.146 HD
ATOM     20  H   UNL     1      32.488  -3.706 -23.757  0.00  0.00    +0.146 HD
ENDROOT
BRANCH   7  21
ATOM     21  C   UNL     1      32.039  -9.616 -23.460  0.00  0.00    +0.034 C 
BRANCH  21  22
ATOM     22  C   UNL     1      33.361 -10.405 -23.447  0.00  0.00    +0.031 C 
BRANCH  22  23
ATOM     23  C   UNL     1      33.199 -11.846 -23.864  0.00  0.00    -0.022 C 
ATOM     24  C   UNL     1      33.444 -12.851 -22.943  0.00  0.00    -0.001 C 
ATOM     25  C   UNL     1      32.810 -12.138 -25.161  0.00  0.00    -0.001 C 
ATOM     26  C   UNL     1      33.294 -14.184 -23.327  0.00  0.00    +0.037 C 
ATOM     27  C   UNL     1      32.660 -13.471 -25.547  0.00  0.00    +0.037 C 
ATOM     28  C   UNL     1      32.902 -14.493 -24.629  0.00  0.00    +0.139 C 
BRANCH  28  29
ATOM     29  O   UNL     1      32.757 -15.793 -25.005  0.00  0.00    -0.471 OA
ATOM     30  C   UNL     1      33.302 -16.786 -24.138  0.00  0.00    +0.252 C 
ENDBRANCH  28  29
ENDBRANCH  22  23
ENDBRANCH  21  22
ENDBRANCH   7  21
TORSDOF 4
ENDMDL
