MODEL 1
REMARK VINA RESULT:     -11.7      0.000      0.000
REMARK  Name = 44177328
REMARK  2 active torsions:
REMARK  status: ('A' for Active; 'I' for Inactive)
REMARK    1  A    between atoms: N_1  and  C_15
REMARK    2  A    between atoms: C_6  and  C_23
REMARK                            x       y       z     vdW  Elec       q    Type
REMARK                         _______ _______ _______ _____ _____    ______ ____
ROOT
ATOM      1  N   UNL     1      31.598 -22.299 -17.379  0.00  0.00    -0.286 N 
ATOM      2  N   UNL     1      32.618 -23.181 -15.434  0.00  0.00    -0.386 NA
ATOM      3  N   UNL     1      30.114 -23.233 -14.170  0.00  0.00    -0.246 NA
ATOM      4  N   UNL     1      29.121 -22.350 -16.135  0.00  0.00    -0.340 N 
ATOM      5  C   UNL     1      31.496 -22.768 -16.056  0.00  0.00    +0.214 C 
ATOM      6  C   UNL     1      32.466 -23.621 -14.169  0.00  0.00    +0.135 C 
ATOM      7  C   UNL     1      30.266 -22.794 -15.437  0.00  0.00    +0.166 C 
ATOM      8  C   UNL     1      31.236 -23.646 -13.549  0.00  0.00    +0.185 C 
ATOM      9  H   UNL     1      30.789 -22.454 -17.918  0.00  0.00    +0.155 HD
ATOM     10  H   UNL     1      28.239 -22.365 -15.697  0.00  0.00    +0.144 HD
ATOM     11  H   UNL     1      29.205 -22.024 -17.060  0.00  0.00    +0.144 HD
ENDROOT
BRANCH   1  15
ATOM     12  N   UNL     1      35.482 -19.633 -20.280  0.00  0.00    -0.312 N 
ATOM     13  C   UNL     1      33.353 -20.098 -19.802  0.00  0.00    +0.016 C 
ATOM     14  C   UNL     1      34.675 -20.386 -19.456  0.00  0.00    +0.048 C 
ATOM     15  C   UNL     1      32.635 -21.650 -18.086  0.00  0.00    +0.050 C 
ATOM     16  C   UNL     1      32.313 -20.743 -19.102  0.00  0.00    +0.016 C 
ATOM     17  C   UNL     1      35.011 -21.289 -18.442  0.00  0.00    +0.016 C 
ATOM     18  C   UNL     1      33.963 -21.918 -17.762  0.00  0.00    +0.016 C 
ATOM     19  C   UNL     1      33.395 -19.148 -20.860  0.00  0.00    +0.017 C 
ATOM     20  C   UNL     1      34.717 -18.882 -21.132  0.00  0.00    +0.062 C 
ATOM     21  H   UNL     1      36.466 -19.636 -20.260  0.00  0.00    +0.152 HD
ENDBRANCH   1  15
BRANCH   6  23
ATOM     22  N   UNL     1      35.998 -24.908 -12.215  0.00  0.00    -0.242 NA
ATOM     23  C   UNL     1      33.667 -24.058 -13.505  0.00  0.00    +0.031 C 
ATOM     24  C   UNL     1      34.720 -24.589 -14.243  0.00  0.00    +0.023 C 
ATOM     25  C   UNL     1      33.779 -23.951 -12.123  0.00  0.00    +0.023 C 
ATOM     26  C   UNL     1      35.853 -24.995 -13.557  0.00  0.00    +0.099 C 
ATOM     27  C   UNL     1      34.954 -24.387 -11.531  0.00  0.00    +0.099 C 
ENDBRANCH   6  23
TORSDOF 2
ENDMDL
MODEL 2
REMARK VINA RESULT:     -10.6      1.156      1.801
REMARK  Name = 44177328
REMARK  2 active torsions:
REMARK  status: ('A' for Active; 'I' for Inactive)
REMARK    1  A    between atoms: N_1  and  C_15
REMARK    2  A    between atoms: C_6  and  C_23
REMARK                            x       y       z     vdW  Elec       q    Type
REMARK                         _______ _______ _______ _____ _____    ______ ____
ROOT
ATOM      1  N   UNL     1      32.174 -22.827 -16.352  0.00  0.00    -0.286 N 
ATOM      2  N   UNL     1      33.774 -23.539 -14.758  0.00  0.00    -0.386 NA
ATOM      3  N   UNL     1      31.728 -23.812 -12.858  0.00  0.00    -0.246 NA
ATOM      4  N   UNL     1      30.149 -23.097 -14.477  0.00  0.00    -0.340 N 
ATOM      5  C   UNL     1      32.487 -23.264 -15.051  0.00  0.00    +0.214 C 
ATOM      6  C   UNL     1      34.020 -23.953 -13.500  0.00  0.00    +0.135 C 
ATOM      7  C   UNL     1      31.482 -23.398 -14.118  0.00  0.00    +0.166 C 
ATOM      8  C   UNL     1      33.015 -24.087 -12.567  0.00  0.00    +0.185 C 
ATOM      9  H   UNL     1      31.271 -23.082 -16.648  0.00  0.00    +0.155 HD
ATOM     10  H   UNL     1      29.427 -23.191 -13.815  0.00  0.00    +0.144 HD
ATOM     11  H   UNL     1      29.942 -22.792 -15.391  0.00  0.00    +0.144 HD
ENDROOT
BRANCH   1  15
ATOM     12  N   UNL     1      34.809 -19.882 -20.223  0.00  0.00    -0.312 N 
ATOM     13  C   UNL     1      32.949 -20.628 -19.242  0.00  0.00    +0.016 C 
ATOM     14  C   UNL     1      34.345 -20.668 -19.192  0.00  0.00    +0.048 C 
ATOM     15  C   UNL     1      32.903 -22.095 -17.315  0.00  0.00    +0.050 C 
ATOM     16  C   UNL     1      32.216 -21.357 -18.284  0.00  0.00    +0.016 C 
ATOM     17  C   UNL     1      35.045 -21.400 -18.228  0.00  0.00    +0.016 C 
ATOM     18  C   UNL     1      34.296 -22.116 -17.289  0.00  0.00    +0.016 C 
ATOM     19  C   UNL     1      32.594 -19.793 -20.339  0.00  0.00    +0.017 C 
ATOM     20  C   UNL     1      33.759 -19.350 -20.922  0.00  0.00    +0.062 C 
ATOM     21  H   UNL     1      35.759 -19.727 -20.429  0.00  0.00    +0.152 HD
ENDBRANCH   1  15
BRANCH   6  23
ATOM     22  N   UNL     1      38.068 -24.804 -12.588  0.00  0.00    -0.242 NA
ATOM     23  C   UNL     1      35.396 -24.243 -13.189  0.00  0.00    +0.031 C 
ATOM     24  C   UNL     1      35.740 -24.739 -11.937  0.00  0.00    +0.023 C 
ATOM     25  C   UNL     1      36.387 -24.028 -14.142  0.00  0.00    +0.023 C 
ATOM     26  C   UNL     1      37.078 -25.001 -11.688  0.00  0.00    +0.099 C 
ATOM     27  C   UNL     1      37.696 -24.322 -13.794  0.00  0.00    +0.099 C 
ENDBRANCH   6  23
TORSDOF 2
ENDMDL
MODEL 3
REMARK VINA RESULT:     -10.4      1.747      6.793
REMARK  Name = 44177328
REMARK  2 active torsions:
REMARK  status: ('A' for Active; 'I' for Inactive)
REMARK    1  A    between atoms: N_1  and  C_15
REMARK    2  A    between atoms: C_6  and  C_23
REMARK                            x       y       z     vdW  Elec       q    Type
REMARK                         _______ _______ _______ _____ _____    ______ ____
ROOT
ATOM      1  N   UNL     1      33.314 -24.114 -13.824  0.00  0.00    -0.286 N 
ATOM      2  N   UNL     1      34.084 -22.812 -15.645  0.00  0.00    -0.386 NA
ATOM      3  N   UNL     1      36.537 -22.462 -14.331  0.00  0.00    -0.246 NA
ATOM      4  N   UNL     1      35.738 -23.771 -12.521  0.00  0.00    -0.340 N 
ATOM      5  C   UNL     1      34.328 -23.353 -14.435  0.00  0.00    +0.214 C 
ATOM      6  C   UNL     1      35.087 -22.094 -16.187  0.00  0.00    +0.135 C 
ATOM      7  C   UNL     1      35.533 -23.182 -13.789  0.00  0.00    +0.166 C 
ATOM      8  C   UNL     1      36.292 -21.922 -15.541  0.00  0.00    +0.185 C 
ATOM      9  H   UNL     1      33.654 -24.827 -13.237  0.00  0.00    +0.155 HD
ATOM     10  H   UNL     1      36.597 -23.652 -12.055  0.00  0.00    +0.144 HD
ATOM     11  H   UNL     1      35.021 -24.301 -12.104  0.00  0.00    +0.144 HD
ENDROOT
BRANCH   1  15
ATOM     12  N   UNL     1      27.814 -23.718 -14.271  0.00  0.00    -0.312 N 
ATOM     13  C   UNL     1      29.885 -23.193 -14.914  0.00  0.00    +0.016 C 
ATOM     14  C   UNL     1      29.145 -23.948 -14.001  0.00  0.00    +0.048 C 
ATOM     15  C   UNL     1      31.904 -24.053 -13.888  0.00  0.00    +0.050 C 
ATOM     16  C   UNL     1      31.293 -23.248 -14.855  0.00  0.00    +0.016 C 
ATOM     17  C   UNL     1      29.743 -24.758 -13.030  0.00  0.00    +0.016 C 
ATOM     18  C   UNL     1      31.140 -24.795 -12.990  0.00  0.00    +0.016 C 
ATOM     19  C   UNL     1      28.954 -22.503 -15.739  0.00  0.00    +0.017 C 
ATOM     20  C   UNL     1      27.689 -22.846 -15.320  0.00  0.00    +0.062 C 
ATOM     21  H   UNL     1      27.063 -24.121 -13.780  0.00  0.00    +0.152 HD
ENDBRANCH   1  15
BRANCH   6  23
ATOM     22  N   UNL     1      34.304 -20.389 -19.985  0.00  0.00    -0.242 NA
ATOM     23  C   UNL     1      34.821 -21.514 -17.479  0.00  0.00    +0.031 C 
ATOM     24  C   UNL     1      35.838 -20.876 -18.181  0.00  0.00    +0.023 C 
ATOM     25  C   UNL     1      33.546 -21.591 -18.029  0.00  0.00    +0.023 C 
ATOM     26  C   UNL     1      35.531 -20.335 -19.418  0.00  0.00    +0.099 C 
ATOM     27  C   UNL     1      33.341 -21.018 -19.274  0.00  0.00    +0.099 C 
ENDBRANCH   6  23
TORSDOF 2
ENDMDL
MODEL 4
REMARK VINA RESULT:     -10.2      1.709      6.609
REMARK  Name = 44177328
REMARK  2 active torsions:
REMARK  status: ('A' for Active; 'I' for Inactive)
REMARK    1  A    between atoms: N_1  and  C_15
REMARK    2  A    between atoms: C_6  and  C_23
REMARK                            x       y       z     vdW  Elec       q    Type
REMARK                         _______ _______ _______ _____ _____    ______ ____
ROOT
ATOM      1  N   UNL     1      33.726 -24.135 -12.891  0.00  0.00    -0.286 N 
ATOM      2  N   UNL     1      33.484 -23.110 -15.011  0.00  0.00    -0.386 NA
ATOM      3  N   UNL     1      30.724 -23.600 -14.910  0.00  0.00    -0.246 NA
ATOM      4  N   UNL     1      30.998 -24.621 -12.786  0.00  0.00    -0.340 N 
ATOM      5  C   UNL     1      32.907 -23.729 -13.962  0.00  0.00    +0.214 C 
ATOM      6  C   UNL     1      32.657 -22.741 -16.009  0.00  0.00    +0.135 C 
ATOM      7  C   UNL     1      31.552 -23.969 -13.911  0.00  0.00    +0.166 C 
ATOM      8  C   UNL     1      31.301 -22.982 -15.958  0.00  0.00    +0.185 C 
ATOM      9  H   UNL     1      33.267 -24.136 -12.020  0.00  0.00    +0.155 HD
ATOM     10  H   UNL     1      30.030 -24.796 -12.744  0.00  0.00    +0.144 HD
ATOM     11  H   UNL     1      31.581 -24.901 -12.043  0.00  0.00    +0.144 HD
ENDROOT
BRANCH   1  15
ATOM     12  N   UNL     1      39.053 -25.629 -12.853  0.00  0.00    -0.312 N 
ATOM     13  C   UNL     1      37.279 -24.683 -13.822  0.00  0.00    +0.016 C 
ATOM     14  C   UNL     1      37.718 -25.344 -12.672  0.00  0.00    +0.048 C 
ATOM     15  C   UNL     1      35.077 -24.543 -12.823  0.00  0.00    +0.050 C 
ATOM     16  C   UNL     1      35.932 -24.275 -13.897  0.00  0.00    +0.016 C 
ATOM     17  C   UNL     1      36.874 -25.617 -11.591  0.00  0.00    +0.016 C 
ATOM     18  C   UNL     1      35.542 -25.204 -11.688  0.00  0.00    +0.016 C 
ATOM     19  C   UNL     1      38.397 -24.582 -14.698  0.00  0.00    +0.017 C 
ATOM     20  C   UNL     1      39.472 -25.172 -14.074  0.00  0.00    +0.062 C 
ATOM     21  H   UNL     1      39.623 -26.094 -12.200  0.00  0.00    +0.152 HD
ENDBRANCH   1  15
BRANCH   6  23
ATOM     22  N   UNL     1      34.480 -20.807 -19.308  0.00  0.00    -0.242 NA
ATOM     23  C   UNL     1      33.276 -22.083 -17.131  0.00  0.00    +0.031 C 
ATOM     24  C   UNL     1      32.498 -21.623 -18.187  0.00  0.00    +0.023 C 
ATOM     25  C   UNL     1      34.655 -21.905 -17.161  0.00  0.00    +0.023 C 
ATOM     26  C   UNL     1      33.142 -20.997 -19.242  0.00  0.00    +0.099 C 
ATOM     27  C   UNL     1      35.203 -21.267 -18.262  0.00  0.00    +0.099 C 
ENDBRANCH   6  23
TORSDOF 2
ENDMDL
MODEL 5
REMARK VINA RESULT:     -10.1      1.569      3.991
REMARK  Name = 44177328
REMARK  2 active torsions:
REMARK  status: ('A' for Active; 'I' for Inactive)
REMARK    1  A    between atoms: N_1  and  C_15
REMARK    2  A    between atoms: C_6  and  C_23
REMARK                            x       y       z     vdW  Elec       q    Type
REMARK                         _______ _______ _______ _____ _____    ______ ____
ROOT
ATOM      1  N   UNL     1      35.787 -21.860 -16.280  0.00  0.00    -0.286 N 
ATOM      2  N   UNL     1      33.950 -22.764 -15.091  0.00  0.00    -0.386 NA
ATOM      3  N   UNL     1      35.707 -24.457 -13.707  0.00  0.00    -0.246 NA
ATOM      4  N   UNL     1      37.528 -23.530 -14.914  0.00  0.00    -0.340 N 
ATOM      5  C   UNL     1      35.279 -22.753 -15.318  0.00  0.00    +0.214 C 
ATOM      6  C   UNL     1      33.515 -23.636 -14.160  0.00  0.00    +0.135 C 
ATOM      7  C   UNL     1      36.143 -23.583 -14.638  0.00  0.00    +0.166 C 
ATOM      8  C   UNL     1      34.379 -24.468 -13.481  0.00  0.00    +0.185 C 
ATOM      9  H   UNL     1      36.704 -21.555 -16.092  0.00  0.00    +0.155 HD
ATOM     10  H   UNL     1      38.149 -24.122 -14.431  0.00  0.00    +0.144 HD
ATOM     11  H   UNL     1      37.871 -22.901 -15.589  0.00  0.00    +0.144 HD
ENDROOT
BRANCH   1  15
ATOM     12  N   UNL     1      33.854 -19.605 -20.948  0.00  0.00    -0.312 N 
ATOM     13  C   UNL     1      35.445 -19.890 -19.410  0.00  0.00    +0.016 C 
ATOM     14  C   UNL     1      34.149 -20.262 -19.774  0.00  0.00    +0.048 C 
ATOM     15  C   UNL     1      35.238 -21.316 -17.463  0.00  0.00    +0.050 C 
ATOM     16  C   UNL     1      35.999 -20.428 -18.231  0.00  0.00    +0.016 C 
ATOM     17  C   UNL     1      33.378 -21.150 -19.017  0.00  0.00    +0.016 C 
ATOM     18  C   UNL     1      33.947 -21.670 -17.851  0.00  0.00    +0.016 C 
ATOM     19  C   UNL     1      35.916 -18.987 -20.404  0.00  0.00    +0.017 C 
ATOM     20  C   UNL     1      34.915 -18.831 -21.335  0.00  0.00    +0.062 C 
ATOM     21  H   UNL     1      33.002 -19.679 -21.435  0.00  0.00    +0.152 HD
ENDBRANCH   1  15
BRANCH   6  23
ATOM     22  N   UNL     1      29.338 -23.674 -13.460  0.00  0.00    -0.242 NA
ATOM     23  C   UNL     1      32.095 -23.649 -13.923  0.00  0.00    +0.031 C 
ATOM     24  C   UNL     1      31.264 -22.770 -14.609  0.00  0.00    +0.023 C 
ATOM     25  C   UNL     1      31.549 -24.542 -13.006  0.00  0.00    +0.023 C 
ATOM     26  C   UNL     1      29.905 -22.822 -14.344  0.00  0.00    +0.099 C 
ATOM     27  C   UNL     1      30.177 -24.514 -12.813  0.00  0.00    +0.099 C 
ENDBRANCH   6  23
TORSDOF 2
ENDMDL
MODEL 6
REMARK VINA RESULT:     -10.1      1.974      4.861
REMARK  Name = 44177328
REMARK  2 active torsions:
REMARK  status: ('A' for Active; 'I' for Inactive)
REMARK    1  A    between atoms: N_1  and  C_15
REMARK    2  A    between atoms: C_6  and  C_23
REMARK                            x       y       z     vdW  Elec       q    Type
REMARK                         _______ _______ _______ _____ _____    ______ ____
ROOT
ATOM      1  N   UNL     1      33.754 -22.828 -14.021  0.00  0.00    -0.286 N 
ATOM      2  N   UNL     1      31.423 -23.145 -14.290  0.00  0.00    -0.386 NA
ATOM      3  N   UNL     1      31.441 -24.941 -12.136  0.00  0.00    -0.246 NA
ATOM      4  N   UNL     1      33.776 -24.602 -11.890  0.00  0.00    -0.340 N 
ATOM      5  C   UNL     1      32.554 -23.443 -13.619  0.00  0.00    +0.214 C 
ATOM      6  C   UNL     1      30.302 -23.760 -13.865  0.00  0.00    +0.135 C 
ATOM      7  C   UNL     1      32.563 -24.325 -12.560  0.00  0.00    +0.166 C 
ATOM      8  C   UNL     1      30.311 -24.643 -12.807  0.00  0.00    +0.185 C 
ATOM      9  H   UNL     1      34.396 -22.695 -13.287  0.00  0.00    +0.155 HD
ATOM     10  H   UNL     1      33.789 -25.232 -11.134  0.00  0.00    +0.144 HD
ATOM     11  H   UNL     1      34.609 -24.165 -12.181  0.00  0.00    +0.144 HD
ENDROOT
BRANCH   1  15
ATOM     12  N   UNL     1      35.332 -21.039 -19.013  0.00  0.00    -0.312 N 
ATOM     13  C   UNL     1      33.797 -21.825 -17.597  0.00  0.00    +0.016 C 
ATOM     14  C   UNL     1      35.138 -21.450 -17.713  0.00  0.00    +0.048 C 
ATOM     15  C   UNL     1      34.217 -22.363 -15.272  0.00  0.00    +0.050 C 
ATOM     16  C   UNL     1      33.329 -22.291 -16.351  0.00  0.00    +0.016 C 
ATOM     17  C   UNL     1      36.035 -21.515 -16.642  0.00  0.00    +0.016 C 
ATOM     18  C   UNL     1      35.548 -21.981 -15.417  0.00  0.00    +0.016 C 
ATOM     19  C   UNL     1      33.196 -21.626 -18.871  0.00  0.00    +0.017 C 
ATOM     20  C   UNL     1      34.164 -21.143 -19.720  0.00  0.00    +0.062 C 
ATOM     21  H   UNL     1      36.187 -20.719 -19.380  0.00  0.00    +0.152 HD
ENDBRANCH   1  15
BRANCH   6  23
ATOM     22  N   UNL     1      26.757 -22.827 -15.987  0.00  0.00    -0.242 NA
ATOM     23  C   UNL     1      29.097 -23.442 -14.587  0.00  0.00    +0.031 C 
ATOM     24  C   UNL     1      28.515 -22.186 -14.455  0.00  0.00    +0.023 C 
ATOM     25  C   UNL     1      28.511 -24.391 -15.418  0.00  0.00    +0.023 C 
ATOM     26  C   UNL     1      27.356 -21.931 -15.170  0.00  0.00    +0.099 C 
ATOM     27  C   UNL     1      27.351 -24.037 -16.090  0.00  0.00    +0.099 C 
ENDBRANCH   6  23
TORSDOF 2
ENDMDL
MODEL 7
REMARK VINA RESULT:      -9.5      7.463     11.580
REMARK  Name = 44177328
REMARK  2 active torsions:
REMARK  status: ('A' for Active; 'I' for Inactive)
REMARK    1  A    between atoms: N_1  and  C_15
REMARK    2  A    between atoms: C_6  and  C_23
REMARK                            x       y       z     vdW  Elec       q    Type
REMARK                         _______ _______ _______ _____ _____    ______ ____
ROOT
ATOM      1  N   UNL     1      32.437 -12.177 -23.126  0.00  0.00    -0.286 N 
ATOM      2  N   UNL     1      33.140 -14.411 -22.781  0.00  0.00    -0.386 NA
ATOM      3  N   UNL     1      32.884 -14.894 -25.532  0.00  0.00    -0.246 NA
ATOM      4  N   UNL     1      32.183 -12.649 -25.846  0.00  0.00    -0.340 N 
ATOM      5  C   UNL     1      32.736 -13.453 -23.639  0.00  0.00    +0.214 C 
ATOM      6  C   UNL     1      33.414 -15.614 -23.323  0.00  0.00    +0.135 C 
ATOM      7  C   UNL     1      32.610 -13.689 -24.990  0.00  0.00    +0.166 C 
ATOM      8  C   UNL     1      33.288 -15.851 -24.674  0.00  0.00    +0.185 C 
ATOM      9  H   UNL     1      32.605 -11.445 -23.762  0.00  0.00    +0.155 HD
ATOM     10  H   UNL     1      32.091 -12.812 -26.813  0.00  0.00    +0.144 HD
ATOM     11  H   UNL     1      31.976 -11.761 -25.475  0.00  0.00    +0.144 HD
ENDROOT
BRANCH   1  15
ATOM     12  N   UNL     1      30.511 -10.233 -18.317  0.00  0.00    -0.312 N 
ATOM     13  C   UNL     1      31.254  -9.947 -20.402  0.00  0.00    +0.016 C 
ATOM     14  C   UNL     1      30.974 -10.907 -19.426  0.00  0.00    +0.048 C 
ATOM     15  C   UNL     1      31.943 -11.742 -21.876  0.00  0.00    +0.050 C 
ATOM     16  C   UNL     1      31.748 -10.374 -21.651  0.00  0.00    +0.016 C 
ATOM     17  C   UNL     1      31.162 -12.276 -19.638  0.00  0.00    +0.016 C 
ATOM     18  C   UNL     1      31.654 -12.676 -20.884  0.00  0.00    +0.016 C 
ATOM     19  C   UNL     1      30.944  -8.677 -19.840  0.00  0.00    +0.017 C 
ATOM     20  C   UNL     1      30.490  -8.886 -18.558  0.00  0.00    +0.062 C 
ATOM     21  H   UNL     1      30.237 -10.660 -17.474  0.00  0.00    +0.152 HD
ENDBRANCH   1  15
BRANCH   6  23
ATOM     22  N   UNL     1      34.675 -18.622 -20.620  0.00  0.00    -0.242 NA
ATOM     23  C   UNL     1      33.843 -16.637 -22.403  0.00  0.00    +0.031 C 
ATOM     24  C   UNL     1      34.256 -16.294 -21.121  0.00  0.00    +0.023 C 
ATOM     25  C   UNL     1      33.844 -17.971 -22.795  0.00  0.00    +0.023 C 
ATOM     26  C   UNL     1      34.659 -17.315 -20.275  0.00  0.00    +0.099 C 
ATOM     27  C   UNL     1      34.265 -18.917 -21.874  0.00  0.00    +0.099 C 
ENDBRANCH   6  23
TORSDOF 2
ENDMDL
MODEL 8
REMARK VINA RESULT:      -9.4     10.408     13.788
REMARK  Name = 44177328
REMARK  2 active torsions:
REMARK  status: ('A' for Active; 'I' for Inactive)
REMARK    1  A    between atoms: N_1  and  C_15
REMARK    2  A    between atoms: C_6  and  C_23
REMARK                            x       y       z     vdW  Elec       q    Type
REMARK                         _______ _______ _______ _____ _____    ______ ____
ROOT
ATOM      1  N   UNL     1      31.301  -9.537 -21.574  0.00  0.00    -0.286 N 
ATOM      2  N   UNL     1      31.995 -11.739 -22.096  0.00  0.00    -0.386 NA
ATOM      3  N   UNL     1      31.200 -12.572 -19.538  0.00  0.00    -0.246 NA
ATOM      4  N   UNL     1      30.512 -10.356 -19.045  0.00  0.00    -0.340 N 
ATOM      5  C   UNL     1      31.460 -10.884 -21.201  0.00  0.00    +0.214 C 
ATOM      6  C   UNL     1      32.125 -13.017 -21.690  0.00  0.00    +0.135 C 
ATOM      7  C   UNL     1      31.069 -11.293 -19.945  0.00  0.00    +0.166 C 
ATOM      8  C   UNL     1      31.735 -13.426 -20.433  0.00  0.00    +0.185 C 
ATOM      9  H   UNL     1      30.540  -9.092 -21.136  0.00  0.00    +0.155 HD
ATOM     10  H   UNL     1      30.231 -10.642 -18.146  0.00  0.00    +0.144 HD
ATOM     11  H   UNL     1      30.406  -9.416 -19.318  0.00  0.00    +0.144 HD
ENDROOT
BRANCH   1  15
ATOM     12  N   UNL     1      33.997  -6.051 -24.919  0.00  0.00    -0.312 N 
ATOM     13  C   UNL     1      32.522  -6.484 -23.302  0.00  0.00    +0.016 C 
ATOM     14  C   UNL     1      33.436  -7.070 -24.182  0.00  0.00    +0.048 C 
ATOM     15  C   UNL     1      32.020  -8.698 -22.454  0.00  0.00    +0.050 C 
ATOM     16  C   UNL     1      31.801  -7.316 -22.422  0.00  0.00    +0.016 C 
ATOM     17  C   UNL     1      33.666  -8.449 -24.224  0.00  0.00    +0.016 C 
ATOM     18  C   UNL     1      32.938  -9.254 -23.342  0.00  0.00    +0.016 C 
ATOM     19  C   UNL     1      32.555  -5.082 -23.538  0.00  0.00    +0.017 C 
ATOM     20  C   UNL     1      33.471  -4.847 -24.538  0.00  0.00    +0.062 C 
ATOM     21  H   UNL     1      34.677  -6.173 -25.620  0.00  0.00    +0.152 HD
ENDBRANCH   1  15
BRANCH   6  23
ATOM     22  N   UNL     1      33.817 -15.695 -24.503  0.00  0.00    -0.242 NA
ATOM     23  C   UNL     1      32.700 -13.927 -22.647  0.00  0.00    +0.031 C 
ATOM     24  C   UNL     1      32.310 -13.877 -23.980  0.00  0.00    +0.023 C 
ATOM     25  C   UNL     1      33.649 -14.859 -22.240  0.00  0.00    +0.023 C 
ATOM     26  C   UNL     1      32.893 -14.774 -24.860  0.00  0.00    +0.099 C 
ATOM     27  C   UNL     1      34.172 -15.713 -23.198  0.00  0.00    +0.099 C 
ENDBRANCH   6  23
TORSDOF 2
ENDMDL
MODEL 9
REMARK VINA RESULT:      -9.2      8.105     13.057
REMARK  Name = 44177328
REMARK  2 active torsions:
REMARK  status: ('A' for Active; 'I' for Inactive)
REMARK    1  A    between atoms: N_1  and  C_15
REMARK    2  A    between atoms: C_6  and  C_23
REMARK                            x       y       z     vdW  Elec       q    Type
REMARK                         _______ _______ _______ _____ _____    ______ ____
ROOT
ATOM      1  N   UNL     1      33.071 -13.038 -23.507  0.00  0.00    -0.286 N 
ATOM      2  N   UNL     1      32.293 -11.255 -22.159  0.00  0.00    -0.386 NA
ATOM      3  N   UNL     1      32.863  -9.462 -24.239  0.00  0.00    -0.246 NA
ATOM      4  N   UNL     1      33.634 -11.270 -25.567  0.00  0.00    -0.340 N 
ATOM      5  C   UNL     1      32.812 -11.666 -23.333  0.00  0.00    +0.214 C 
ATOM      6  C   UNL     1      32.064  -9.932 -22.042  0.00  0.00    +0.135 C 
ATOM      7  C   UNL     1      33.091 -10.786 -24.355  0.00  0.00    +0.166 C 
ATOM      8  C   UNL     1      32.345  -9.051 -23.065  0.00  0.00    +0.185 C 
ATOM      9  H   UNL     1      32.991 -13.340 -24.441  0.00  0.00    +0.155 HD
ATOM     10  H   UNL     1      33.836 -10.645 -26.301  0.00  0.00    +0.144 HD
ATOM     11  H   UNL     1      33.811 -12.232 -25.677  0.00  0.00    +0.144 HD
ENDROOT
BRANCH   1  15
ATOM     12  N   UNL     1      34.513 -17.209 -20.171  0.00  0.00    -0.312 N 
ATOM     13  C   UNL     1      34.261 -16.302 -22.193  0.00  0.00    +0.016 C 
ATOM     14  C   UNL     1      34.106 -16.067 -20.825  0.00  0.00    +0.048 C 
ATOM     15  C   UNL     1      33.422 -14.067 -22.604  0.00  0.00    +0.050 C 
ATOM     16  C   UNL     1      33.912 -15.280 -23.100  0.00  0.00    +0.016 C 
ATOM     17  C   UNL     1      33.618 -14.859 -20.316  0.00  0.00    +0.016 C 
ATOM     18  C   UNL     1      33.277 -13.861 -21.234  0.00  0.00    +0.016 C 
ATOM     19  C   UNL     1      34.775 -17.621 -22.336  0.00  0.00    +0.017 C 
ATOM     20  C   UNL     1      34.919 -18.153 -21.075  0.00  0.00    +0.062 C 
ATOM     21  H   UNL     1      34.511 -17.328 -19.194  0.00  0.00    +0.152 HD
ENDBRANCH   1  15
BRANCH   6  23
ATOM     22  N   UNL     1      30.444  -8.646 -18.346  0.00  0.00    -0.242 NA
ATOM     23  C   UNL     1      31.513  -9.495 -20.785  0.00  0.00    +0.031 C 
ATOM     24  C   UNL     1      30.898 -10.409 -19.937  0.00  0.00    +0.023 C 
ATOM     25  C   UNL     1      31.596  -8.157 -20.415  0.00  0.00    +0.023 C 
ATOM     26  C   UNL     1      30.384  -9.938 -18.740  0.00  0.00    +0.099 C 
ATOM     27  C   UNL     1      31.050  -7.787 -19.196  0.00  0.00    +0.099 C 
ENDBRANCH   6  23
TORSDOF 2
ENDMDL
