MODEL 1
REMARK VINA RESULT:     -12.7      0.000      0.000
REMARK  Name = 44141871
REMARK  6 active torsions:
REMARK  status: ('A' for Active; 'I' for Inactive)
REMARK    1  A    between atoms: C_1  and  C_10
REMARK    2  A    between atoms: C_4  and  O_20
REMARK    3  A    between atoms: C_9  and  C_13
REMARK    4  A    between atoms: C_13  and  C_15
REMARK    5  A    between atoms: O_20  and  C_21
REMARK    6  A    between atoms: C_21  and  C_23
REMARK                            x       y       z     vdW  Elec       q    Type
REMARK                         _______ _______ _______ _____ _____    ______ ____
ROOT
ATOM      1  C   UNL     1      34.087 -18.485 -21.393  0.00  0.00    +0.015 C 
ATOM      2  C   UNL     1      35.321 -18.789 -20.819  0.00  0.00    +0.004 C 
ATOM      3  C   UNL     1      32.939 -19.155 -20.971  0.00  0.00    +0.004 C 
ATOM      4  C   UNL     1      34.258 -20.430 -19.400  0.00  0.00    +0.139 C 
ATOM      5  C   UNL     1      35.407 -19.761 -19.822  0.00  0.00    +0.037 C 
ATOM      6  C   UNL     1      33.024 -20.127 -19.975  0.00  0.00    +0.037 C 
ENDROOT
BRANCH   1  10
ATOM      7  N   UNL     1      33.867 -17.790 -23.744  0.00  0.00    -0.236 N 
ATOM      8  N   UNL     1      33.803 -16.716 -24.551  0.00  0.00    -0.180 NA
ATOM      9  C   UNL     1      34.025 -16.107 -22.360  0.00  0.00    +0.018 C 
ATOM     10  C   UNL     1      33.999 -17.479 -22.423  0.00  0.00    +0.063 C 
ATOM     11  C   UNL     1      33.900 -15.691 -23.700  0.00  0.00    +0.115 C 
ATOM     12  H   UNL     1      33.821 -18.716 -24.077  0.00  0.00    +0.174 HD
BRANCH   9  13
ATOM     13  C   UNL     1      34.154 -15.252 -21.168  0.00  0.00    +0.056 C 
BRANCH  13  15
ATOM     14  N   UNL     1      31.238 -12.076 -20.916  0.00  0.00    -0.242 NA
ATOM     15  C   UNL     1      33.125 -14.132 -21.079  0.00  0.00    -0.015 C 
ATOM     16  C   UNL     1      33.082 -13.146 -22.059  0.00  0.00    +0.017 C 
ATOM     17  C   UNL     1      32.227 -14.091 -20.019  0.00  0.00    +0.017 C 
ATOM     18  C   UNL     1      32.128 -12.149 -21.932  0.00  0.00    +0.099 C 
ATOM     19  C   UNL     1      31.311 -13.052 -19.984  0.00  0.00    +0.099 C 
ENDBRANCH  13  15
ENDBRANCH   9  13
ENDBRANCH   1  10
BRANCH   4  20
ATOM     20  O   UNL     1      34.341 -21.383 -18.419  0.00  0.00    -0.468 OA
BRANCH  20  21
ATOM     21  C   UNL     1      33.359 -22.410 -18.439  0.00  0.00    +0.264 C 
BRANCH  21  23
ATOM     22  N   UNL     1      31.432 -22.538 -16.979  0.00  0.00    -0.406 NA
ATOM     23  C   UNL     1      32.781 -22.569 -17.072  0.00  0.00    +0.152 C 
ATOM     24  C   UNL     1      31.654 -22.853 -14.601  0.00  0.00    +0.026 C 
ATOM     25  C   UNL     1      30.874 -22.678 -15.762  0.00  0.00    +0.113 C 
ATOM     26  C   UNL     1      33.626 -22.735 -15.994  0.00  0.00    +0.031 C 
ATOM     27  C   UNL     1      33.049 -22.879 -14.741  0.00  0.00    +0.005 C 
ATOM     28  C   UNL     1      31.038 -22.997 -13.347  0.00  0.00    +0.002 C 
ATOM     29  C   UNL     1      29.488 -22.652 -15.622  0.00  0.00    +0.085 C 
ATOM     30  C   UNL     1      29.651 -22.967 -13.236  0.00  0.00    -0.004 C 
ATOM     31  C   UNL     1      28.875 -22.795 -14.375  0.00  0.00    -0.019 C 
ENDBRANCH  21  23
ENDBRANCH  20  21
ENDBRANCH   4  20
TORSDOF 6
ENDMDL
MODEL 2
REMARK VINA RESULT:     -12.6      2.037      9.944
REMARK  Name = 44141871
REMARK  6 active torsions:
REMARK  status: ('A' for Active; 'I' for Inactive)
REMARK    1  A    between atoms: C_1  and  C_10
REMARK    2  A    between atoms: C_4  and  O_20
REMARK    3  A    between atoms: C_9  and  C_13
REMARK    4  A    between atoms: C_13  and  C_15
REMARK    5  A    between atoms: O_20  and  C_21
REMARK    6  A    between atoms: C_21  and  C_23
REMARK                            x       y       z     vdW  Elec       q    Type
REMARK                         _______ _______ _______ _____ _____    ______ ____
ROOT
ATOM      1  C   UNL     1      33.656 -22.529 -16.321  0.00  0.00    +0.015 C 
ATOM      2  C   UNL     1      32.561 -22.411 -17.177  0.00  0.00    +0.004 C 
ATOM      3  C   UNL     1      34.882 -21.967 -16.676  0.00  0.00    +0.004 C 
ATOM      4  C   UNL     1      33.918 -21.167 -18.742  0.00  0.00    +0.139 C 
ATOM      5  C   UNL     1      32.692 -21.729 -18.387  0.00  0.00    +0.037 C 
ATOM      6  C   UNL     1      35.013 -21.286 -17.886  0.00  0.00    +0.037 C 
ENDROOT
BRANCH   1  10
ATOM      7  N   UNL     1      34.417 -24.171 -14.653  0.00  0.00    -0.236 N 
ATOM      8  N   UNL     1      34.118 -24.718 -13.461  0.00  0.00    -0.180 NA
ATOM      9  C   UNL     1      32.566 -23.160 -14.083  0.00  0.00    +0.018 C 
ATOM     10  C   UNL     1      33.519 -23.233 -15.070  0.00  0.00    +0.063 C 
ATOM     11  C   UNL     1      32.986 -24.096 -13.118  0.00  0.00    +0.115 C 
ATOM     12  H   UNL     1      35.212 -24.425 -15.176  0.00  0.00    +0.174 HD
BRANCH   9  13
ATOM     13  C   UNL     1      31.370 -22.303 -14.034  0.00  0.00    +0.056 C 
BRANCH  13  15
ATOM     14  N   UNL     1      27.694 -24.285 -15.133  0.00  0.00    -0.242 NA
ATOM     15  C   UNL     1      30.073 -23.002 -14.422  0.00  0.00    -0.015 C 
ATOM     16  C   UNL     1      29.275 -22.480 -15.434  0.00  0.00    +0.017 C 
ATOM     17  C   UNL     1      29.683 -24.164 -13.765  0.00  0.00    +0.017 C 
ATOM     18  C   UNL     1      28.106 -23.154 -15.749  0.00  0.00    +0.099 C 
ATOM     19  C   UNL     1      28.496 -24.762 -14.155  0.00  0.00    +0.099 C 
ENDBRANCH  13  15
ENDBRANCH   9  13
ENDBRANCH   1  10
BRANCH   4  20
ATOM     20  O   UNL     1      34.046 -20.495 -19.928  0.00  0.00    -0.468 OA
BRANCH  20  21
ATOM     21  C   UNL     1      35.094 -19.539 -20.013  0.00  0.00    +0.264 C 
BRANCH  21  23
ATOM     22  N   UNL     1      34.446 -17.233 -20.364  0.00  0.00    -0.406 NA
ATOM     23  C   UNL     1      34.687 -18.436 -20.933  0.00  0.00    +0.152 C 
ATOM     24  C   UNL     1      33.936 -16.373 -22.555  0.00  0.00    +0.026 C 
ATOM     25  C   UNL     1      34.076 -16.214 -21.161  0.00  0.00    +0.113 C 
ATOM     26  C   UNL     1      34.576 -18.689 -22.285  0.00  0.00    +0.031 C 
ATOM     27  C   UNL     1      34.194 -17.637 -23.105  0.00  0.00    +0.005 C 
ATOM     28  C   UNL     1      33.547 -15.287 -23.358  0.00  0.00    +0.002 C 
ATOM     29  C   UNL     1      33.819 -14.958 -20.617  0.00  0.00    +0.085 C 
ATOM     30  C   UNL     1      33.296 -14.043 -22.787  0.00  0.00    -0.004 C 
ATOM     31  C   UNL     1      33.433 -13.878 -21.414  0.00  0.00    -0.019 C 
ENDBRANCH  21  23
ENDBRANCH  20  21
ENDBRANCH   4  20
TORSDOF 6
ENDMDL
MODEL 3
REMARK VINA RESULT:     -12.3      2.278     10.447
REMARK  Name = 44141871
REMARK  6 active torsions:
REMARK  status: ('A' for Active; 'I' for Inactive)
REMARK    1  A    between atoms: C_1  and  C_10
REMARK    2  A    between atoms: C_4  and  O_20
REMARK    3  A    between atoms: C_9  and  C_13
REMARK    4  A    between atoms: C_13  and  C_15
REMARK    5  A    between atoms: O_20  and  C_21
REMARK    6  A    between atoms: C_21  and  C_23
REMARK                            x       y       z     vdW  Elec       q    Type
REMARK                         _______ _______ _______ _____ _____    ______ ____
ROOT
ATOM      1  C   UNL     1      33.111 -21.569 -17.928  0.00  0.00    +0.015 C 
ATOM      2  C   UNL     1      34.484 -21.540 -18.173  0.00  0.00    +0.004 C 
ATOM      3  C   UNL     1      32.241 -20.853 -18.751  0.00  0.00    +0.004 C 
ATOM      4  C   UNL     1      34.117 -20.083 -20.065  0.00  0.00    +0.139 C 
ATOM      5  C   UNL     1      34.987 -20.799 -19.241  0.00  0.00    +0.037 C 
ATOM      6  C   UNL     1      32.744 -20.112 -19.820  0.00  0.00    +0.037 C 
ENDROOT
BRANCH   1  10
ATOM      7  N   UNL     1      31.284 -22.717 -16.743  0.00  0.00    -0.236 N 
ATOM      8  N   UNL     1      30.992 -23.425 -15.638  0.00  0.00    -0.180 NA
ATOM      9  C   UNL     1      33.197 -22.828 -15.692  0.00  0.00    +0.018 C 
ATOM     10  C   UNL     1      32.591 -22.336 -16.823  0.00  0.00    +0.063 C 
ATOM     11  C   UNL     1      32.164 -23.490 -15.000  0.00  0.00    +0.115 C 
ATOM     12  H   UNL     1      30.616 -22.494 -17.431  0.00  0.00    +0.174 HD
BRANCH   9  13
ATOM     13  C   UNL     1      34.606 -22.701 -15.284  0.00  0.00    +0.056 C 
BRANCH  13  15
ATOM     14  N   UNL     1      35.726 -25.159 -11.914  0.00  0.00    -0.242 NA
ATOM     15  C   UNL     1      35.001 -23.568 -14.096  0.00  0.00    -0.015 C 
ATOM     16  C   UNL     1      34.774 -23.119 -12.799  0.00  0.00    +0.017 C 
ATOM     17  C   UNL     1      35.589 -24.810 -14.303  0.00  0.00    +0.017 C 
ATOM     18  C   UNL     1      35.152 -23.945 -11.753  0.00  0.00    +0.099 C 
ATOM     19  C   UNL     1      35.931 -25.560 -13.189  0.00  0.00    +0.099 C 
ENDBRANCH  13  15
ENDBRANCH   9  13
ENDBRANCH   1  10
BRANCH   4  20
ATOM     20  O   UNL     1      34.611 -19.358 -21.116  0.00  0.00    -0.468 OA
BRANCH  20  21
ATOM     21  C   UNL     1      34.930 -17.996 -20.861  0.00  0.00    +0.264 C 
BRANCH  21  23
ATOM     22  N   UNL     1      34.233 -15.819 -21.659  0.00  0.00    -0.406 NA
ATOM     23  C   UNL     1      34.341 -17.139 -21.933  0.00  0.00    +0.152 C 
ATOM     24  C   UNL     1      33.273 -15.513 -23.847  0.00  0.00    +0.026 C 
ATOM     25  C   UNL     1      33.707 -15.015 -22.602  0.00  0.00    +0.113 C 
ATOM     26  C   UNL     1      33.945 -17.718 -23.120  0.00  0.00    +0.031 C 
ATOM     27  C   UNL     1      33.402 -16.887 -24.090  0.00  0.00    +0.005 C 
ATOM     28  C   UNL     1      32.729 -14.644 -24.809  0.00  0.00    +0.002 C 
ATOM     29  C   UNL     1      33.578 -13.649 -22.361  0.00  0.00    +0.085 C 
ATOM     30  C   UNL     1      32.611 -13.283 -24.542  0.00  0.00    -0.004 C 
ATOM     31  C   UNL     1      33.037 -12.785 -23.317  0.00  0.00    -0.019 C 
ENDBRANCH  21  23
ENDBRANCH  20  21
ENDBRANCH   4  20
TORSDOF 6
ENDMDL
MODEL 4
REMARK VINA RESULT:     -12.1      1.752      2.303
REMARK  Name = 44141871
REMARK  6 active torsions:
REMARK  status: ('A' for Active; 'I' for Inactive)
REMARK    1  A    between atoms: C_1  and  C_10
REMARK    2  A    between atoms: C_4  and  O_20
REMARK    3  A    between atoms: C_9  and  C_13
REMARK    4  A    between atoms: C_13  and  C_15
REMARK    5  A    between atoms: O_20  and  C_21
REMARK    6  A    between atoms: C_21  and  C_23
REMARK                            x       y       z     vdW  Elec       q    Type
REMARK                         _______ _______ _______ _____ _____    ______ ____
ROOT
ATOM      1  C   UNL     1      34.369 -18.058 -21.692  0.00  0.00    +0.015 C 
ATOM      2  C   UNL     1      35.678 -18.118 -21.215  0.00  0.00    +0.004 C 
ATOM      3  C   UNL     1      33.416 -18.966 -21.229  0.00  0.00    +0.004 C 
ATOM      4  C   UNL     1      35.081 -19.992 -19.811  0.00  0.00    +0.139 C 
ATOM      5  C   UNL     1      36.034 -19.084 -20.274  0.00  0.00    +0.037 C 
ATOM      6  C   UNL     1      33.772 -19.932 -20.289  0.00  0.00    +0.037 C 
ENDROOT
BRANCH   1  10
ATOM      7  N   UNL     1      33.727 -17.363 -23.965  0.00  0.00    -0.236 N 
ATOM      8  N   UNL     1      33.405 -16.296 -24.717  0.00  0.00    -0.180 NA
ATOM      9  C   UNL     1      33.848 -15.697 -22.557  0.00  0.00    +0.018 C 
ATOM     10  C   UNL     1      34.001 -17.058 -22.664  0.00  0.00    +0.063 C 
ATOM     11  C   UNL     1      33.481 -15.281 -23.851  0.00  0.00    +0.115 C 
ATOM     12  H   UNL     1      33.761 -18.280 -24.321  0.00  0.00    +0.174 HD
BRANCH   9  13
ATOM     13  C   UNL     1      34.026 -14.851 -21.364  0.00  0.00    +0.056 C 
BRANCH  13  15
ATOM     14  N   UNL     1      30.973 -11.844 -20.827  0.00  0.00    -0.242 NA
ATOM     15  C   UNL     1      32.949 -13.791 -21.174  0.00  0.00    -0.015 C 
ATOM     16  C   UNL     1      32.803 -12.771 -22.109  0.00  0.00    +0.017 C 
ATOM     17  C   UNL     1      32.109 -13.838 -20.068  0.00  0.00    +0.017 C 
ATOM     18  C   UNL     1      31.809 -11.831 -21.890  0.00  0.00    +0.099 C 
ATOM     19  C   UNL     1      31.146 -12.850 -19.941  0.00  0.00    +0.099 C 
ENDBRANCH  13  15
ENDBRANCH   9  13
ENDBRANCH   1  10
BRANCH   4  20
ATOM     20  O   UNL     1      35.430 -20.939 -18.886  0.00  0.00    -0.468 OA
BRANCH  20  21
ATOM     21  C   UNL     1      34.366 -21.636 -18.250  0.00  0.00    +0.264 C 
BRANCH  21  23
ATOM     22  N   UNL     1      33.835 -22.614 -16.101  0.00  0.00    -0.406 NA
ATOM     23  C   UNL     1      34.763 -21.981 -16.854  0.00  0.00    +0.152 C 
ATOM     24  C   UNL     1      35.421 -22.642 -14.288  0.00  0.00    +0.026 C 
ATOM     25  C   UNL     1      34.156 -22.941 -14.835  0.00  0.00    +0.113 C 
ATOM     26  C   UNL     1      36.025 -21.647 -16.407  0.00  0.00    +0.031 C 
ATOM     27  C   UNL     1      36.354 -21.985 -15.102  0.00  0.00    +0.005 C 
ATOM     28  C   UNL     1      35.723 -22.999 -12.963  0.00  0.00    +0.002 C 
ATOM     29  C   UNL     1      33.230 -23.594 -14.026  0.00  0.00    +0.085 C 
ATOM     30  C   UNL     1      34.778 -23.650 -12.175  0.00  0.00    -0.004 C 
ATOM     31  C   UNL     1      33.530 -23.949 -12.708  0.00  0.00    -0.019 C 
ENDBRANCH  21  23
ENDBRANCH  20  21
ENDBRANCH   4  20
TORSDOF 6
ENDMDL
MODEL 5
REMARK VINA RESULT:     -12.0      2.802     10.486
REMARK  Name = 44141871
REMARK  6 active torsions:
REMARK  status: ('A' for Active; 'I' for Inactive)
REMARK    1  A    between atoms: C_1  and  C_10
REMARK    2  A    between atoms: C_4  and  O_20
REMARK    3  A    between atoms: C_9  and  C_13
REMARK    4  A    between atoms: C_13  and  C_15
REMARK    5  A    between atoms: O_20  and  C_21
REMARK    6  A    between atoms: C_21  and  C_23
REMARK                            x       y       z     vdW  Elec       q    Type
REMARK                         _______ _______ _______ _____ _____    ______ ____
ROOT
ATOM      1  C   UNL     1      33.382 -22.550 -16.118  0.00  0.00    +0.015 C 
ATOM      2  C   UNL     1      32.600 -22.450 -17.269  0.00  0.00    +0.004 C 
ATOM      3  C   UNL     1      34.709 -22.120 -16.137  0.00  0.00    +0.004 C 
ATOM      4  C   UNL     1      34.472 -21.488 -18.457  0.00  0.00    +0.139 C 
ATOM      5  C   UNL     1      33.145 -21.918 -18.438  0.00  0.00    +0.037 C 
ATOM      6  C   UNL     1      35.253 -21.588 -17.306  0.00  0.00    +0.037 C 
ENDROOT
BRANCH   1  10
ATOM      7  N   UNL     1      31.589 -22.738 -14.442  0.00  0.00    -0.236 N 
ATOM      8  N   UNL     1      31.239 -23.357 -13.301  0.00  0.00    -0.180 NA
ATOM      9  C   UNL     1      33.307 -24.018 -14.013  0.00  0.00    +0.018 C 
ATOM     10  C   UNL     1      32.818 -23.099 -14.909  0.00  0.00    +0.063 C 
ATOM     11  C   UNL     1      32.292 -24.138 -13.044  0.00  0.00    +0.115 C 
ATOM     12  H   UNL     1      31.011 -22.084 -14.898  0.00  0.00    +0.174 HD
BRANCH   9  13
ATOM     13  C   UNL     1      34.598 -24.725 -14.045  0.00  0.00    +0.056 C 
BRANCH  13  15
ATOM     14  N   UNL     1      37.450 -23.388 -11.090  0.00  0.00    -0.242 NA
ATOM     15  C   UNL     1      35.604 -24.253 -13.003  0.00  0.00    -0.015 C 
ATOM     16  C   UNL     1      36.765 -24.983 -12.774  0.00  0.00    +0.017 C 
ATOM     17  C   UNL     1      35.365 -23.092 -12.278  0.00  0.00    +0.017 C 
ATOM     18  C   UNL     1      37.648 -24.512 -11.815  0.00  0.00    +0.099 C 
ATOM     19  C   UNL     1      36.310 -22.705 -11.341  0.00  0.00    +0.099 C 
ENDBRANCH  13  15
ENDBRANCH   9  13
ENDBRANCH   1  10
BRANCH   4  20
ATOM     20  O   UNL     1      35.006 -20.963 -19.603  0.00  0.00    -0.468 OA
BRANCH  20  21
ATOM     21  C   UNL     1      35.443 -19.612 -19.547  0.00  0.00    +0.264 C 
BRANCH  21  23
ATOM     22  N   UNL     1      34.748 -17.526 -20.560  0.00  0.00    -0.406 NA
ATOM     23  C   UNL     1      34.891 -18.862 -20.713  0.00  0.00    +0.152 C 
ATOM     24  C   UNL     1      33.885 -17.428 -22.807  0.00  0.00    +0.026 C 
ATOM     25  C   UNL     1      34.252 -16.816 -21.591  0.00  0.00    +0.113 C 
ATOM     26  C   UNL     1      34.559 -19.549 -21.863  0.00  0.00    +0.031 C 
ATOM     27  C   UNL     1      34.049 -18.815 -22.924  0.00  0.00    +0.005 C 
ATOM     28  C   UNL     1      33.371 -16.656 -23.863  0.00  0.00    +0.002 C 
ATOM     29  C   UNL     1      34.089 -15.438 -21.475  0.00  0.00    +0.085 C 
ATOM     30  C   UNL     1      33.218 -15.280 -23.720  0.00  0.00    -0.004 C 
ATOM     31  C   UNL     1      33.578 -14.670 -22.525  0.00  0.00    -0.019 C 
ENDBRANCH  21  23
ENDBRANCH  20  21
ENDBRANCH   4  20
TORSDOF 6
ENDMDL
MODEL 6
REMARK VINA RESULT:     -12.0      2.757     10.597
REMARK  Name = 44141871
REMARK  6 active torsions:
REMARK  status: ('A' for Active; 'I' for Inactive)
REMARK    1  A    between atoms: C_1  and  C_10
REMARK    2  A    between atoms: C_4  and  O_20
REMARK    3  A    between atoms: C_9  and  C_13
REMARK    4  A    between atoms: C_13  and  C_15
REMARK    5  A    between atoms: O_20  and  C_21
REMARK    6  A    between atoms: C_21  and  C_23
REMARK                            x       y       z     vdW  Elec       q    Type
REMARK                         _______ _______ _______ _____ _____    ______ ____
ROOT
ATOM      1  C   UNL     1      33.266 -22.611 -16.005  0.00  0.00    +0.015 C 
ATOM      2  C   UNL     1      34.583 -22.174 -16.151  0.00  0.00    +0.004 C 
ATOM      3  C   UNL     1      32.381 -22.527 -17.080  0.00  0.00    +0.004 C 
ATOM      4  C   UNL     1      34.129 -21.569 -18.446  0.00  0.00    +0.139 C 
ATOM      5  C   UNL     1      35.014 -21.654 -17.371  0.00  0.00    +0.037 C 
ATOM      6  C   UNL     1      32.812 -22.007 -18.300  0.00  0.00    +0.037 C 
ENDROOT
BRANCH   1  10
ATOM      7  N   UNL     1      31.528 -23.518 -14.517  0.00  0.00    -0.236 N 
ATOM      8  N   UNL     1      31.308 -23.996 -13.280  0.00  0.00    -0.180 NA
ATOM      9  C   UNL     1      33.495 -23.403 -13.574  0.00  0.00    +0.018 C 
ATOM     10  C   UNL     1      32.821 -23.150 -14.743  0.00  0.00    +0.063 C 
ATOM     11  C   UNL     1      32.513 -23.924 -12.708  0.00  0.00    +0.115 C 
ATOM     12  H   UNL     1      30.820 -23.441 -15.197  0.00  0.00    +0.174 HD
BRANCH   9  13
ATOM     13  C   UNL     1      34.921 -23.185 -13.278  0.00  0.00    +0.056 C 
BRANCH  13  15
ATOM     14  N   UNL     1      37.428 -26.648 -13.890  0.00  0.00    -0.242 NA
ATOM     15  C   UNL     1      35.805 -24.406 -13.494  0.00  0.00    -0.015 C 
ATOM     16  C   UNL     1      35.332 -25.490 -14.226  0.00  0.00    +0.017 C 
ATOM     17  C   UNL     1      37.088 -24.442 -12.960  0.00  0.00    +0.017 C 
ATOM     18  C   UNL     1      36.175 -26.576 -14.394  0.00  0.00    +0.099 C 
ATOM     19  C   UNL     1      37.853 -25.576 -13.185  0.00  0.00    +0.099 C 
ENDBRANCH  13  15
ENDBRANCH   9  13
ENDBRANCH   1  10
BRANCH   4  20
ATOM     20  O   UNL     1      34.553 -21.061 -19.645  0.00  0.00    -0.468 OA
BRANCH  20  21
ATOM     21  C   UNL     1      35.223 -19.808 -19.609  0.00  0.00    +0.264 C 
BRANCH  21  23
ATOM     22  N   UNL     1      34.622 -17.636 -20.491  0.00  0.00    -0.406 NA
ATOM     23  C   UNL     1      34.749 -18.959 -20.741  0.00  0.00    +0.152 C 
ATOM     24  C   UNL     1      33.884 -17.346 -22.766  0.00  0.00    +0.026 C 
ATOM     25  C   UNL     1      34.196 -16.838 -21.488  0.00  0.00    +0.113 C 
ATOM     26  C   UNL     1      34.467 -19.548 -21.956  0.00  0.00    +0.031 C 
ATOM     27  C   UNL     1      34.028 -18.723 -22.982  0.00  0.00    +0.005 C 
ATOM     28  C   UNL     1      33.442 -16.483 -23.784  0.00  0.00    +0.002 C 
ATOM     29  C   UNL     1      34.053 -15.469 -21.274  0.00  0.00    +0.085 C 
ATOM     30  C   UNL     1      33.307 -15.119 -23.542  0.00  0.00    -0.004 C 
ATOM     31  C   UNL     1      33.614 -14.612 -22.286  0.00  0.00    -0.019 C 
ENDBRANCH  21  23
ENDBRANCH  20  21
ENDBRANCH   4  20
TORSDOF 6
ENDMDL
MODEL 7
REMARK VINA RESULT:     -12.0      1.551      2.477
REMARK  Name = 44141871
REMARK  6 active torsions:
REMARK  status: ('A' for Active; 'I' for Inactive)
REMARK    1  A    between atoms: C_1  and  C_10
REMARK    2  A    between atoms: C_4  and  O_20
REMARK    3  A    between atoms: C_9  and  C_13
REMARK    4  A    between atoms: C_13  and  C_15
REMARK    5  A    between atoms: O_20  and  C_21
REMARK    6  A    between atoms: C_21  and  C_23
REMARK                            x       y       z     vdW  Elec       q    Type
REMARK                         _______ _______ _______ _____ _____    ______ ____
ROOT
ATOM      1  C   UNL     1      33.928 -19.063 -21.094  0.00  0.00    +0.015 C 
ATOM      2  C   UNL     1      35.174 -19.402 -20.566  0.00  0.00    +0.004 C 
ATOM      3  C   UNL     1      32.767 -19.603 -20.541  0.00  0.00    +0.004 C 
ATOM      4  C   UNL     1      34.097 -20.822 -18.934  0.00  0.00    +0.139 C 
ATOM      5  C   UNL     1      35.258 -20.281 -19.486  0.00  0.00    +0.037 C 
ATOM      6  C   UNL     1      32.851 -20.482 -19.461  0.00  0.00    +0.037 C 
ENDROOT
BRANCH   1  10
ATOM      7  N   UNL     1      33.602 -18.576 -23.484  0.00  0.00    -0.236 N 
ATOM      8  N   UNL     1      33.559 -17.580 -24.387  0.00  0.00    -0.180 NA
ATOM      9  C   UNL     1      33.964 -16.787 -22.282  0.00  0.00    +0.018 C 
ATOM     10  C   UNL     1      33.841 -18.154 -22.210  0.00  0.00    +0.063 C 
ATOM     11  C   UNL     1      33.780 -16.490 -23.647  0.00  0.00    +0.115 C 
ATOM     12  H   UNL     1      33.473 -19.522 -23.722  0.00  0.00    +0.174 HD
BRANCH   9  13
ATOM     13  C   UNL     1      34.227 -15.837 -21.188  0.00  0.00    +0.056 C 
BRANCH  13  15
ATOM     14  N   UNL     1      31.902 -12.202 -21.373  0.00  0.00    -0.242 NA
ATOM     15  C   UNL     1      33.407 -14.555 -21.254  0.00  0.00    -0.015 C 
ATOM     16  C   UNL     1      33.476 -13.739 -22.378  0.00  0.00    +0.017 C 
ATOM     17  C   UNL     1      32.588 -14.195 -20.190  0.00  0.00    +0.017 C 
ATOM     18  C   UNL     1      32.710 -12.584 -22.388  0.00  0.00    +0.099 C 
ATOM     19  C   UNL     1      31.862 -13.020 -20.298  0.00  0.00    +0.099 C 
ENDBRANCH  13  15
ENDBRANCH   9  13
ENDBRANCH   1  10
BRANCH   4  20
ATOM     20  O   UNL     1      34.179 -21.682 -17.871  0.00  0.00    -0.468 OA
BRANCH  20  21
ATOM     21  C   UNL     1      32.985 -22.359 -17.501  0.00  0.00    +0.264 C 
BRANCH  21  23
ATOM     22  N   UNL     1      34.326 -23.041 -15.605  0.00  0.00    -0.406 NA
ATOM     23  C   UNL     1      33.083 -22.794 -16.077  0.00  0.00    +0.152 C 
ATOM     24  C   UNL     1      33.337 -23.595 -13.480  0.00  0.00    +0.026 C 
ATOM     25  C   UNL     1      34.454 -23.436 -14.324  0.00  0.00    +0.113 C 
ATOM     26  C   UNL     1      31.931 -22.923 -15.328  0.00  0.00    +0.031 C 
ATOM     27  C   UNL     1      32.066 -23.330 -14.009  0.00  0.00    +0.005 C 
ATOM     28  C   UNL     1      33.507 -24.008 -12.147  0.00  0.00    +0.002 C 
ATOM     29  C   UNL     1      35.716 -23.700 -13.798  0.00  0.00    +0.085 C 
ATOM     30  C   UNL     1      34.780 -24.266 -11.647  0.00  0.00    -0.004 C 
ATOM     31  C   UNL     1      35.886 -24.111 -12.473  0.00  0.00    -0.019 C 
ENDBRANCH  21  23
ENDBRANCH  20  21
ENDBRANCH   4  20
TORSDOF 6
ENDMDL
MODEL 8
REMARK VINA RESULT:     -11.9      3.119      6.529
REMARK  Name = 44141871
REMARK  6 active torsions:
REMARK  status: ('A' for Active; 'I' for Inactive)
REMARK    1  A    between atoms: C_1  and  C_10
REMARK    2  A    between atoms: C_4  and  O_20
REMARK    3  A    between atoms: C_9  and  C_13
REMARK    4  A    between atoms: C_13  and  C_15
REMARK    5  A    between atoms: O_20  and  C_21
REMARK    6  A    between atoms: C_21  and  C_23
REMARK                            x       y       z     vdW  Elec       q    Type
REMARK                         _______ _______ _______ _____ _____    ______ ____
ROOT
ATOM      1  C   UNL     1      32.184 -12.894 -21.529  0.00  0.00    +0.015 C 
ATOM      2  C   UNL     1      32.320 -13.292 -22.859  0.00  0.00    +0.004 C 
ATOM      3  C   UNL     1      32.839 -13.601 -20.520  0.00  0.00    +0.004 C 
ATOM      4  C   UNL     1      33.764 -15.103 -22.170  0.00  0.00    +0.139 C 
ATOM      5  C   UNL     1      33.110 -14.396 -23.179  0.00  0.00    +0.037 C 
ATOM      6  C   UNL     1      33.629 -14.705 -20.840  0.00  0.00    +0.037 C 
ENDROOT
BRANCH   1  10
ATOM      7  N   UNL     1      30.309 -11.830 -20.342  0.00  0.00    -0.236 N 
ATOM      8  N   UNL     1      29.670 -10.660 -20.161  0.00  0.00    -0.180 NA
ATOM      9  C   UNL     1      31.427 -10.442 -21.606  0.00  0.00    +0.018 C 
ATOM     10  C   UNL     1      31.368 -11.752 -21.198  0.00  0.00    +0.063 C 
ATOM     11  C   UNL     1      30.358  -9.816 -20.935  0.00  0.00    +0.115 C 
ATOM     12  H   UNL     1      30.037 -12.665 -19.896  0.00  0.00    +0.174 HD
BRANCH   9  13
ATOM     13  C   UNL     1      32.385  -9.819 -22.535  0.00  0.00    +0.056 C 
BRANCH  13  15
ATOM     14  N   UNL     1      31.924  -5.550 -22.991  0.00  0.00    -0.242 NA
ATOM     15  C   UNL     1      32.222  -8.313 -22.696  0.00  0.00    -0.015 C 
ATOM     16  C   UNL     1      32.643  -7.455 -21.686  0.00  0.00    +0.017 C 
ATOM     17  C   UNL     1      31.654  -7.792 -23.852  0.00  0.00    +0.017 C 
ATOM     18  C   UNL     1      32.472  -6.094 -21.880  0.00  0.00    +0.099 C 
ATOM     19  C   UNL     1      31.528  -6.416 -23.950  0.00  0.00    +0.099 C 
ENDBRANCH  13  15
ENDBRANCH   9  13
ENDBRANCH   1  10
BRANCH   4  20
ATOM     20  O   UNL     1      34.543 -16.184 -22.485  0.00  0.00    -0.468 OA
BRANCH  20  21
ATOM     21  C   UNL     1      33.870 -17.421 -22.688  0.00  0.00    +0.264 C 
BRANCH  21  23
ATOM     22  N   UNL     1      33.233 -19.070 -21.034  0.00  0.00    -0.406 NA
ATOM     23  C   UNL     1      34.244 -18.372 -21.600  0.00  0.00    +0.152 C 
ATOM     24  C   UNL     1      34.855 -20.131 -19.604  0.00  0.00    +0.026 C 
ATOM     25  C   UNL     1      33.531 -19.938 -20.049  0.00  0.00    +0.113 C 
ATOM     26  C   UNL     1      35.568 -18.493 -21.232  0.00  0.00    +0.031 C 
ATOM     27  C   UNL     1      35.873 -19.388 -20.217  0.00  0.00    +0.005 C 
ATOM     28  C   UNL     1      35.130 -21.046 -18.573  0.00  0.00    +0.002 C 
ATOM     29  C   UNL     1      32.520 -20.676 -19.439  0.00  0.00    +0.085 C 
ATOM     30  C   UNL     1      34.100 -21.771 -17.981  0.00  0.00    -0.004 C 
ATOM     31  C   UNL     1      32.794 -21.586 -18.415  0.00  0.00    -0.019 C 
ENDBRANCH  21  23
ENDBRANCH  20  21
ENDBRANCH   4  20
TORSDOF 6
ENDMDL
MODEL 9
REMARK VINA RESULT:     -11.8      1.950     10.100
REMARK  Name = 44141871
REMARK  6 active torsions:
REMARK  status: ('A' for Active; 'I' for Inactive)
REMARK    1  A    between atoms: C_1  and  C_10
REMARK    2  A    between atoms: C_4  and  O_20
REMARK    3  A    between atoms: C_9  and  C_13
REMARK    4  A    between atoms: C_13  and  C_15
REMARK    5  A    between atoms: O_20  and  C_21
REMARK    6  A    between atoms: C_21  and  C_23
REMARK                            x       y       z     vdW  Elec       q    Type
REMARK                         _______ _______ _______ _____ _____    ______ ____
ROOT
ATOM      1  C   UNL     1      33.811 -21.472 -17.916  0.00  0.00    +0.015 C 
ATOM      2  C   UNL     1      34.909 -20.981 -18.623  0.00  0.00    +0.004 C 
ATOM      3  C   UNL     1      32.519 -21.227 -18.380  0.00  0.00    +0.004 C 
ATOM      4  C   UNL     1      33.422 -20.003 -20.256  0.00  0.00    +0.139 C 
ATOM      5  C   UNL     1      34.715 -20.247 -19.793  0.00  0.00    +0.037 C 
ATOM      6  C   UNL     1      32.324 -20.493 -19.550  0.00  0.00    +0.037 C 
ENDROOT
BRANCH   1  10
ATOM      7  N   UNL     1      35.249 -22.450 -16.174  0.00  0.00    -0.236 N 
ATOM      8  N   UNL     1      35.233 -23.181 -15.046  0.00  0.00    -0.180 NA
ATOM      9  C   UNL     1      33.125 -22.863 -15.870  0.00  0.00    +0.018 C 
ATOM     10  C   UNL     1      34.013 -22.231 -16.707  0.00  0.00    +0.063 C 
ATOM     11  C   UNL     1      33.933 -23.430 -14.865  0.00  0.00    +0.115 C 
ATOM     12  H   UNL     1      36.078 -22.104 -16.578  0.00  0.00    +0.174 HD
BRANCH   9  13
ATOM     13  C   UNL     1      31.659 -22.938 -15.986  0.00  0.00    +0.056 C 
BRANCH  13  15
ATOM     14  N   UNL     1      29.628 -24.051 -12.341  0.00  0.00    -0.242 NA
ATOM     15  C   UNL     1      30.943 -23.330 -14.700  0.00  0.00    -0.015 C 
ATOM     16  C   UNL     1      31.086 -22.553 -13.556  0.00  0.00    +0.017 C 
ATOM     17  C   UNL     1      30.143 -24.467 -14.666  0.00  0.00    +0.017 C 
ATOM     18  C   UNL     1      30.414 -22.953 -12.413  0.00  0.00    +0.099 C 
ATOM     19  C   UNL     1      29.513 -24.781 -13.473  0.00  0.00    +0.099 C 
ENDBRANCH  13  15
ENDBRANCH   9  13
ENDBRANCH   1  10
BRANCH   4  20
ATOM     20  O   UNL     1      33.230 -19.285 -21.407  0.00  0.00    -0.468 OA
BRANCH  20  21
ATOM     21  C   UNL     1      34.364 -18.610 -21.937  0.00  0.00    +0.264 C 
BRANCH  21  23
ATOM     22  N   UNL     1      33.668 -16.732 -23.296  0.00  0.00    -0.406 NA
ATOM     23  C   UNL     1      34.057 -17.156 -22.072  0.00  0.00    +0.152 C 
ATOM     24  C   UNL     1      33.481 -14.507 -22.392  0.00  0.00    +0.026 C 
ATOM     25  C   UNL     1      33.383 -15.426 -23.457  0.00  0.00    +0.113 C 
ATOM     26  C   UNL     1      34.183 -16.333 -20.972  0.00  0.00    +0.031 C 
ATOM     27  C   UNL     1      33.888 -14.987 -21.140  0.00  0.00    +0.005 C 
ATOM     28  C   UNL     1      33.175 -13.150 -22.596  0.00  0.00    +0.002 C 
ATOM     29  C   UNL     1      32.978 -14.947 -24.700  0.00  0.00    +0.085 C 
ATOM     30  C   UNL     1      32.773 -12.699 -23.850  0.00  0.00    -0.004 C 
ATOM     31  C   UNL     1      32.674 -13.599 -24.903  0.00  0.00    -0.019 C 
ENDBRANCH  21  23
ENDBRANCH  20  21
ENDBRANCH   4  20
TORSDOF 6
ENDMDL
