MODEL 1
REMARK VINA RESULT:     -13.3      0.000      0.000
REMARK  Name = 25049750
REMARK  7 active torsions:
REMARK  status: ('A' for Active; 'I' for Inactive)
REMARK    1  A    between atoms: C_1  and  C_14
REMARK    2  A    between atoms: C_6  and  O_20
REMARK    3  A    between atoms: C_10  and  C_17
REMARK    4  A    between atoms: C_17  and  O_18
REMARK    5  A    between atoms: O_20  and  C_21
REMARK    6  A    between atoms: C_21  and  C_23
REMARK    7  A    between atoms: C_27  and  C_32
REMARK                            x       y       z     vdW  Elec       q    Type
REMARK                         _______ _______ _______ _____ _____    ______ ____
ROOT
ATOM      1  C   UNL     1      34.114 -19.594 -20.919  0.00  0.00    -0.004 C 
ATOM      2  C   UNL     1      32.725 -19.553 -20.783  0.00  0.00    +0.000 C 
ATOM      3  C   UNL     1      34.885 -20.286 -19.986  0.00  0.00    +0.000 C 
ATOM      4  C   UNL     1      32.110 -20.203 -19.713  0.00  0.00    +0.037 C 
ATOM      5  C   UNL     1      34.269 -20.937 -18.917  0.00  0.00    +0.037 C 
ATOM      6  C   UNL     1      32.882 -20.897 -18.780  0.00  0.00    +0.139 C 
ENDROOT
BRANCH   1  14
ATOM      7  O   UNL     1      32.774 -17.199 -24.477  0.00  0.00    -0.275 OA
ATOM      8  N   UNL     1      33.915 -18.832 -23.246  0.00  0.00    -0.302 N 
ATOM      9  C   UNL     1      34.177 -16.662 -22.631  0.00  0.00    +0.081 C 
ATOM     10  C   UNL     1      33.392 -15.558 -22.010  0.00  0.00    +0.108 C 
ATOM     11  C   UNL     1      34.487 -15.255 -22.998  0.00  0.00    +0.021 C 
ATOM     12  C   UNL     1      35.139 -17.416 -21.789  0.00  0.00    +0.033 C 
ATOM     13  C   UNL     1      33.521 -17.549 -23.577  0.00  0.00    +0.222 C 
ATOM     14  C   UNL     1      34.780 -18.890 -22.079  0.00  0.00    +0.095 C 
ATOM     15  H   UNL     1      33.637 -19.629 -23.753  0.00  0.00    +0.150 HD
BRANCH  10  17
ATOM     16  O   UNL     1      33.913 -15.901 -19.749  0.00  0.00    -0.250 OA
ATOM     17  C   UNL     1      33.680 -15.120 -20.661  0.00  0.00    +0.314 C 
BRANCH  17  18
ATOM     18  O   UNL     1      33.663 -13.771 -20.535  0.00  0.00    -0.480 OA
ATOM     19  H   UNL     1      32.986 -13.271 -20.945  0.00  0.00    +0.295 HD
ENDBRANCH  17  18
ENDBRANCH  10  17
ENDBRANCH   1  14
BRANCH   6  20
ATOM     20  O   UNL     1      32.277 -21.536 -17.729  0.00  0.00    -0.471 OA
BRANCH  20  21
ATOM     21  C   UNL     1      32.736 -22.846 -17.427  0.00  0.00    +0.229 C 
BRANCH  21  23
ATOM     22  N   UNL     1      32.720 -23.451 -13.191  0.00  0.00    -0.406 NA
ATOM     23  C   UNL     1      32.693 -23.052 -15.945  0.00  0.00    +0.012 C 
ATOM     24  C   UNL     1      31.498 -22.988 -15.216  0.00  0.00    +0.096 C 
ATOM     25  C   UNL     1      33.892 -23.315 -15.298  0.00  0.00    +0.028 C 
ATOM     26  C   UNL     1      31.558 -23.197 -13.822  0.00  0.00    +0.117 C 
ATOM     27  C   UNL     1      33.851 -23.505 -13.931  0.00  0.00    +0.130 C 
ATOM     28  C   UNL     1      30.267 -22.724 -15.842  0.00  0.00    -0.015 C 
ATOM     29  C   UNL     1      30.371 -23.132 -13.099  0.00  0.00    +0.028 C 
ATOM     30  C   UNL     1      29.096 -22.665 -15.094  0.00  0.00    -0.004 C 
ATOM     31  C   UNL     1      29.147 -22.870 -13.721  0.00  0.00    +0.002 C 
BRANCH  27  32
ATOM     32  C   UNL     1      35.053 -23.783 -13.182  0.00  0.00    +0.030 C 
ATOM     33  C   UNL     1      36.002 -24.670 -13.690  0.00  0.00    +0.003 C 
ATOM     34  C   UNL     1      35.267 -23.164 -11.951  0.00  0.00    +0.003 C 
ATOM     35  C   UNL     1      37.165 -24.938 -12.967  0.00  0.00    +0.000 C 
ATOM     36  C   UNL     1      36.430 -23.431 -11.228  0.00  0.00    +0.000 C 
ATOM     37  C   UNL     1      37.378 -24.319 -11.736  0.00  0.00    +0.000 C 
ENDBRANCH  27  32
ENDBRANCH  21  23
ENDBRANCH  20  21
ENDBRANCH   6  20
TORSDOF 7
ENDMDL
MODEL 2
REMARK VINA RESULT:     -12.9      1.017      4.174
REMARK  Name = 25049750
REMARK  7 active torsions:
REMARK  status: ('A' for Active; 'I' for Inactive)
REMARK    1  A    between atoms: C_1  and  C_14
REMARK    2  A    between atoms: C_6  and  O_20
REMARK    3  A    between atoms: C_10  and  C_17
REMARK    4  A    between atoms: C_17  and  O_18
REMARK    5  A    between atoms: O_20  and  C_21
REMARK    6  A    between atoms: C_21  and  C_23
REMARK    7  A    between atoms: C_27  and  C_32
REMARK                            x       y       z     vdW  Elec       q    Type
REMARK                         _______ _______ _______ _____ _____    ______ ____
ROOT
ATOM      1  C   UNL     1      34.462 -19.205 -21.217  0.00  0.00    -0.004 C 
ATOM      2  C   UNL     1      35.392 -19.784 -20.352  0.00  0.00    +0.000 C 
ATOM      3  C   UNL     1      33.098 -19.395 -21.001  0.00  0.00    +0.000 C 
ATOM      4  C   UNL     1      34.956 -20.554 -19.274  0.00  0.00    +0.037 C 
ATOM      5  C   UNL     1      32.662 -20.165 -19.923  0.00  0.00    +0.037 C 
ATOM      6  C   UNL     1      33.591 -20.744 -19.058  0.00  0.00    +0.139 C 
ENDROOT
BRANCH   1  14
ATOM      7  O   UNL     1      32.541 -16.769 -24.467  0.00  0.00    -0.275 OA
ATOM      8  N   UNL     1      33.957 -18.338 -23.459  0.00  0.00    -0.302 N 
ATOM      9  C   UNL     1      34.059 -16.190 -22.729  0.00  0.00    +0.081 C 
ATOM     10  C   UNL     1      33.233 -15.214 -21.965  0.00  0.00    +0.108 C 
ATOM     11  C   UNL     1      34.188 -14.740 -23.029  0.00  0.00    +0.021 C 
ATOM     12  C   UNL     1      35.171 -16.884 -22.032  0.00  0.00    +0.033 C 
ATOM     13  C   UNL     1      33.405 -17.088 -23.666  0.00  0.00    +0.222 C 
ATOM     14  C   UNL     1      34.935 -18.369 -22.384  0.00  0.00    +0.095 C 
ATOM     15  H   UNL     1      33.712 -19.130 -23.990  0.00  0.00    +0.150 HD
BRANCH  10  17
ATOM     16  O   UNL     1      33.696 -13.656 -20.275  0.00  0.00    -0.250 OA
ATOM     17  C   UNL     1      33.609 -14.824 -20.623  0.00  0.00    +0.314 C 
BRANCH  17  18
ATOM     18  O   UNL     1      33.844 -15.888 -19.817  0.00  0.00    -0.480 OA
ATOM     19  H   UNL     1      34.454 -16.549 -20.079  0.00  0.00    +0.295 HD
ENDBRANCH  17  18
ENDBRANCH  10  17
ENDBRANCH   1  14
BRANCH   6  20
ATOM     20  O   UNL     1      33.162 -21.501 -17.999  0.00  0.00    -0.471 OA
BRANCH  20  21
ATOM     21  C   UNL     1      34.166 -22.057 -17.161  0.00  0.00    +0.229 C 
BRANCH  21  23
ATOM     22  N   UNL     1      32.237 -23.663 -13.697  0.00  0.00    -0.406 NA
ATOM     23  C   UNL     1      33.524 -22.620 -15.932  0.00  0.00    +0.012 C 
ATOM     24  C   UNL     1      34.262 -22.942 -14.784  0.00  0.00    +0.096 C 
ATOM     25  C   UNL     1      32.151 -22.820 -15.958  0.00  0.00    +0.028 C 
ATOM     26  C   UNL     1      33.568 -23.468 -13.674  0.00  0.00    +0.117 C 
ATOM     27  C   UNL     1      31.561 -23.340 -14.823  0.00  0.00    +0.130 C 
ATOM     28  C   UNL     1      35.654 -22.750 -14.727  0.00  0.00    -0.015 C 
ATOM     29  C   UNL     1      34.302 -23.787 -12.536  0.00  0.00    +0.028 C 
ATOM     30  C   UNL     1      36.362 -23.078 -13.575  0.00  0.00    -0.004 C 
ATOM     31  C   UNL     1      35.685 -23.597 -12.478  0.00  0.00    +0.002 C 
BRANCH  27  32
ATOM     32  C   UNL     1      30.139 -23.579 -14.768  0.00  0.00    +0.030 C 
ATOM     33  C   UNL     1      29.264 -22.745 -15.464  0.00  0.00    +0.003 C 
ATOM     34  C   UNL     1      29.639 -24.644 -14.019  0.00  0.00    +0.003 C 
ATOM     35  C   UNL     1      27.889 -22.976 -15.412  0.00  0.00    +0.000 C 
ATOM     36  C   UNL     1      28.264 -24.875 -13.966  0.00  0.00    +0.000 C 
ATOM     37  C   UNL     1      27.389 -24.040 -14.662  0.00  0.00    +0.000 C 
ENDBRANCH  27  32
ENDBRANCH  21  23
ENDBRANCH  20  21
ENDBRANCH   6  20
TORSDOF 7
ENDMDL
MODEL 3
REMARK VINA RESULT:     -11.9      7.440     12.444
REMARK  Name = 25049750
REMARK  7 active torsions:
REMARK  status: ('A' for Active; 'I' for Inactive)
REMARK    1  A    between atoms: C_1  and  C_14
REMARK    2  A    between atoms: C_6  and  O_20
REMARK    3  A    between atoms: C_10  and  C_17
REMARK    4  A    between atoms: C_17  and  O_18
REMARK    5  A    between atoms: O_20  and  C_21
REMARK    6  A    between atoms: C_21  and  C_23
REMARK    7  A    between atoms: C_27  and  C_32
REMARK                            x       y       z     vdW  Elec       q    Type
REMARK                         _______ _______ _______ _____ _____    ______ ____
ROOT
ATOM      1  C   UNL     1      32.977  -6.740 -23.913  0.00  0.00    -0.004 C 
ATOM      2  C   UNL     1      34.132  -7.179 -23.264  0.00  0.00    +0.000 C 
ATOM      3  C   UNL     1      32.166  -7.653 -24.585  0.00  0.00    +0.000 C 
ATOM      4  C   UNL     1      34.474  -8.531 -23.288  0.00  0.00    +0.037 C 
ATOM      5  C   UNL     1      32.509  -9.005 -24.609  0.00  0.00    +0.037 C 
ATOM      6  C   UNL     1      33.662  -9.445 -23.960  0.00  0.00    +0.139 C 
ENDROOT
BRANCH   1  14
ATOM      7  O   UNL     1      29.255  -4.311 -24.574  0.00  0.00    -0.275 OA
ATOM      8  N   UNL     1      31.490  -4.982 -24.769  0.00  0.00    -0.302 N 
ATOM      9  C   UNL     1      30.688  -4.549 -22.689  0.00  0.00    +0.081 C 
ATOM     10  C   UNL     1      29.738  -5.127 -21.699  0.00  0.00    +0.108 C 
ATOM     11  C   UNL     1      29.971  -3.640 -21.757  0.00  0.00    +0.021 C 
ATOM     12  C   UNL     1      32.143  -4.776 -22.499  0.00  0.00    +0.033 C 
ATOM     13  C   UNL     1      30.347  -4.585 -24.101  0.00  0.00    +0.222 C 
ATOM     14  C   UNL     1      32.606  -5.274 -23.885  0.00  0.00    +0.095 C 
ATOM     15  H   UNL     1      31.543  -5.059 -25.750  0.00  0.00    +0.150 HD
BRANCH  10  17
ATOM     16  O   UNL     1      30.322  -5.152 -19.429  0.00  0.00    -0.250 OA
ATOM     17  C   UNL     1      30.226  -5.753 -20.489  0.00  0.00    +0.314 C 
BRANCH  17  18
ATOM     18  O   UNL     1      30.554  -7.055 -20.670  0.00  0.00    -0.480 OA
ATOM     19  H   UNL     1      31.208  -7.453 -20.131  0.00  0.00    +0.295 HD
ENDBRANCH  17  18
ENDBRANCH  10  17
ENDBRANCH   1  14
BRANCH   6  20
ATOM     20  O   UNL     1      33.999 -10.773 -23.984  0.00  0.00    -0.471 OA
BRANCH  20  21
ATOM     21  C   UNL     1      32.940 -11.699 -24.185  0.00  0.00    +0.229 C 
BRANCH  21  23
ATOM     22  N   UNL     1      32.655 -14.292 -20.793  0.00  0.00    -0.406 NA
ATOM     23  C   UNL     1      32.821 -12.579 -22.981  0.00  0.00    +0.012 C 
ATOM     24  C   UNL     1      32.131 -12.179 -21.828  0.00  0.00    +0.096 C 
ATOM     25  C   UNL     1      33.422 -13.829 -23.036  0.00  0.00    +0.028 C 
ATOM     26  C   UNL     1      32.072 -13.079 -20.743  0.00  0.00    +0.117 C 
ATOM     27  C   UNL     1      33.311 -14.639 -21.924  0.00  0.00    +0.130 C 
ATOM     28  C   UNL     1      31.510 -10.921 -21.742  0.00  0.00    -0.015 C 
ATOM     29  C   UNL     1      31.387 -12.681 -19.599  0.00  0.00    +0.028 C 
ATOM     30  C   UNL     1      30.832 -10.549 -20.585  0.00  0.00    -0.004 C 
ATOM     31  C   UNL     1      30.770 -11.430 -19.513  0.00  0.00    +0.002 C 
BRANCH  27  32
ATOM     32  C   UNL     1      33.909 -15.953 -21.899  0.00  0.00    +0.030 C 
ATOM     33  C   UNL     1      34.360 -16.492 -20.694  0.00  0.00    +0.003 C 
ATOM     34  C   UNL     1      34.036 -16.684 -23.080  0.00  0.00    +0.003 C 
ATOM     35  C   UNL     1      34.937 -17.762 -20.669  0.00  0.00    +0.000 C 
ATOM     36  C   UNL     1      34.613 -17.954 -23.055  0.00  0.00    +0.000 C 
ATOM     37  C   UNL     1      35.064 -18.492 -21.850  0.00  0.00    +0.000 C 
ENDBRANCH  27  32
ENDBRANCH  21  23
ENDBRANCH  20  21
ENDBRANCH   6  20
TORSDOF 7
ENDMDL
MODEL 4
REMARK VINA RESULT:     -11.6      5.444     10.323
REMARK  Name = 25049750
REMARK  7 active torsions:
REMARK  status: ('A' for Active; 'I' for Inactive)
REMARK    1  A    between atoms: C_1  and  C_14
REMARK    2  A    between atoms: C_6  and  O_20
REMARK    3  A    between atoms: C_10  and  C_17
REMARK    4  A    between atoms: C_17  and  O_18
REMARK    5  A    between atoms: O_20  and  C_21
REMARK    6  A    between atoms: C_21  and  C_23
REMARK    7  A    between atoms: C_27  and  C_32
REMARK                            x       y       z     vdW  Elec       q    Type
REMARK                         _______ _______ _______ _____ _____    ______ ____
ROOT
ATOM      1  C   UNL     1      30.811  -9.633 -20.912  0.00  0.00    -0.004 C 
ATOM      2  C   UNL     1      31.494 -10.389 -21.866  0.00  0.00    +0.000 C 
ATOM      3  C   UNL     1      30.567 -10.166 -19.646  0.00  0.00    +0.000 C 
ATOM      4  C   UNL     1      31.930 -11.676 -21.555  0.00  0.00    +0.037 C 
ATOM      5  C   UNL     1      31.003 -11.453 -19.335  0.00  0.00    +0.037 C 
ATOM      6  C   UNL     1      31.686 -12.209 -20.289  0.00  0.00    +0.139 C 
ENDROOT
BRANCH   1  14
ATOM      7  O   UNL     1      32.009  -5.440 -19.828  0.00  0.00    -0.275 OA
ATOM      8  N   UNL     1      30.625  -7.295 -20.179  0.00  0.00    -0.302 N 
ATOM      9  C   UNL     1      31.900  -6.576 -21.915  0.00  0.00    +0.081 C 
ATOM     10  C   UNL     1      33.331  -6.526 -22.324  0.00  0.00    +0.108 C 
ATOM     11  C   UNL     1      32.366  -5.467 -22.789  0.00  0.00    +0.021 C 
ATOM     12  C   UNL     1      31.029  -7.632 -22.492  0.00  0.00    +0.033 C 
ATOM     13  C   UNL     1      31.553  -6.332 -20.526  0.00  0.00    +0.222 C 
ATOM     14  C   UNL     1      30.340  -8.237 -21.250  0.00  0.00    +0.095 C 
ATOM     15  H   UNL     1      30.197  -7.339 -19.293  0.00  0.00    +0.150 HD
BRANCH  10  17
ATOM     16  O   UNL     1      33.684  -7.107 -24.568  0.00  0.00    -0.250 OA
ATOM     17  C   UNL     1      33.823  -7.379 -23.385  0.00  0.00    +0.314 C 
BRANCH  17  18
ATOM     18  O   UNL     1      34.444  -8.489 -22.917  0.00  0.00    -0.480 OA
ATOM     19  H   UNL     1      34.017  -9.321 -22.967  0.00  0.00    +0.295 HD
ENDBRANCH  17  18
ENDBRANCH  10  17
ENDBRANCH   1  14
BRANCH   6  20
ATOM     20  O   UNL     1      32.114 -13.474 -19.982  0.00  0.00    -0.471 OA
BRANCH  20  21
ATOM     21  C   UNL     1      33.491 -13.753 -20.194  0.00  0.00    +0.229 C 
BRANCH  21  23
ATOM     22  N   UNL     1      33.887 -17.398 -22.401  0.00  0.00    -0.406 NA
ATOM     23  C   UNL     1      33.621 -15.010 -20.997  0.00  0.00    +0.012 C 
ATOM     24  C   UNL     1      33.413 -15.035 -22.383  0.00  0.00    +0.096 C 
ATOM     25  C   UNL     1      33.959 -16.173 -20.321  0.00  0.00    +0.028 C 
ATOM     26  C   UNL     1      33.559 -16.267 -23.054  0.00  0.00    +0.117 C 
ATOM     27  C   UNL     1      34.078 -17.331 -21.063  0.00  0.00    +0.130 C 
ATOM     28  C   UNL     1      33.070 -13.873 -23.097  0.00  0.00    -0.015 C 
ATOM     29  C   UNL     1      33.352 -16.291 -24.430  0.00  0.00    +0.028 C 
ATOM     30  C   UNL     1      32.870 -13.927 -24.473  0.00  0.00    -0.004 C 
ATOM     31  C   UNL     1      33.011 -15.137 -25.140  0.00  0.00    +0.002 C 
BRANCH  27  32
ATOM     32  C   UNL     1      34.426 -18.583 -20.437  0.00  0.00    +0.030 C 
ATOM     33  C   UNL     1      35.760 -18.869 -20.141  0.00  0.00    +0.003 C 
ATOM     34  C   UNL     1      33.430 -19.509 -20.126  0.00  0.00    +0.003 C 
ATOM     35  C   UNL     1      36.096 -20.079 -19.535  0.00  0.00    +0.000 C 
ATOM     36  C   UNL     1      33.767 -20.719 -19.519  0.00  0.00    +0.000 C 
ATOM     37  C   UNL     1      35.100 -21.005 -19.225  0.00  0.00    +0.000 C 
ENDBRANCH  27  32
ENDBRANCH  21  23
ENDBRANCH  20  21
ENDBRANCH   6  20
TORSDOF 7
ENDMDL
MODEL 5
REMARK VINA RESULT:     -11.0      8.252     13.447
REMARK  Name = 25049750
REMARK  7 active torsions:
REMARK  status: ('A' for Active; 'I' for Inactive)
REMARK    1  A    between atoms: C_1  and  C_14
REMARK    2  A    between atoms: C_6  and  O_20
REMARK    3  A    between atoms: C_10  and  C_17
REMARK    4  A    between atoms: C_17  and  O_18
REMARK    5  A    between atoms: O_20  and  C_21
REMARK    6  A    between atoms: C_21  and  C_23
REMARK    7  A    between atoms: C_27  and  C_32
REMARK                            x       y       z     vdW  Elec       q    Type
REMARK                         _______ _______ _______ _____ _____    ______ ____
ROOT
ATOM      1  C   UNL     1      33.834  -5.717 -24.641  0.00  0.00    -0.004 C 
ATOM      2  C   UNL     1      34.052  -5.995 -23.290  0.00  0.00    +0.000 C 
ATOM      3  C   UNL     1      33.726  -6.762 -25.558  0.00  0.00    +0.000 C 
ATOM      4  C   UNL     1      34.161  -7.317 -22.859  0.00  0.00    +0.037 C 
ATOM      5  C   UNL     1      33.836  -8.083 -25.127  0.00  0.00    +0.037 C 
ATOM      6  C   UNL     1      34.052  -8.362 -23.777  0.00  0.00    +0.139 C 
ENDROOT
BRANCH   1  14
ATOM      7  O   UNL     1      32.161  -3.590 -28.227  0.00  0.00    -0.275 OA
ATOM      8  N   UNL     1      33.690  -4.187 -26.557  0.00  0.00    -0.302 N 
ATOM      9  C   UNL     1      31.639  -3.457 -25.909  0.00  0.00    +0.081 C 
ATOM     10  C   UNL     1      30.220  -3.907 -25.927  0.00  0.00    +0.108 C 
ATOM     11  C   UNL     1      30.557  -2.441 -25.990  0.00  0.00    +0.021 C 
ATOM     12  C   UNL     1      32.414  -3.588 -24.650  0.00  0.00    +0.033 C 
ATOM     13  C   UNL     1      32.483  -3.736 -27.059  0.00  0.00    +0.222 C 
ATOM     14  C   UNL     1      33.714  -4.284 -25.107  0.00  0.00    +0.095 C 
ATOM     15  H   UNL     1      34.458  -4.419 -27.127  0.00  0.00    +0.150 HD
BRANCH  10  17
ATOM     16  O   UNL     1      28.963  -3.516 -23.987  0.00  0.00    -0.250 OA
ATOM     17  C   UNL     1      29.559  -4.307 -24.703  0.00  0.00    +0.314 C 
BRANCH  17  18
ATOM     18  O   UNL     1      29.679  -5.634 -24.454  0.00  0.00    -0.480 OA
ATOM     19  H   UNL     1      29.195  -6.025 -23.754  0.00  0.00    +0.295 HD
ENDBRANCH  17  18
ENDBRANCH  10  17
ENDBRANCH   1  14
BRANCH   6  20
ATOM     20  O   UNL     1      34.160  -9.661 -23.354  0.00  0.00    -0.471 OA
BRANCH  20  21
ATOM     21  C   UNL     1      33.276 -10.603 -23.945  0.00  0.00    +0.229 C 
BRANCH  21  23
ATOM     22  N   UNL     1      32.256 -13.613 -21.080  0.00  0.00    -0.406 NA
ATOM     23  C   UNL     1      32.898 -11.631 -22.924  0.00  0.00    +0.012 C 
ATOM     24  C   UNL     1      32.041 -11.341 -21.854  0.00  0.00    +0.096 C 
ATOM     25  C   UNL     1      33.429 -12.905 -23.069  0.00  0.00    +0.028 C 
ATOM     26  C   UNL     1      31.743 -12.376 -20.943  0.00  0.00    +0.117 C 
ATOM     27  C   UNL     1      33.079 -13.851 -22.126  0.00  0.00    +0.130 C 
ATOM     28  C   UNL     1      31.487 -10.061 -21.682  0.00  0.00    -0.015 C 
ATOM     29  C   UNL     1      30.892 -12.086 -19.881  0.00  0.00    +0.028 C 
ATOM     30  C   UNL     1      30.639  -9.800 -20.610  0.00  0.00    -0.004 C 
ATOM     31  C   UNL     1      30.341 -10.814 -19.708  0.00  0.00    +0.002 C 
BRANCH  27  32
ATOM     32  C   UNL     1      33.588 -15.200 -22.203  0.00  0.00    +0.030 C 
ATOM     33  C   UNL     1      34.079 -15.827 -21.057  0.00  0.00    +0.003 C 
ATOM     34  C   UNL     1      33.590 -15.877 -23.422  0.00  0.00    +0.003 C 
ATOM     35  C   UNL     1      34.570 -17.130 -21.131  0.00  0.00    +0.000 C 
ATOM     36  C   UNL     1      34.081 -17.181 -23.496  0.00  0.00    +0.000 C 
ATOM     37  C   UNL     1      34.572 -17.807 -22.350  0.00  0.00    +0.000 C 
ENDBRANCH  27  32
ENDBRANCH  21  23
ENDBRANCH  20  21
ENDBRANCH   6  20
TORSDOF 7
ENDMDL
MODEL 6
REMARK VINA RESULT:     -10.9      5.259     12.779
REMARK  Name = 25049750
REMARK  7 active torsions:
REMARK  status: ('A' for Active; 'I' for Inactive)
REMARK    1  A    between atoms: C_1  and  C_14
REMARK    2  A    between atoms: C_6  and  O_20
REMARK    3  A    between atoms: C_10  and  C_17
REMARK    4  A    between atoms: C_17  and  O_18
REMARK    5  A    between atoms: O_20  and  C_21
REMARK    6  A    between atoms: C_21  and  C_23
REMARK    7  A    between atoms: C_27  and  C_32
REMARK                            x       y       z     vdW  Elec       q    Type
REMARK                         _______ _______ _______ _____ _____    ______ ____
ROOT
ATOM      1  C   UNL     1      34.507 -16.991 -22.470  0.00  0.00    -0.004 C 
ATOM      2  C   UNL     1      34.320 -16.136 -21.383  0.00  0.00    +0.000 C 
ATOM      3  C   UNL     1      33.986 -16.654 -23.719  0.00  0.00    +0.000 C 
ATOM      4  C   UNL     1      33.611 -14.946 -21.545  0.00  0.00    +0.037 C 
ATOM      5  C   UNL     1      33.277 -15.463 -23.881  0.00  0.00    +0.037 C 
ATOM      6  C   UNL     1      33.090 -14.609 -22.794  0.00  0.00    +0.139 C 
ENDROOT
BRANCH   1  14
ATOM      7  O   UNL     1      36.598 -19.100 -19.098  0.00  0.00    -0.275 OA
ATOM      8  N   UNL     1      36.258 -18.184 -21.226  0.00  0.00    -0.302 N 
ATOM      9  C   UNL     1      34.774 -19.736 -20.488  0.00  0.00    +0.081 C 
ATOM     10  C   UNL     1      33.696 -19.877 -19.469  0.00  0.00    +0.108 C 
ATOM     11  C   UNL     1      34.507 -21.073 -19.895  0.00  0.00    +0.021 C 
ATOM     12  C   UNL     1      34.392 -19.483 -21.900  0.00  0.00    +0.033 C 
ATOM     13  C   UNL     1      35.977 -18.998 -20.145  0.00  0.00    +0.222 C 
ATOM     14  C   UNL     1      35.277 -18.280 -22.294  0.00  0.00    +0.095 C 
ATOM     15  H   UNL     1      37.046 -17.595 -21.268  0.00  0.00    +0.150 HD
BRANCH  10  17
ATOM     16  O   UNL     1      31.917 -19.531 -20.956  0.00  0.00    -0.250 OA
ATOM     17  C   UNL     1      32.307 -19.936 -19.871  0.00  0.00    +0.314 C 
BRANCH  17  18
ATOM     18  O   UNL     1      31.511 -20.483 -18.921  0.00  0.00    -0.480 OA
ATOM     19  H   UNL     1      30.950 -21.201 -19.136  0.00  0.00    +0.295 HD
ENDBRANCH  17  18
ENDBRANCH  10  17
ENDBRANCH   1  14
BRANCH   6  20
ATOM     20  O   UNL     1      32.393 -13.439 -22.954  0.00  0.00    -0.471 OA
BRANCH  20  21
ATOM     21  C   UNL     1      33.074 -12.370 -23.596  0.00  0.00    +0.229 C 
BRANCH  21  23
ATOM     22  N   UNL     1      31.794  -8.606 -22.015  0.00  0.00    -0.406 NA
ATOM     23  C   UNL     1      32.610 -11.071 -23.014  0.00  0.00    +0.012 C 
ATOM     24  C   UNL     1      31.891 -11.005 -21.813  0.00  0.00    +0.096 C 
ATOM     25  C   UNL     1      32.918  -9.910 -23.708  0.00  0.00    +0.028 C 
ATOM     26  C   UNL     1      31.498  -9.735 -21.343  0.00  0.00    +0.117 C 
ATOM     27  C   UNL     1      32.490  -8.713 -23.170  0.00  0.00    +0.130 C 
ATOM     28  C   UNL     1      31.565 -12.164 -21.086  0.00  0.00    -0.015 C 
ATOM     29  C   UNL     1      30.784  -9.671 -20.151  0.00  0.00    +0.028 C 
ATOM     30  C   UNL     1      30.850 -12.070 -19.896  0.00  0.00    -0.004 C 
ATOM     31  C   UNL     1      30.459 -10.821 -19.428  0.00  0.00    +0.002 C 
BRANCH  27  32
ATOM     32  C   UNL     1      32.767  -7.460 -23.830  0.00  0.00    +0.030 C 
ATOM     33  C   UNL     1      31.912  -6.992 -24.828  0.00  0.00    +0.003 C 
ATOM     34  C   UNL     1      33.891  -6.715 -23.470  0.00  0.00    +0.003 C 
ATOM     35  C   UNL     1      32.179  -5.780 -25.465  0.00  0.00    +0.000 C 
ATOM     36  C   UNL     1      34.158  -5.504 -24.107  0.00  0.00    +0.000 C 
ATOM     37  C   UNL     1      33.303  -5.037 -25.105  0.00  0.00    +0.000 C 
ENDBRANCH  27  32
ENDBRANCH  21  23
ENDBRANCH  20  21
ENDBRANCH   6  20
TORSDOF 7
ENDMDL
MODEL 7
REMARK VINA RESULT:     -10.6      6.688     13.024
REMARK  Name = 25049750
REMARK  7 active torsions:
REMARK  status: ('A' for Active; 'I' for Inactive)
REMARK    1  A    between atoms: C_1  and  C_14
REMARK    2  A    between atoms: C_6  and  O_20
REMARK    3  A    between atoms: C_10  and  C_17
REMARK    4  A    between atoms: C_17  and  O_18
REMARK    5  A    between atoms: O_20  and  C_21
REMARK    6  A    between atoms: C_21  and  C_23
REMARK    7  A    between atoms: C_27  and  C_32
REMARK                            x       y       z     vdW  Elec       q    Type
REMARK                         _______ _______ _______ _____ _____    ______ ____
ROOT
ATOM      1  C   UNL     1      33.534 -14.678 -21.223  0.00  0.00    -0.004 C 
ATOM      2  C   UNL     1      33.260 -13.932 -22.371  0.00  0.00    +0.000 C 
ATOM      3  C   UNL     1      32.839 -14.419 -20.042  0.00  0.00    +0.000 C 
ATOM      4  C   UNL     1      32.292 -12.928 -22.336  0.00  0.00    +0.037 C 
ATOM      5  C   UNL     1      31.871 -13.416 -20.008  0.00  0.00    +0.037 C 
ATOM      6  C   UNL     1      31.597 -12.670 -21.154  0.00  0.00    +0.139 C 
ENDROOT
BRANCH   1  14
ATOM      7  O   UNL     1      33.767 -19.016 -20.075  0.00  0.00    -0.275 OA
ATOM      8  N   UNL     1      34.371 -16.759 -20.220  0.00  0.00    -0.302 N 
ATOM      9  C   UNL     1      34.057 -17.901 -22.157  0.00  0.00    +0.081 C 
ATOM     10  C   UNL     1      32.950 -18.510 -22.946  0.00  0.00    +0.108 C 
ATOM     11  C   UNL     1      34.338 -19.092 -23.002  0.00  0.00    +0.021 C 
ATOM     12  C   UNL     1      34.587 -16.578 -22.575  0.00  0.00    +0.033 C 
ATOM     13  C   UNL     1      34.034 -18.007 -20.708  0.00  0.00    +0.222 C 
ATOM     14  C   UNL     1      34.582 -15.767 -21.262  0.00  0.00    +0.095 C 
ATOM     15  H   UNL     1      34.461 -16.561 -19.260  0.00  0.00    +0.150 HD
BRANCH  10  17
ATOM     16  O   UNL     1      33.098 -16.969 -24.706  0.00  0.00    -0.250 OA
ATOM     17  C   UNL     1      32.513 -17.909 -24.187  0.00  0.00    +0.314 C 
BRANCH  17  18
ATOM     18  O   UNL     1      31.405 -18.502 -24.694  0.00  0.00    -0.480 OA
ATOM     19  H   UNL     1      30.887 -18.057 -25.334  0.00  0.00    +0.295 HD
ENDBRANCH  17  18
ENDBRANCH  10  17
ENDBRANCH   1  14
BRANCH   6  20
ATOM     20  O   UNL     1      30.646 -11.684 -21.120  0.00  0.00    -0.471 OA
BRANCH  20  21
ATOM     21  C   UNL     1      30.760 -10.720 -20.083  0.00  0.00    +0.229 C 
BRANCH  21  23
ATOM     22  N   UNL     1      32.542  -7.205 -21.750  0.00  0.00    -0.406 NA
ATOM     23  C   UNL     1      31.369  -9.470 -20.638  0.00  0.00    +0.012 C 
ATOM     24  C   UNL     1      31.227  -8.226 -20.008  0.00  0.00    +0.096 C 
ATOM     25  C   UNL     1      32.094  -9.577 -21.816  0.00  0.00    +0.028 C 
ATOM     26  C   UNL     1      31.839  -7.105 -20.607  0.00  0.00    +0.117 C 
ATOM     27  C   UNL     1      32.656  -8.424 -22.326  0.00  0.00    +0.130 C 
ATOM     28  C   UNL     1      30.500  -8.086 -18.813  0.00  0.00    -0.015 C 
ATOM     29  C   UNL     1      31.697  -5.870 -19.980  0.00  0.00    +0.028 C 
ATOM     30  C   UNL     1      30.374  -6.839 -18.209  0.00  0.00    -0.004 C 
ATOM     31  C   UNL     1      30.974  -5.730 -18.793  0.00  0.00    +0.002 C 
BRANCH  27  32
ATOM     32  C   UNL     1      33.424  -8.448 -23.548  0.00  0.00    +0.030 C 
ATOM     33  C   UNL     1      33.433  -7.335 -24.389  0.00  0.00    +0.003 C 
ATOM     34  C   UNL     1      34.158  -9.584 -23.888  0.00  0.00    +0.003 C 
ATOM     35  C   UNL     1      34.176  -7.358 -25.570  0.00  0.00    +0.000 C 
ATOM     36  C   UNL     1      34.901  -9.607 -25.069  0.00  0.00    +0.000 C 
ATOM     37  C   UNL     1      34.909  -8.494 -25.909  0.00  0.00    +0.000 C 
ENDBRANCH  27  32
ENDBRANCH  21  23
ENDBRANCH  20  21
ENDBRANCH   6  20
TORSDOF 7
ENDMDL
MODEL 8
REMARK VINA RESULT:     -10.6      8.159     12.545
REMARK  Name = 25049750
REMARK  7 active torsions:
REMARK  status: ('A' for Active; 'I' for Inactive)
REMARK    1  A    between atoms: C_1  and  C_14
REMARK    2  A    between atoms: C_6  and  O_20
REMARK    3  A    between atoms: C_10  and  C_17
REMARK    4  A    between atoms: C_17  and  O_18
REMARK    5  A    between atoms: O_20  and  C_21
REMARK    6  A    between atoms: C_21  and  C_23
REMARK    7  A    between atoms: C_27  and  C_32
REMARK                            x       y       z     vdW  Elec       q    Type
REMARK                         _______ _______ _______ _____ _____    ______ ____
ROOT
ATOM      1  C   UNL     1      33.138  -7.814 -24.120  0.00  0.00    -0.004 C 
ATOM      2  C   UNL     1      32.157  -8.610 -24.712  0.00  0.00    +0.000 C 
ATOM      3  C   UNL     1      34.344  -8.383 -23.711  0.00  0.00    +0.000 C 
ATOM      4  C   UNL     1      32.382  -9.974 -24.894  0.00  0.00    +0.037 C 
ATOM      5  C   UNL     1      34.568  -9.748 -23.894  0.00  0.00    +0.037 C 
ATOM      6  C   UNL     1      33.588 -10.543 -24.486  0.00  0.00    +0.139 C 
ENDROOT
BRANCH   1  14
ATOM      7  O   UNL     1      29.569  -5.157 -23.496  0.00  0.00    -0.275 OA
ATOM      8  N   UNL     1      31.582  -5.934 -24.404  0.00  0.00    -0.302 N 
ATOM      9  C   UNL     1      31.495  -5.576 -22.164  0.00  0.00    +0.081 C 
ATOM     10  C   UNL     1      30.860  -6.157 -20.948  0.00  0.00    +0.108 C 
ATOM     11  C   UNL     1      31.165  -4.684 -21.021  0.00  0.00    +0.021 C 
ATOM     12  C   UNL     1      32.918  -5.891 -22.445  0.00  0.00    +0.033 C 
ATOM     13  C   UNL     1      30.732  -5.514 -23.399  0.00  0.00    +0.222 C 
ATOM     14  C   UNL     1      32.895  -6.334 -23.924  0.00  0.00    +0.095 C 
ATOM     15  H   UNL     1      31.324  -5.958 -25.354  0.00  0.00    +0.150 HD
BRANCH  10  17
ATOM     16  O   UNL     1      31.859  -6.449 -18.847  0.00  0.00    -0.250 OA
ATOM     17  C   UNL     1      31.654  -6.875 -19.975  0.00  0.00    +0.314 C 
BRANCH  17  18
ATOM     18  O   UNL     1      32.131  -8.050 -20.453  0.00  0.00    -0.480 OA
ATOM     19  H   UNL     1      31.549  -8.663 -20.855  0.00  0.00    +0.295 HD
ENDBRANCH  17  18
ENDBRANCH  10  17
ENDBRANCH   1  14
BRANCH   6  20
ATOM     20  O   UNL     1      33.809 -11.884 -24.664  0.00  0.00    -0.471 OA
BRANCH  20  21
ATOM     21  C   UNL     1      32.714 -12.753 -24.411  0.00  0.00    +0.229 C 
BRANCH  21  23
ATOM     22  N   UNL     1      32.370 -13.371 -20.191  0.00  0.00    -0.406 NA
ATOM     23  C   UNL     1      32.613 -13.001 -22.938  0.00  0.00    +0.012 C 
ATOM     24  C   UNL     1      33.187 -14.126 -22.329  0.00  0.00    +0.096 C 
ATOM     25  C   UNL     1      31.924 -12.069 -22.175  0.00  0.00    +0.028 C 
ATOM     26  C   UNL     1      33.039 -14.273 -20.934  0.00  0.00    +0.117 C 
ATOM     27  C   UNL     1      31.832 -12.300 -20.817  0.00  0.00    +0.130 C 
ATOM     28  C   UNL     1      33.892 -15.087 -23.074  0.00  0.00    -0.015 C 
ATOM     29  C   UNL     1      33.608 -15.390 -20.330  0.00  0.00    +0.028 C 
ATOM     30  C   UNL     1      34.451 -16.194 -22.444  0.00  0.00    -0.004 C 
ATOM     31  C   UNL     1      34.309 -16.346 -21.070  0.00  0.00    +0.002 C 
BRANCH  27  32
ATOM     32  C   UNL     1      31.131 -11.380 -19.953  0.00  0.00    +0.030 C 
ATOM     33  C   UNL     1      31.632 -11.099 -18.681  0.00  0.00    +0.003 C 
ATOM     34  C   UNL     1      29.954 -10.772 -20.388  0.00  0.00    +0.003 C 
ATOM     35  C   UNL     1      30.956 -10.209 -17.846  0.00  0.00    +0.000 C 
ATOM     36  C   UNL     1      29.278  -9.883 -19.552  0.00  0.00    +0.000 C 
ATOM     37  C   UNL     1      29.779  -9.603 -18.281  0.00  0.00    +0.000 C 
ENDBRANCH  27  32
ENDBRANCH  21  23
ENDBRANCH  20  21
ENDBRANCH   6  20
TORSDOF 7
ENDMDL
MODEL 9
REMARK VINA RESULT:     -10.5      5.705     10.384
REMARK  Name = 25049750
REMARK  7 active torsions:
REMARK  status: ('A' for Active; 'I' for Inactive)
REMARK    1  A    between atoms: C_1  and  C_14
REMARK    2  A    between atoms: C_6  and  O_20
REMARK    3  A    between atoms: C_10  and  C_17
REMARK    4  A    between atoms: C_17  and  O_18
REMARK    5  A    between atoms: O_20  and  C_21
REMARK    6  A    between atoms: C_21  and  C_23
REMARK    7  A    between atoms: C_27  and  C_32
REMARK                            x       y       z     vdW  Elec       q    Type
REMARK                         _______ _______ _______ _____ _____    ______ ____
ROOT
ATOM      1  C   UNL     1      31.499 -10.480 -21.701  0.00  0.00    -0.004 C 
ATOM      2  C   UNL     1      31.446 -11.687 -21.002  0.00  0.00    +0.000 C 
ATOM      3  C   UNL     1      32.393 -10.328 -22.761  0.00  0.00    +0.000 C 
ATOM      4  C   UNL     1      32.287 -12.739 -21.362  0.00  0.00    +0.037 C 
ATOM      5  C   UNL     1      33.234 -11.381 -23.121  0.00  0.00    +0.037 C 
ATOM      6  C   UNL     1      33.181 -12.587 -22.423  0.00  0.00    +0.139 C 
ENDROOT
BRANCH   1  14
ATOM      7  O   UNL     1      31.493  -7.231 -18.597  0.00  0.00    -0.275 OA
ATOM      8  N   UNL     1      30.705  -9.010 -19.900  0.00  0.00    -0.302 N 
ATOM      9  C   UNL     1      31.470  -7.162 -20.976  0.00  0.00    +0.081 C 
ATOM     10  C   UNL     1      32.754  -6.454 -21.237  0.00  0.00    +0.108 C 
ATOM     11  C   UNL     1      31.462  -5.686 -21.148  0.00  0.00    +0.021 C 
ATOM     12  C   UNL     1      30.895  -8.017 -22.045  0.00  0.00    +0.033 C 
ATOM     13  C   UNL     1      31.245  -7.759 -19.670  0.00  0.00    +0.222 C 
ATOM     14  C   UNL     1      30.587  -9.340 -21.311  0.00  0.00    +0.095 C 
ATOM     15  H   UNL     1      30.427  -9.619 -19.178  0.00  0.00    +0.150 HD
BRANCH  10  17
ATOM     16  O   UNL     1      32.995  -5.693 -23.441  0.00  0.00    -0.250 OA
ATOM     17  C   UNL     1      33.343  -6.464 -22.559  0.00  0.00    +0.314 C 
BRANCH  17  18
ATOM     18  O   UNL     1      34.307  -7.407 -22.694  0.00  0.00    -0.480 OA
ATOM     19  H   UNL     1      35.089  -7.355 -22.182  0.00  0.00    +0.295 HD
ENDBRANCH  17  18
ENDBRANCH  10  17
ENDBRANCH   1  14
BRANCH   6  20
ATOM     20  O   UNL     1      34.007 -13.622 -22.777  0.00  0.00    -0.471 OA
BRANCH  20  21
ATOM     21  C   UNL     1      33.740 -14.260 -24.018  0.00  0.00    +0.229 C 
BRANCH  21  23
ATOM     22  N   UNL     1      32.724 -18.339 -23.221  0.00  0.00    -0.406 NA
ATOM     23  C   UNL     1      33.358 -15.685 -23.766  0.00  0.00    +0.012 C 
ATOM     24  C   UNL     1      32.346 -16.327 -24.492  0.00  0.00    +0.096 C 
ATOM     25  C   UNL     1      34.048 -16.369 -22.774  0.00  0.00    +0.028 C 
ATOM     26  C   UNL     1      32.058 -17.673 -24.182  0.00  0.00    +0.117 C 
ATOM     27  C   UNL     1      33.694 -17.684 -22.543  0.00  0.00    +0.130 C 
ATOM     28  C   UNL     1      31.630 -15.662 -25.502  0.00  0.00    -0.015 C 
ATOM     29  C   UNL     1      31.052 -18.309 -24.904  0.00  0.00    +0.028 C 
ATOM     30  C   UNL     1      30.630 -16.322 -26.208  0.00  0.00    -0.004 C 
ATOM     31  C   UNL     1      30.340 -17.648 -25.908  0.00  0.00    +0.002 C 
BRANCH  27  32
ATOM     32  C   UNL     1      34.361 -18.466 -21.530  0.00  0.00    +0.030 C 
ATOM     33  C   UNL     1      35.712 -18.247 -21.256  0.00  0.00    +0.003 C 
ATOM     34  C   UNL     1      33.656 -19.440 -20.824  0.00  0.00    +0.003 C 
ATOM     35  C   UNL     1      36.356 -19.002 -20.276  0.00  0.00    +0.000 C 
ATOM     36  C   UNL     1      34.301 -20.195 -19.844  0.00  0.00    +0.000 C 
ATOM     37  C   UNL     1      35.651 -19.977 -19.571  0.00  0.00    +0.000 C 
ENDBRANCH  27  32
ENDBRANCH  21  23
ENDBRANCH  20  21
ENDBRANCH   6  20
TORSDOF 7
ENDMDL
