MODEL 1
REMARK VINA RESULT:     -12.1      0.000      0.000
REMARK  Name = 15602701
REMARK  5 active torsions:
REMARK  status: ('A' for Active; 'I' for Inactive)
REMARK    1  A    between atoms: N_5  and  C_12
REMARK    2  A    between atoms: C_6  and  C_22
REMARK    3  A    between atoms: C_13  and  C_21
REMARK    4  A    between atoms: C_22  and  C_23
REMARK    5  A    between atoms: C_23  and  N_24
REMARK                            x       y       z     vdW  Elec       q    Type
REMARK                         _______ _______ _______ _____ _____    ______ ____
ROOT
ATOM      1  S   UNL     1      33.287 -22.787 -16.022  0.00  0.00    -0.056 S 
ATOM      2  O   UNL     1      31.597 -20.316 -19.572  0.00  0.00    -0.252 OA
ATOM      3  N   UNL     1      31.125 -22.003 -17.203  0.00  0.00    -0.223 NA
ATOM      4  N   UNL     1      33.213 -21.273 -18.160  0.00  0.00    -0.248 N 
ATOM      5  N   UNL     1      33.876 -19.981 -19.962  0.00  0.00    -0.268 N 
ATOM      6  C   UNL     1      31.786 -23.270 -15.393  0.00  0.00    +0.031 C 
ATOM      7  C   UNL     1      30.754 -22.779 -16.123  0.00  0.00    +0.103 C 
ATOM      8  C   UNL     1      32.437 -21.938 -17.248  0.00  0.00    +0.166 C 
ATOM      9  C   UNL     1      32.770 -20.500 -19.268  0.00  0.00    +0.310 C 
ATOM     10  H   UNL     1      34.188 -21.337 -18.035  0.00  0.00    +0.158 HD
ATOM     11  H   UNL     1      34.762 -20.214 -19.600  0.00  0.00    +0.156 HD
ENDROOT
BRANCH   5  12
ATOM     12  C   UNL     1      33.874 -19.163 -21.117  0.00  0.00    +0.052 C 
ATOM     13  C   UNL     1      33.900 -16.980 -22.111  0.00  0.00    +0.073 C 
ATOM     14  C   UNL     1      33.901 -17.785 -20.972  0.00  0.00    +0.019 C 
ATOM     15  C   UNL     1      33.847 -19.757 -22.367  0.00  0.00    +0.015 C 
ATOM     16  C   UNL     1      33.873 -17.562 -23.378  0.00  0.00    +0.004 C 
ATOM     17  C   UNL     1      33.846 -18.951 -23.506  0.00  0.00    +0.001 C 
BRANCH  13  21
ATOM     18  F   UNL     1      32.746 -14.891 -22.291  0.00  0.00    -0.166 F 
ATOM     19  F   UNL     1      34.220 -15.068 -20.710  0.00  0.00    -0.166 F 
ATOM     20  F   UNL     1      34.864 -14.912 -22.781  0.00  0.00    -0.166 F 
ATOM     21  C   UNL     1      33.930 -15.494 -21.975  0.00  0.00    +0.419 C 
ENDBRANCH  13  21
ENDBRANCH   5  12
BRANCH   6  22
ATOM     22  C   UNL     1      31.740 -24.145 -14.162  0.00  0.00    +0.056 C 
BRANCH  22  23
ATOM     23  C   UNL     1      32.796 -23.759 -13.126  0.00  0.00    +0.093 C 
BRANCH  23  24
ATOM     24  N   UNL     1      34.024 -24.461 -13.356  0.00  0.00    -0.320 N 
ATOM     25  N   UNL     1      36.729 -25.879 -13.750  0.00  0.00    -0.220 N 
ATOM     26  N   UNL     1      38.024 -26.241 -13.665  0.00  0.00    -0.178 NA
ATOM     27  N   UNL     1      35.261 -23.127 -11.806  0.00  0.00    -0.232 NA
ATOM     28  N   UNL     1      37.635 -23.484 -11.378  0.00  0.00    -0.245 NA
ATOM     29  C   UNL     1      36.396 -24.833 -12.941  0.00  0.00    +0.185 C 
ATOM     30  C   UNL     1      35.224 -24.140 -12.700  0.00  0.00    +0.128 C 
ATOM     31  C   UNL     1      37.564 -24.491 -12.279  0.00  0.00    +0.103 C 
ATOM     32  C   UNL     1      38.529 -25.390 -12.765  0.00  0.00    +0.134 C 
ATOM     33  C   UNL     1      35.864 -26.603 -14.652  0.00  0.00    +0.135 C 
ATOM     34  C   UNL     1      36.447 -22.865 -11.208  0.00  0.00    +0.251 C 
ATOM     35  H   UNL     1      34.026 -25.202 -14.004  0.00  0.00    +0.148 HD
ENDBRANCH  23  24
ENDBRANCH  22  23
ENDBRANCH   6  22
TORSDOF 5
ENDMDL
MODEL 2
REMARK VINA RESULT:     -11.8      5.086     11.676
REMARK  Name = 15602701
REMARK  5 active torsions:
REMARK  status: ('A' for Active; 'I' for Inactive)
REMARK    1  A    between atoms: N_5  and  C_12
REMARK    2  A    between atoms: C_6  and  C_22
REMARK    3  A    between atoms: C_13  and  C_21
REMARK    4  A    between atoms: C_22  and  C_23
REMARK    5  A    between atoms: C_23  and  N_24
REMARK                            x       y       z     vdW  Elec       q    Type
REMARK                         _______ _______ _______ _____ _____    ______ ____
ROOT
ATOM      1  S   UNL     1      35.014 -20.332 -19.759  0.00  0.00    -0.056 S 
ATOM      2  O   UNL     1      31.182 -21.709 -17.527  0.00  0.00    -0.252 OA
ATOM      3  N   UNL     1      32.430 -20.246 -19.759  0.00  0.00    -0.223 NA
ATOM      4  N   UNL     1      33.476 -21.485 -17.977  0.00  0.00    -0.248 N 
ATOM      5  N   UNL     1      32.776 -22.703 -16.138  0.00  0.00    -0.268 N 
ATOM      6  C   UNL     1      34.221 -19.474 -20.991  0.00  0.00    +0.031 C 
ATOM      7  C   UNL     1      32.872 -19.523 -20.850  0.00  0.00    +0.103 C 
ATOM      8  C   UNL     1      33.471 -20.718 -19.112  0.00  0.00    +0.166 C 
ATOM      9  C   UNL     1      32.350 -21.943 -17.241  0.00  0.00    +0.310 C 
ATOM     10  H   UNL     1      34.360 -21.749 -17.631  0.00  0.00    +0.158 HD
ATOM     11  H   UNL     1      33.749 -22.806 -16.035  0.00  0.00    +0.156 HD
ENDROOT
BRANCH   5  12
ATOM     12  C   UNL     1      31.977 -23.337 -15.158  0.00  0.00    +0.052 C 
ATOM     13  C   UNL     1      29.818 -24.030 -14.373  0.00  0.00    +0.073 C 
ATOM     14  C   UNL     1      30.605 -23.404 -15.340  0.00  0.00    +0.019 C 
ATOM     15  C   UNL     1      32.583 -23.880 -14.037  0.00  0.00    +0.015 C 
ATOM     16  C   UNL     1      30.413 -24.582 -13.239  0.00  0.00    +0.004 C 
ATOM     17  C   UNL     1      31.796 -24.506 -13.070  0.00  0.00    +0.001 C 
BRANCH  13  21
ATOM     18  F   UNL     1      27.704 -22.909 -14.424  0.00  0.00    -0.166 F 
ATOM     19  F   UNL     1      27.963 -24.583 -15.779  0.00  0.00    -0.166 F 
ATOM     20  F   UNL     1      27.744 -24.939 -13.645  0.00  0.00    -0.166 F 
ATOM     21  C   UNL     1      28.339 -24.112 -14.553  0.00  0.00    +0.419 C 
ENDBRANCH  13  21
ENDBRANCH   5  12
BRANCH   6  22
ATOM     22  C   UNL     1      35.033 -18.779 -22.058  0.00  0.00    +0.056 C 
BRANCH  22  23
ATOM     23  C   UNL     1      34.168 -17.971 -23.024  0.00  0.00    +0.093 C 
BRANCH  23  24
ATOM     24  N   UNL     1      33.849 -16.685 -22.477  0.00  0.00    -0.320 N 
ATOM     25  N   UNL     1      33.127 -13.876 -21.441  0.00  0.00    -0.220 N 
ATOM     26  N   UNL     1      32.739 -12.589 -21.357  0.00  0.00    -0.178 NA
ATOM     27  N   UNL     1      33.240 -15.759 -24.595  0.00  0.00    -0.232 NA
ATOM     28  N   UNL     1      32.483 -13.455 -24.845  0.00  0.00    -0.245 NA
ATOM     29  C   UNL     1      33.094 -14.380 -22.708  0.00  0.00    +0.185 C 
ATOM     30  C   UNL     1      33.394 -15.611 -23.260  0.00  0.00    +0.128 C 
ATOM     31  C   UNL     1      32.649 -13.340 -23.507  0.00  0.00    +0.103 C 
ATOM     32  C   UNL     1      32.448 -12.266 -22.622  0.00  0.00    +0.134 C 
ATOM     33  C   UNL     1      33.523 -14.561 -20.233  0.00  0.00    +0.135 C 
ATOM     34  C   UNL     1      32.800 -14.687 -25.296  0.00  0.00    +0.251 C 
ATOM     35  H   UNL     1      33.953 -16.548 -21.508  0.00  0.00    +0.148 HD
ENDBRANCH  23  24
ENDBRANCH  22  23
ENDBRANCH   6  22
TORSDOF 5
ENDMDL
MODEL 3
REMARK VINA RESULT:     -11.8      5.234     11.780
REMARK  Name = 15602701
REMARK  5 active torsions:
REMARK  status: ('A' for Active; 'I' for Inactive)
REMARK    1  A    between atoms: N_5  and  C_12
REMARK    2  A    between atoms: C_6  and  C_22
REMARK    3  A    between atoms: C_13  and  C_21
REMARK    4  A    between atoms: C_22  and  C_23
REMARK    5  A    between atoms: C_23  and  N_24
REMARK                            x       y       z     vdW  Elec       q    Type
REMARK                         _______ _______ _______ _____ _____    ______ ____
ROOT
ATOM      1  S   UNL     1      35.700 -20.284 -19.035  0.00  0.00    -0.056 S 
ATOM      2  O   UNL     1      34.360 -23.064 -15.565  0.00  0.00    -0.252 OA
ATOM      3  N   UNL     1      33.696 -21.552 -18.005  0.00  0.00    -0.223 NA
ATOM      4  N   UNL     1      35.813 -21.759 -16.872  0.00  0.00    -0.248 N 
ATOM      5  N   UNL     1      36.615 -22.846 -14.993  0.00  0.00    -0.268 N 
ATOM      6  C   UNL     1      34.183 -20.175 -19.790  0.00  0.00    +0.031 C 
ATOM      7  C   UNL     1      33.240 -20.892 -19.130  0.00  0.00    +0.103 C 
ATOM      8  C   UNL     1      34.978 -21.303 -17.857  0.00  0.00    +0.166 C 
ATOM      9  C   UNL     1      35.477 -22.608 -15.782  0.00  0.00    +0.310 C 
ATOM     10  H   UNL     1      36.752 -21.466 -16.923  0.00  0.00    +0.158 HD
ATOM     11  H   UNL     1      37.446 -22.411 -15.291  0.00  0.00    +0.156 HD
ENDROOT
BRANCH   5  12
ATOM     12  C   UNL     1      36.712 -23.633 -13.821  0.00  0.00    +0.052 C 
ATOM     13  C   UNL     1      35.974 -24.137 -11.594  0.00  0.00    +0.073 C 
ATOM     14  C   UNL     1      35.878 -23.360 -12.749  0.00  0.00    +0.019 C 
ATOM     15  C   UNL     1      37.639 -24.661 -13.771  0.00  0.00    +0.015 C 
ATOM     16  C   UNL     1      36.902 -25.177 -11.528  0.00  0.00    +0.004 C 
ATOM     17  C   UNL     1      37.735 -25.438 -12.616  0.00  0.00    +0.001 C 
BRANCH  13  21
ATOM     18  F   UNL     1      34.640 -24.985  -9.798  0.00  0.00    -0.166 F 
ATOM     19  F   UNL     1      35.677 -23.112  -9.454  0.00  0.00    -0.166 F 
ATOM     20  F   UNL     1      33.958 -23.171 -10.784  0.00  0.00    -0.166 F 
ATOM     21  C   UNL     1      35.083 -23.858 -10.431  0.00  0.00    +0.419 C 
ENDBRANCH  13  21
ENDBRANCH   5  12
BRANCH   6  22
ATOM     22  C   UNL     1      34.032 -19.344 -21.042  0.00  0.00    +0.056 C 
BRANCH  22  23
ATOM     23  C   UNL     1      35.090 -18.246 -21.152  0.00  0.00    +0.093 C 
BRANCH  23  24
ATOM     24  N   UNL     1      34.483 -16.949 -21.202  0.00  0.00    -0.320 N 
ATOM     25  N   UNL     1      33.163 -14.178 -21.458  0.00  0.00    -0.220 N 
ATOM     26  N   UNL     1      32.580 -13.063 -21.938  0.00  0.00    -0.178 NA
ATOM     27  N   UNL     1      34.171 -17.011 -23.571  0.00  0.00    -0.232 NA
ATOM     28  N   UNL     1      33.145 -15.174 -24.803  0.00  0.00    -0.245 NA
ATOM     29  C   UNL     1      33.454 -15.104 -22.416  0.00  0.00    +0.185 C 
ATOM     30  C   UNL     1      34.036 -16.358 -22.395  0.00  0.00    +0.128 C 
ATOM     31  C   UNL     1      33.025 -14.547 -23.609  0.00  0.00    +0.103 C 
ATOM     32  C   UNL     1      32.498 -13.294 -23.253  0.00  0.00    +0.134 C 
ATOM     33  C   UNL     1      33.411 -14.275 -20.038  0.00  0.00    +0.135 C 
ATOM     34  C   UNL     1      33.723 -16.388 -24.687  0.00  0.00    +0.251 C 
ATOM     35  H   UNL     1      34.373 -16.450 -20.361  0.00  0.00    +0.148 HD
ENDBRANCH  23  24
ENDBRANCH  22  23
ENDBRANCH   6  22
TORSDOF 5
ENDMDL
MODEL 4
REMARK VINA RESULT:     -11.7      7.326     13.852
REMARK  Name = 15602701
REMARK  5 active torsions:
REMARK  status: ('A' for Active; 'I' for Inactive)
REMARK    1  A    between atoms: N_5  and  C_12
REMARK    2  A    between atoms: C_6  and  C_22
REMARK    3  A    between atoms: C_13  and  C_21
REMARK    4  A    between atoms: C_22  and  C_23
REMARK    5  A    between atoms: C_23  and  N_24
REMARK                            x       y       z     vdW  Elec       q    Type
REMARK                         _______ _______ _______ _____ _____    ______ ____
ROOT
ATOM      1  S   UNL     1      33.157 -14.745 -24.225  0.00  0.00    -0.056 S 
ATOM      2  O   UNL     1      34.314 -16.467 -20.071  0.00  0.00    -0.252 OA
ATOM      3  N   UNL     1      33.694 -14.141 -21.770  0.00  0.00    -0.223 NA
ATOM      4  N   UNL     1      33.763 -16.478 -22.354  0.00  0.00    -0.248 N 
ATOM      5  N   UNL     1      34.205 -18.471 -21.266  0.00  0.00    -0.268 N 
ATOM      6  C   UNL     1      33.123 -13.114 -23.754  0.00  0.00    +0.031 C 
ATOM      7  C   UNL     1      33.427 -12.964 -22.441  0.00  0.00    +0.103 C 
ATOM      8  C   UNL     1      33.581 -15.144 -22.611  0.00  0.00    +0.166 C 
ATOM      9  C   UNL     1      34.116 -17.077 -21.116  0.00  0.00    +0.310 C 
ATOM     10  H   UNL     1      33.634 -17.091 -23.115  0.00  0.00    +0.158 HD
ATOM     11  H   UNL     1      34.018 -18.821 -22.168  0.00  0.00    +0.156 HD
ENDROOT
BRANCH   5  12
ATOM     12  C   UNL     1      34.529 -19.435 -20.282  0.00  0.00    +0.052 C 
ATOM     13  C   UNL     1      33.835 -21.127 -18.729  0.00  0.00    +0.073 C 
ATOM     14  C   UNL     1      33.515 -20.177 -19.699  0.00  0.00    +0.019 C 
ATOM     15  C   UNL     1      35.854 -19.618 -19.924  0.00  0.00    +0.015 C 
ATOM     16  C   UNL     1      35.165 -21.324 -18.357  0.00  0.00    +0.004 C 
ATOM     17  C   UNL     1      36.175 -20.569 -18.955  0.00  0.00    +0.001 C 
BRANCH  13  21
ATOM     18  F   UNL     1      33.028 -22.290 -16.800  0.00  0.00    -0.166 F 
ATOM     19  F   UNL     1      31.552 -21.293 -18.038  0.00  0.00    -0.166 F 
ATOM     20  F   UNL     1      32.517 -23.107 -18.750  0.00  0.00    -0.166 F 
ATOM     21  C   UNL     1      32.756 -21.935 -18.091  0.00  0.00    +0.419 C 
ENDBRANCH  13  21
ENDBRANCH   5  12
BRANCH   6  22
ATOM     22  C   UNL     1      32.784 -12.051 -24.772  0.00  0.00    +0.056 C 
BRANCH  22  23
ATOM     23  C   UNL     1      33.486 -10.722 -24.492  0.00  0.00    +0.093 C 
BRANCH  23  24
ATOM     24  N   UNL     1      32.812  -9.991 -23.461  0.00  0.00    -0.320 N 
ATOM     25  N   UNL     1      31.427  -8.293 -21.296  0.00  0.00    -0.220 N 
ATOM     26  N   UNL     1      31.017  -7.272 -20.519  0.00  0.00    -0.178 NA
ATOM     27  N   UNL     1      33.756  -7.893 -24.111  0.00  0.00    -0.232 NA
ATOM     28  N   UNL     1      33.249  -5.814 -22.944  0.00  0.00    -0.245 NA
ATOM     29  C   UNL     1      32.292  -7.922 -22.283  0.00  0.00    +0.185 C 
ATOM     30  C   UNL     1      32.954  -8.604 -23.287  0.00  0.00    +0.128 C 
ATOM     31  C   UNL     1      32.453  -6.554 -22.137  0.00  0.00    +0.103 C 
ATOM     32  C   UNL     1      31.647  -6.212 -21.038  0.00  0.00    +0.134 C 
ATOM     33  C   UNL     1      30.933  -9.621 -21.014  0.00  0.00    +0.135 C 
ATOM     34  C   UNL     1      33.853  -6.561 -23.892  0.00  0.00    +0.251 C 
ATOM     35  H   UNL     1      32.221 -10.483 -22.846  0.00  0.00    +0.148 HD
ENDBRANCH  23  24
ENDBRANCH  22  23
ENDBRANCH   6  22
TORSDOF 5
ENDMDL
MODEL 5
REMARK VINA RESULT:     -11.3      1.803      2.176
REMARK  Name = 15602701
REMARK  5 active torsions:
REMARK  status: ('A' for Active; 'I' for Inactive)
REMARK    1  A    between atoms: N_5  and  C_12
REMARK    2  A    between atoms: C_6  and  C_22
REMARK    3  A    between atoms: C_13  and  C_21
REMARK    4  A    between atoms: C_22  and  C_23
REMARK    5  A    between atoms: C_23  and  N_24
REMARK                            x       y       z     vdW  Elec       q    Type
REMARK                         _______ _______ _______ _____ _____    ______ ____
ROOT
ATOM      1  S   UNL     1      32.969 -23.263 -15.396  0.00  0.00    -0.056 S 
ATOM      2  O   UNL     1      32.283 -20.540 -19.094  0.00  0.00    -0.252 OA
ATOM      3  N   UNL     1      31.176 -22.165 -16.900  0.00  0.00    -0.223 NA
ATOM      4  N   UNL     1      33.479 -21.733 -17.462  0.00  0.00    -0.248 N 
ATOM      5  N   UNL     1      34.619 -20.533 -19.079  0.00  0.00    -0.268 N 
ATOM      6  C   UNL     1      31.329 -23.530 -15.048  0.00  0.00    +0.031 C 
ATOM      7  C   UNL     1      30.517 -22.890 -15.926  0.00  0.00    +0.103 C 
ATOM      8  C   UNL     1      32.471 -22.289 -16.719  0.00  0.00    +0.166 C 
ATOM      9  C   UNL     1      33.348 -20.895 -18.602  0.00  0.00    +0.310 C 
ATOM     10  H   UNL     1      34.399 -21.939 -17.175  0.00  0.00    +0.158 HD
ATOM     11  H   UNL     1      35.387 -20.896 -18.580  0.00  0.00    +0.156 HD
ENDROOT
BRANCH   5  12
ATOM     12  C   UNL     1      34.932 -19.713 -20.189  0.00  0.00    +0.052 C 
ATOM     13  C   UNL     1      34.391 -18.892 -22.378  0.00  0.00    +0.073 C 
ATOM     14  C   UNL     1      34.083 -19.701 -21.284  0.00  0.00    +0.019 C 
ATOM     15  C   UNL     1      36.079 -18.938 -20.157  0.00  0.00    +0.015 C 
ATOM     16  C   UNL     1      35.543 -18.105 -22.361  0.00  0.00    +0.004 C 
ATOM     17  C   UNL     1      36.387 -18.129 -21.251  0.00  0.00    +0.001 C 
BRANCH  13  21
ATOM     18  F   UNL     1      33.602 -17.730 -24.315  0.00  0.00    -0.166 F 
ATOM     19  F   UNL     1      33.706 -19.893 -24.439  0.00  0.00    -0.166 F 
ATOM     20  F   UNL     1      32.169 -18.949 -23.224  0.00  0.00    -0.166 F 
ATOM     21  C   UNL     1      33.488 -18.866 -23.565  0.00  0.00    +0.419 C 
ENDBRANCH  13  21
ENDBRANCH   5  12
BRANCH   6  22
ATOM     22  C   UNL     1      30.948 -24.401 -13.873  0.00  0.00    +0.056 C 
BRANCH  22  23
ATOM     23  C   UNL     1      31.848 -24.177 -12.658  0.00  0.00    +0.093 C 
BRANCH  23  24
ATOM     24  N   UNL     1      33.172 -24.668 -12.901  0.00  0.00    -0.320 N 
ATOM     25  N   UNL     1      36.061 -25.661 -13.292  0.00  0.00    -0.220 N 
ATOM     26  N   UNL     1      37.373 -25.918 -13.129  0.00  0.00    -0.178 NA
ATOM     27  N   UNL     1      34.051 -23.759 -10.872  0.00  0.00    -0.232 NA
ATOM     28  N   UNL     1      36.389 -24.019 -10.229  0.00  0.00    -0.245 NA
ATOM     29  C   UNL     1      35.511 -24.939 -12.274  0.00  0.00    +0.185 C 
ATOM     30  C   UNL     1      34.242 -24.455 -12.015  0.00  0.00    +0.128 C 
ATOM     31  C   UNL     1      36.546 -24.712 -11.381  0.00  0.00    +0.103 C 
ATOM     32  C   UNL     1      37.664 -25.336 -11.960  0.00  0.00    +0.134 C 
ATOM     33  C   UNL     1      35.400 -26.153 -14.477  0.00  0.00    +0.135 C 
ATOM     34  C   UNL     1      35.121 -23.586 -10.061  0.00  0.00    +0.251 C 
ATOM     35  H   UNL     1      33.340 -25.178 -13.726  0.00  0.00    +0.148 HD
ENDBRANCH  23  24
ENDBRANCH  22  23
ENDBRANCH   6  22
TORSDOF 5
ENDMDL
MODEL 6
REMARK VINA RESULT:     -11.2      5.242     11.608
REMARK  Name = 15602701
REMARK  5 active torsions:
REMARK  status: ('A' for Active; 'I' for Inactive)
REMARK    1  A    between atoms: N_5  and  C_12
REMARK    2  A    between atoms: C_6  and  C_22
REMARK    3  A    between atoms: C_13  and  C_21
REMARK    4  A    between atoms: C_22  and  C_23
REMARK    5  A    between atoms: C_23  and  N_24
REMARK                            x       y       z     vdW  Elec       q    Type
REMARK                         _______ _______ _______ _____ _____    ______ ____
ROOT
ATOM      1  S   UNL     1      35.686 -20.236 -19.119  0.00  0.00    -0.056 S 
ATOM      2  O   UNL     1      34.354 -23.018 -15.649  0.00  0.00    -0.252 OA
ATOM      3  N   UNL     1      33.685 -21.507 -18.087  0.00  0.00    -0.223 NA
ATOM      4  N   UNL     1      35.803 -21.711 -16.956  0.00  0.00    -0.248 N 
ATOM      5  N   UNL     1      36.608 -22.796 -15.077  0.00  0.00    -0.268 N 
ATOM      6  C   UNL     1      34.169 -20.130 -19.873  0.00  0.00    +0.031 C 
ATOM      7  C   UNL     1      33.228 -20.849 -19.212  0.00  0.00    +0.103 C 
ATOM      8  C   UNL     1      34.967 -21.256 -17.941  0.00  0.00    +0.166 C 
ATOM      9  C   UNL     1      35.470 -22.560 -15.866  0.00  0.00    +0.310 C 
ATOM     10  H   UNL     1      36.742 -21.416 -17.008  0.00  0.00    +0.158 HD
ATOM     11  H   UNL     1      37.439 -22.360 -15.376  0.00  0.00    +0.156 HD
ENDROOT
BRANCH   5  12
ATOM     12  C   UNL     1      36.708 -23.583 -13.906  0.00  0.00    +0.052 C 
ATOM     13  C   UNL     1      35.998 -24.065 -11.665  0.00  0.00    +0.073 C 
ATOM     14  C   UNL     1      35.900 -23.289 -12.820  0.00  0.00    +0.019 C 
ATOM     15  C   UNL     1      37.610 -24.634 -13.870  0.00  0.00    +0.015 C 
ATOM     16  C   UNL     1      36.902 -25.127 -11.612  0.00  0.00    +0.004 C 
ATOM     17  C   UNL     1      37.709 -25.410 -12.715  0.00  0.00    +0.001 C 
BRANCH  13  21
ATOM     18  F   UNL     1      34.776 -24.870  -9.772  0.00  0.00    -0.166 F 
ATOM     19  F   UNL     1      35.723 -22.929  -9.579  0.00  0.00    -0.166 F 
ATOM     20  F   UNL     1      33.963 -23.157 -10.835  0.00  0.00    -0.166 F 
ATOM     21  C   UNL     1      35.136 -23.763 -10.486  0.00  0.00    +0.419 C 
ENDBRANCH  13  21
ENDBRANCH   5  12
BRANCH   6  22
ATOM     22  C   UNL     1      34.015 -19.299 -21.125  0.00  0.00    +0.056 C 
BRANCH  22  23
ATOM     23  C   UNL     1      34.922 -18.069 -21.130  0.00  0.00    +0.093 C 
BRANCH  23  24
ATOM     24  N   UNL     1      34.395 -17.044 -21.982  0.00  0.00    -0.320 N 
ATOM     25  N   UNL     1      33.236 -14.757 -23.689  0.00  0.00    -0.220 N 
ATOM     26  N   UNL     1      32.682 -13.598 -24.093  0.00  0.00    -0.178 NA
ATOM     27  N   UNL     1      33.878 -15.579 -20.165  0.00  0.00    -0.232 NA
ATOM     28  N   UNL     1      32.865 -13.387 -20.501  0.00  0.00    -0.245 NA
ATOM     29  C   UNL     1      33.384 -14.855 -22.337  0.00  0.00    +0.185 C 
ATOM     30  C   UNL     1      33.888 -15.828 -21.493  0.00  0.00    +0.128 C 
ATOM     31  C   UNL     1      32.890 -13.667 -21.825  0.00  0.00    +0.103 C 
ATOM     32  C   UNL     1      32.473 -12.936 -22.950  0.00  0.00    +0.134 C 
ATOM     33  C   UNL     1      33.600 -15.737 -24.686  0.00  0.00    +0.135 C 
ATOM     34  C   UNL     1      33.374 -14.390 -19.756  0.00  0.00    +0.251 C 
ATOM     35  H   UNL     1      34.389 -17.198 -22.954  0.00  0.00    +0.148 HD
ENDBRANCH  23  24
ENDBRANCH  22  23
ENDBRANCH   6  22
TORSDOF 5
ENDMDL
MODEL 7
REMARK VINA RESULT:     -11.2      7.663     14.342
REMARK  Name = 15602701
REMARK  5 active torsions:
REMARK  status: ('A' for Active; 'I' for Inactive)
REMARK    1  A    between atoms: N_5  and  C_12
REMARK    2  A    between atoms: C_6  and  C_22
REMARK    3  A    between atoms: C_13  and  C_21
REMARK    4  A    between atoms: C_22  and  C_23
REMARK    5  A    between atoms: C_23  and  N_24
REMARK                            x       y       z     vdW  Elec       q    Type
REMARK                         _______ _______ _______ _____ _____    ______ ____
ROOT
ATOM      1  S   UNL     1      33.173 -14.229 -24.246  0.00  0.00    -0.056 S 
ATOM      2  O   UNL     1      34.185 -16.157 -20.145  0.00  0.00    -0.252 OA
ATOM      3  N   UNL     1      33.562 -13.756 -21.735  0.00  0.00    -0.223 NA
ATOM      4  N   UNL     1      33.749 -16.050 -22.451  0.00  0.00    -0.248 N 
ATOM      5  N   UNL     1      34.212 -18.088 -21.459  0.00  0.00    -0.268 N 
ATOM      6  C   UNL     1      33.053 -12.632 -23.683  0.00  0.00    +0.031 C 
ATOM      7  C   UNL     1      33.285 -12.551 -22.349  0.00  0.00    +0.103 C 
ATOM      8  C   UNL     1      33.530 -14.710 -22.638  0.00  0.00    +0.166 C 
ATOM      9  C   UNL     1      34.063 -16.710 -21.233  0.00  0.00    +0.310 C 
ATOM     10  H   UNL     1      33.683 -16.620 -23.252  0.00  0.00    +0.158 HD
ATOM     11  H   UNL     1      34.085 -18.390 -22.388  0.00  0.00    +0.156 HD
ENDROOT
BRANCH   5  12
ATOM     12  C   UNL     1      34.524 -19.098 -20.518  0.00  0.00    +0.052 C 
ATOM     13  C   UNL     1      33.803 -20.822 -19.013  0.00  0.00    +0.073 C 
ATOM     14  C   UNL     1      33.496 -19.827 -19.941  0.00  0.00    +0.019 C 
ATOM     15  C   UNL     1      35.848 -19.337 -20.194  0.00  0.00    +0.015 C 
ATOM     16  C   UNL     1      35.133 -21.076 -18.676  0.00  0.00    +0.004 C 
ATOM     17  C   UNL     1      36.156 -20.332 -19.266  0.00  0.00    +0.001 C 
BRANCH  13  21
ATOM     18  F   UNL     1      32.985 -22.006 -17.101  0.00  0.00    -0.166 F 
ATOM     19  F   UNL     1      31.523 -20.948 -18.304  0.00  0.00    -0.166 F 
ATOM     20  F   UNL     1      32.438 -22.769 -19.063  0.00  0.00    -0.166 F 
ATOM     21  C   UNL     1      32.711 -21.618 -18.382  0.00  0.00    +0.419 C 
ENDBRANCH  13  21
ENDBRANCH   5  12
BRANCH   6  22
ATOM     22  C   UNL     1      32.725 -11.522 -24.654  0.00  0.00    +0.056 C 
BRANCH  22  23
ATOM     23  C   UNL     1      33.523 -10.248 -24.382  0.00  0.00    +0.093 C 
BRANCH  23  24
ATOM     24  N   UNL     1      32.687  -9.087 -24.469  0.00  0.00    -0.320 N 
ATOM     25  N   UNL     1      30.863  -6.606 -24.508  0.00  0.00    -0.220 N 
ATOM     26  N   UNL     1      30.031  -5.607 -24.156  0.00  0.00    -0.178 NA
ATOM     27  N   UNL     1      32.119  -9.127 -22.147  0.00  0.00    -0.232 NA
ATOM     28  N   UNL     1      30.636  -7.477 -21.136  0.00  0.00    -0.245 NA
ATOM     29  C   UNL     1      31.205  -7.428 -23.475  0.00  0.00    +0.185 C 
ATOM     30  C   UNL     1      32.006  -8.549 -23.364  0.00  0.00    +0.128 C 
ATOM     31  C   UNL     1      30.545  -6.922 -22.367  0.00  0.00    +0.103 C 
ATOM     32  C   UNL     1      29.840  -5.805 -22.847  0.00  0.00    +0.134 C 
ATOM     33  C   UNL     1      31.289  -6.701 -25.885  0.00  0.00    +0.135 C 
ATOM     34  C   UNL     1      31.437  -8.563 -21.122  0.00  0.00    +0.251 C 
ATOM     35  H   UNL     1      32.586  -8.646 -25.343  0.00  0.00    +0.148 HD
ENDBRANCH  23  24
ENDBRANCH  22  23
ENDBRANCH   6  22
TORSDOF 5
ENDMDL
MODEL 8
REMARK VINA RESULT:     -11.1      3.420      5.915
REMARK  Name = 15602701
REMARK  5 active torsions:
REMARK  status: ('A' for Active; 'I' for Inactive)
REMARK    1  A    between atoms: N_5  and  C_12
REMARK    2  A    between atoms: C_6  and  C_22
REMARK    3  A    between atoms: C_13  and  C_21
REMARK    4  A    between atoms: C_22  and  C_23
REMARK    5  A    between atoms: C_23  and  N_24
REMARK                            x       y       z     vdW  Elec       q    Type
REMARK                         _______ _______ _______ _____ _____    ______ ____
ROOT
ATOM      1  S   UNL     1      33.586 -19.382 -20.485  0.00  0.00    -0.056 S 
ATOM      2  O   UNL     1      35.101 -15.571 -22.664  0.00  0.00    -0.252 OA
ATOM      3  N   UNL     1      35.671 -17.950 -21.022  0.00  0.00    -0.223 NA
ATOM      4  N   UNL     1      33.567 -17.183 -21.912  0.00  0.00    -0.248 N 
ATOM      5  N   UNL     1      32.832 -15.405 -23.198  0.00  0.00    -0.268 N 
ATOM      6  C   UNL     1      35.096 -19.873 -19.886  0.00  0.00    +0.031 C 
ATOM      7  C   UNL     1      36.085 -19.019 -20.251  0.00  0.00    +0.103 C 
ATOM      8  C   UNL     1      34.373 -18.038 -21.208  0.00  0.00    +0.166 C 
ATOM      9  C   UNL     1      33.955 -16.003 -22.601  0.00  0.00    +0.310 C 
ATOM     10  H   UNL     1      32.609 -17.412 -21.944  0.00  0.00    +0.158 HD
ATOM     11  H   UNL     1      31.973 -15.866 -23.061  0.00  0.00    +0.156 HD
ENDROOT
BRANCH   5  12
ATOM     12  C   UNL     1      32.784 -14.221 -23.972  0.00  0.00    +0.052 C 
ATOM     13  C   UNL     1      32.875 -11.827 -24.106  0.00  0.00    +0.073 C 
ATOM     14  C   UNL     1      32.923 -12.994 -23.343  0.00  0.00    +0.019 C 
ATOM     15  C   UNL     1      32.601 -14.314 -25.341  0.00  0.00    +0.015 C 
ATOM     16  C   UNL     1      32.692 -11.903 -25.487  0.00  0.00    +0.004 C 
ATOM     17  C   UNL     1      32.554 -13.147 -26.104  0.00  0.00    +0.001 C 
BRANCH  13  21
ATOM     18  F   UNL     1      32.472 -10.441 -22.198  0.00  0.00    -0.166 F 
ATOM     19  F   UNL     1      34.323 -10.112 -23.279  0.00  0.00    -0.166 F 
ATOM     20  F   UNL     1      32.431  -9.492 -24.154  0.00  0.00    -0.166 F 
ATOM     21  C   UNL     1      33.024 -10.498 -23.447  0.00  0.00    +0.419 C 
ENDBRANCH  13  21
ENDBRANCH   5  12
BRANCH   6  22
ATOM     22  C   UNL     1      35.195 -21.129 -19.052  0.00  0.00    +0.056 C 
BRANCH  22  23
ATOM     23  C   UNL     1      33.838 -21.594 -18.526  0.00  0.00    +0.093 C 
BRANCH  23  24
ATOM     24  N   UNL     1      33.961 -22.162 -17.216  0.00  0.00    -0.320 N 
ATOM     25  N   UNL     1      34.076 -23.388 -14.392  0.00  0.00    -0.220 N 
ATOM     26  N   UNL     1      33.748 -23.904 -13.192  0.00  0.00    -0.178 NA
ATOM     27  N   UNL     1      31.599 -22.291 -16.876  0.00  0.00    -0.232 NA
ATOM     28  N   UNL     1      30.620 -23.172 -14.824  0.00  0.00    -0.245 NA
ATOM     29  C   UNL     1      33.001 -23.047 -15.159  0.00  0.00    +0.185 C 
ATOM     30  C   UNL     1      32.854 -22.500 -16.420  0.00  0.00    +0.128 C 
ATOM     31  C   UNL     1      31.889 -23.368 -14.397  0.00  0.00    +0.103 C 
ATOM     32  C   UNL     1      32.410 -23.889 -13.201  0.00  0.00    +0.134 C 
ATOM     33  C   UNL     1      35.474 -23.253 -14.730  0.00  0.00    +0.135 C 
ATOM     34  C   UNL     1      30.573 -22.635 -16.062  0.00  0.00    +0.251 C 
ATOM     35  H   UNL     1      34.864 -22.325 -16.858  0.00  0.00    +0.148 HD
ENDBRANCH  23  24
ENDBRANCH  22  23
ENDBRANCH   6  22
TORSDOF 5
ENDMDL
MODEL 9
REMARK VINA RESULT:     -11.0      5.277     11.862
REMARK  Name = 15602701
REMARK  5 active torsions:
REMARK  status: ('A' for Active; 'I' for Inactive)
REMARK    1  A    between atoms: N_5  and  C_12
REMARK    2  A    between atoms: C_6  and  C_22
REMARK    3  A    between atoms: C_13  and  C_21
REMARK    4  A    between atoms: C_22  and  C_23
REMARK    5  A    between atoms: C_23  and  N_24
REMARK                            x       y       z     vdW  Elec       q    Type
REMARK                         _______ _______ _______ _____ _____    ______ ____
ROOT
ATOM      1  S   UNL     1      33.041 -20.517 -19.808  0.00  0.00    -0.056 S 
ATOM      2  O   UNL     1      35.918 -21.786 -16.392  0.00  0.00    -0.252 OA
ATOM      3  N   UNL     1      35.466 -20.354 -18.926  0.00  0.00    -0.223 NA
ATOM      4  N   UNL     1      33.909 -21.625 -17.597  0.00  0.00    -0.248 N 
ATOM      5  N   UNL     1      33.973 -22.825 -15.620  0.00  0.00    -0.268 N 
ATOM      6  C   UNL     1      34.183 -19.633 -20.702  0.00  0.00    +0.031 C 
ATOM      7  C   UNL     1      35.403 -19.645 -20.110  0.00  0.00    +0.103 C 
ATOM      8  C   UNL     1      34.279 -20.857 -18.669  0.00  0.00    +0.166 C 
ATOM      9  C   UNL     1      34.728 -22.053 -16.519  0.00  0.00    +0.310 C 
ATOM     10  H   UNL     1      32.967 -21.915 -17.572  0.00  0.00    +0.158 HD
ATOM     11  H   UNL     1      33.026 -22.957 -15.854  0.00  0.00    +0.156 HD
ENDROOT
BRANCH   5  12
ATOM     12  C   UNL     1      34.407 -23.439 -14.421  0.00  0.00    +0.052 C 
ATOM     13  C   UNL     1      36.059 -24.691 -13.213  0.00  0.00    +0.073 C 
ATOM     14  C   UNL     1      35.632 -24.086 -14.395  0.00  0.00    +0.019 C 
ATOM     15  C   UNL     1      33.599 -23.378 -13.298  0.00  0.00    +0.015 C 
ATOM     16  C   UNL     1      35.257 -24.638 -12.072  0.00  0.00    +0.004 C 
ATOM     17  C   UNL     1      34.027 -23.982 -12.115  0.00  0.00    +0.001 C 
BRANCH  13  21
ATOM     18  F   UNL     1      37.416 -26.531 -13.918  0.00  0.00    -0.166 F 
ATOM     19  F   UNL     1      38.416 -24.630 -13.616  0.00  0.00    -0.166 F 
ATOM     20  F   UNL     1      37.722 -25.775 -11.903  0.00  0.00    -0.166 F 
ATOM     21  C   UNL     1      37.375 -25.392 -13.166  0.00  0.00    +0.419 C 
ENDBRANCH  13  21
ENDBRANCH   5  12
BRANCH   6  22
ATOM     22  C   UNL     1      33.765 -18.963 -21.990  0.00  0.00    +0.056 C 
BRANCH  22  23
ATOM     23  C   UNL     1      34.686 -17.807 -22.378  0.00  0.00    +0.093 C 
BRANCH  23  24
ATOM     24  N   UNL     1      34.156 -16.554 -21.930  0.00  0.00    -0.320 N 
ATOM     25  N   UNL     1      32.980 -13.828 -21.109  0.00  0.00    -0.220 N 
ATOM     26  N   UNL     1      32.403 -12.611 -21.125  0.00  0.00    -0.178 NA
ATOM     27  N   UNL     1      33.515 -15.859 -24.125  0.00  0.00    -0.232 NA
ATOM     28  N   UNL     1      32.439 -13.714 -24.555  0.00  0.00    -0.245 NA
ATOM     29  C   UNL     1      33.080 -14.406 -22.340  0.00  0.00    +0.185 C 
ATOM     30  C   UNL     1      33.584 -15.609 -22.799  0.00  0.00    +0.128 C 
ATOM     31  C   UNL     1      32.523 -13.495 -23.222  0.00  0.00    +0.103 C 
ATOM     32  C   UNL     1      32.126 -12.413 -22.418  0.00  0.00    +0.134 C 
ATOM     33  C   UNL     1      33.417 -14.372 -19.844  0.00  0.00    +0.135 C 
ATOM     34  C   UNL     1      32.954 -14.909 -24.911  0.00  0.00    +0.251 C 
ATOM     35  H   UNL     1      34.194 -16.345 -20.968  0.00  0.00    +0.148 HD
ENDBRANCH  23  24
ENDBRANCH  22  23
ENDBRANCH   6  22
TORSDOF 5
ENDMDL
