MODEL 1
REMARK VINA RESULT:     -12.5      0.000      0.000
REMARK  Name = 9823454
REMARK  7 active torsions:
REMARK  status: ('A' for Active; 'I' for Inactive)
REMARK    1  A    between atoms: C_1  and  C_4
REMARK    2  A    between atoms: C_1  and  N_8
REMARK    3  A    between atoms: C_1  and  C_23
REMARK    4  A    between atoms: N_3  and  O_6
REMARK    5  A    between atoms: N_8  and  S_10
REMARK    6  A    between atoms: S_10  and  C_13
REMARK    7  A    between atoms: C_23  and  C_24
REMARK                            x       y       z     vdW  Elec       q    Type
REMARK                         _______ _______ _______ _____ _____    ______ ____
ROOT
ATOM      1  C   UNL     1      33.752 -23.837 -12.606  0.00  0.00    +0.158 C 
ENDROOT
BRANCH   1   4
ATOM      2  O   UNL     1      34.431 -23.978 -10.291  0.00  0.00    -0.272 OA
ATOM      3  N   UNL     1      35.419 -25.389 -11.829  0.00  0.00    -0.196 N 
ATOM      4  C   UNL     1      34.554 -24.395 -11.442  0.00  0.00    +0.260 C 
ATOM      5  H   UNL     1      35.484 -25.691 -12.764  0.00  0.00    +0.182 HD
BRANCH   3   6
ATOM      6  O   UNL     1      36.203 -25.948 -10.811  0.00  0.00    -0.295 OA
ATOM      7  H   UNL     1      36.315 -26.898 -10.974  0.00  0.00    +0.241 HD
ENDBRANCH   3   6
ENDBRANCH   1   4
BRANCH   1   8
ATOM      8  N   UNL     1      34.638 -22.844 -13.261  0.00  0.00    -0.172 NA
ATOM      9  H   UNL     1      34.044 -22.071 -13.560  0.00  0.00    +0.149 HD
BRANCH   8  10
ATOM     10  S   UNL     1      35.569 -23.299 -14.606  0.00  0.00    +0.061 S 
ATOM     11  O   UNL     1      35.549 -24.743 -14.741  0.00  0.00    -0.153 OA
ATOM     12  O   UNL     1      36.833 -22.588 -14.560  0.00  0.00    -0.153 OA
BRANCH  10  13
ATOM     13  C   UNL     1      34.640 -22.613 -15.942  0.00  0.00    +0.122 C 
ATOM     14  C   UNL     1      35.291 -21.856 -16.900  0.00  0.00    +0.020 C 
ATOM     15  C   UNL     1      34.567 -21.303 -17.969  0.00  0.00    +0.001 C 
ATOM     16  C   UNL     1      33.280 -22.846 -16.007  0.00  0.00    +0.020 C 
ATOM     17  C   UNL     1      33.172 -21.531 -18.050  0.00  0.00    +0.000 C 
ATOM     18  C   UNL     1      32.544 -22.305 -17.062  0.00  0.00    +0.001 C 
ATOM     19  C   UNL     1      35.195 -20.529 -18.958  0.00  0.00    +0.000 C 
ATOM     20  C   UNL     1      32.447 -20.977 -19.118  0.00  0.00    +0.000 C 
ATOM     21  C   UNL     1      34.459 -19.987 -20.012  0.00  0.00    +0.000 C 
ATOM     22  C   UNL     1      33.089 -20.211 -20.092  0.00  0.00    +0.000 C 
ENDBRANCH  10  13
ENDBRANCH   8  10
ENDBRANCH   1   8
BRANCH   1  23
ATOM     23  C   UNL     1      32.468 -23.147 -12.118  0.00  0.00    +0.053 C 
BRANCH  23  24
ATOM     24  C   UNL     1      31.258 -23.522 -12.906  0.00  0.00    -0.020 C 
ATOM     25  C   UNL     1      30.630 -22.574 -13.714  0.00  0.00    -0.004 C 
ATOM     26  C   UNL     1      29.490 -22.912 -14.462  0.00  0.00    -0.000 C 
ATOM     27  C   UNL     1      30.758 -24.819 -12.835  0.00  0.00    -0.004 C 
ATOM     28  C   UNL     1      28.981 -24.231 -14.390  0.00  0.00    -0.000 C 
ATOM     29  C   UNL     1      29.627 -25.172 -13.572  0.00  0.00    -0.000 C 
ATOM     30  C   UNL     1      28.845 -21.970 -15.279  0.00  0.00    -0.000 C 
ATOM     31  C   UNL     1      27.842 -24.569 -15.138  0.00  0.00    -0.000 C 
ATOM     32  C   UNL     1      27.714 -22.324 -16.017  0.00  0.00    -0.000 C 
ATOM     33  C   UNL     1      27.213 -23.620 -15.945  0.00  0.00    -0.000 C 
ENDBRANCH  23  24
ENDBRANCH   1  23
TORSDOF 7
ENDMDL
MODEL 2
REMARK VINA RESULT:     -12.1      1.539      6.074
REMARK  Name = 9823454
REMARK  7 active torsions:
REMARK  status: ('A' for Active; 'I' for Inactive)
REMARK    1  A    between atoms: C_1  and  C_4
REMARK    2  A    between atoms: C_1  and  N_8
REMARK    3  A    between atoms: C_1  and  C_23
REMARK    4  A    between atoms: N_3  and  O_6
REMARK    5  A    between atoms: N_8  and  S_10
REMARK    6  A    between atoms: S_10  and  C_13
REMARK    7  A    between atoms: C_23  and  C_24
REMARK                            x       y       z     vdW  Elec       q    Type
REMARK                         _______ _______ _______ _____ _____    ______ ____
ROOT
ATOM      1  C   UNL     1      34.998 -22.201 -14.719  0.00  0.00    +0.158 C 
ENDROOT
BRANCH   1   4
ATOM      2  O   UNL     1      36.682 -22.446 -13.004  0.00  0.00    -0.272 OA
ATOM      3  N   UNL     1      36.988 -23.517 -15.026  0.00  0.00    -0.196 N 
ATOM      4  C   UNL     1      36.302 -22.724 -14.140  0.00  0.00    +0.260 C 
ATOM      5  H   UNL     1      36.645 -23.714 -15.928  0.00  0.00    +0.182 HD
BRANCH   3   6
ATOM      6  O   UNL     1      38.210 -24.031 -14.568  0.00  0.00    -0.295 OA
ATOM      7  H   UNL     1      38.935 -23.467 -14.880  0.00  0.00    +0.241 HD
ENDBRANCH   3   6
ENDBRANCH   1   4
BRANCH   1   8
ATOM      8  N   UNL     1      33.992 -22.357 -13.641  0.00  0.00    -0.172 NA
ATOM      9  H   UNL     1      34.344 -21.846 -12.833  0.00  0.00    +0.149 HD
BRANCH   8  10
ATOM     10  S   UNL     1      33.571 -23.909 -13.096  0.00  0.00    +0.061 S 
ATOM     11  O   UNL     1      33.696 -23.963 -11.651  0.00  0.00    -0.153 OA
ATOM     12  O   UNL     1      34.242 -24.893 -13.924  0.00  0.00    -0.153 OA
BRANCH  10  13
ATOM     13  C   UNL     1      31.852 -23.983 -13.497  0.00  0.00    +0.122 C 
ATOM     14  C   UNL     1      31.340 -23.108 -14.440  0.00  0.00    +0.020 C 
ATOM     15  C   UNL     1      29.976 -23.154 -14.771  0.00  0.00    +0.001 C 
ATOM     16  C   UNL     1      31.051 -24.912 -12.863  0.00  0.00    +0.020 C 
ATOM     17  C   UNL     1      29.140 -24.100 -14.130  0.00  0.00    +0.000 C 
ATOM     18  C   UNL     1      29.693 -24.972 -13.179  0.00  0.00    +0.001 C 
ATOM     19  C   UNL     1      29.423 -22.282 -15.722  0.00  0.00    +0.000 C 
ATOM     20  C   UNL     1      27.775 -24.145 -14.460  0.00  0.00    +0.000 C 
ATOM     21  C   UNL     1      28.064 -22.341 -16.037  0.00  0.00    +0.000 C 
ATOM     22  C   UNL     1      27.243 -23.271 -15.408  0.00  0.00    +0.000 C 
ENDBRANCH  10  13
ENDBRANCH   8  10
ENDBRANCH   1   8
BRANCH   1  23
ATOM     23  C   UNL     1      34.570 -23.015 -15.952  0.00  0.00    +0.053 C 
BRANCH  23  24
ATOM     24  C   UNL     1      34.170 -22.167 -17.112  0.00  0.00    -0.020 C 
ATOM     25  C   UNL     1      35.131 -21.418 -17.793  0.00  0.00    -0.004 C 
ATOM     26  C   UNL     1      34.770 -20.614 -18.887  0.00  0.00    -0.000 C 
ATOM     27  C   UNL     1      32.839 -22.124 -17.515  0.00  0.00    -0.004 C 
ATOM     28  C   UNL     1      33.415 -20.571 -19.296  0.00  0.00    -0.000 C 
ATOM     29  C   UNL     1      32.463 -21.332 -18.600  0.00  0.00    -0.000 C 
ATOM     30  C   UNL     1      35.723 -19.854 -19.582  0.00  0.00    -0.000 C 
ATOM     31  C   UNL     1      33.055 -19.768 -20.390  0.00  0.00    -0.000 C 
ATOM     32  C   UNL     1      35.347 -19.061 -20.668  0.00  0.00    -0.000 C 
ATOM     33  C   UNL     1      34.015 -19.018 -21.070  0.00  0.00    -0.000 C 
ENDBRANCH  23  24
ENDBRANCH   1  23
TORSDOF 7
ENDMDL
MODEL 3
REMARK VINA RESULT:     -11.5      0.809      1.576
REMARK  Name = 9823454
REMARK  7 active torsions:
REMARK  status: ('A' for Active; 'I' for Inactive)
REMARK    1  A    between atoms: C_1  and  C_4
REMARK    2  A    between atoms: C_1  and  N_8
REMARK    3  A    between atoms: C_1  and  C_23
REMARK    4  A    between atoms: N_3  and  O_6
REMARK    5  A    between atoms: N_8  and  S_10
REMARK    6  A    between atoms: S_10  and  C_13
REMARK    7  A    between atoms: C_23  and  C_24
REMARK                            x       y       z     vdW  Elec       q    Type
REMARK                         _______ _______ _______ _____ _____    ______ ____
ROOT
ATOM      1  C   UNL     1      33.709 -23.912 -12.433  0.00  0.00    +0.158 C 
ENDROOT
BRANCH   1   4
ATOM      2  O   UNL     1      35.141 -25.025 -10.835  0.00  0.00    -0.272 OA
ATOM      3  N   UNL     1      35.272 -22.729 -11.036  0.00  0.00    -0.196 N 
ATOM      4  C   UNL     1      34.779 -23.971 -11.355  0.00  0.00    +0.260 C 
ATOM      5  H   UNL     1      34.952 -21.910 -11.480  0.00  0.00    +0.182 HD
BRANCH   3   6
ATOM      6  O   UNL     1      36.258 -22.699 -10.041  0.00  0.00    -0.295 OA
ATOM      7  H   UNL     1      36.893 -21.993 -10.237  0.00  0.00    +0.241 HD
ENDBRANCH   3   6
ENDBRANCH   1   4
BRANCH   1   8
ATOM      8  N   UNL     1      34.215 -22.952 -13.444  0.00  0.00    -0.172 NA
ATOM      9  H   UNL     1      33.434 -22.738 -14.064  0.00  0.00    +0.149 HD
BRANCH   8  10
ATOM     10  S   UNL     1      35.526 -23.380 -14.434  0.00  0.00    +0.061 S 
ATOM     11  O   UNL     1      35.464 -24.799 -14.731  0.00  0.00    -0.153 OA
ATOM     12  O   UNL     1      36.736 -22.803 -13.882  0.00  0.00    -0.153 OA
BRANCH  10  13
ATOM     13  C   UNL     1      35.164 -22.497 -15.921  0.00  0.00    +0.122 C 
ATOM     14  C   UNL     1      33.860 -22.457 -16.384  0.00  0.00    +0.020 C 
ATOM     15  C   UNL     1      33.556 -21.760 -17.564  0.00  0.00    +0.001 C 
ATOM     16  C   UNL     1      36.189 -21.861 -16.593  0.00  0.00    +0.020 C 
ATOM     17  C   UNL     1      34.594 -21.102 -18.266  0.00  0.00    +0.000 C 
ATOM     18  C   UNL     1      35.905 -21.162 -17.768  0.00  0.00    +0.001 C 
ATOM     19  C   UNL     1      32.244 -21.700 -18.062  0.00  0.00    +0.000 C 
ATOM     20  C   UNL     1      34.290 -20.405 -19.447  0.00  0.00    +0.000 C 
ATOM     21  C   UNL     1      31.960 -21.002 -19.237  0.00  0.00    +0.000 C 
ATOM     22  C   UNL     1      32.981 -20.356 -19.927  0.00  0.00    +0.000 C 
ENDBRANCH  10  13
ENDBRANCH   8  10
ENDBRANCH   1   8
BRANCH   1  23
ATOM     23  C   UNL     1      32.372 -23.411 -11.862  0.00  0.00    +0.053 C 
BRANCH  23  24
ATOM     24  C   UNL     1      31.205 -23.705 -12.744  0.00  0.00    -0.020 C 
ATOM     25  C   UNL     1      30.583 -22.672 -13.446  0.00  0.00    -0.004 C 
ATOM     26  C   UNL     1      29.484 -22.933 -14.280  0.00  0.00    -0.000 C 
ATOM     27  C   UNL     1      30.738 -25.010 -12.867  0.00  0.00    -0.004 C 
ATOM     28  C   UNL     1      29.009 -24.260 -14.405  0.00  0.00    -0.000 C 
ATOM     29  C   UNL     1      29.648 -25.287 -13.692  0.00  0.00    -0.000 C 
ATOM     30  C   UNL     1      28.846 -21.905 -14.993  0.00  0.00    -0.000 C 
ATOM     31  C   UNL     1      27.910 -24.521 -15.239  0.00  0.00    -0.000 C 
ATOM     32  C   UNL     1      27.754 -22.182 -15.818  0.00  0.00    -0.000 C 
ATOM     33  C   UNL     1      27.288 -23.487 -15.940  0.00  0.00    -0.000 C 
ENDBRANCH  23  24
ENDBRANCH   1  23
TORSDOF 7
ENDMDL
MODEL 4
REMARK VINA RESULT:     -10.9      3.127      5.700
REMARK  Name = 9823454
REMARK  7 active torsions:
REMARK  status: ('A' for Active; 'I' for Inactive)
REMARK    1  A    between atoms: C_1  and  C_4
REMARK    2  A    between atoms: C_1  and  N_8
REMARK    3  A    between atoms: C_1  and  C_23
REMARK    4  A    between atoms: N_3  and  O_6
REMARK    5  A    between atoms: N_8  and  S_10
REMARK    6  A    between atoms: S_10  and  C_13
REMARK    7  A    between atoms: C_23  and  C_24
REMARK                            x       y       z     vdW  Elec       q    Type
REMARK                         _______ _______ _______ _____ _____    ______ ____
ROOT
ATOM      1  C   UNL     1      31.423 -22.564 -15.335  0.00  0.00    +0.158 C 
ENDROOT
BRANCH   1   4
ATOM      2  O   UNL     1      29.437 -22.468 -13.961  0.00  0.00    -0.272 OA
ATOM      3  N   UNL     1      29.233 -22.143 -16.238  0.00  0.00    -0.196 N 
ATOM      4  C   UNL     1      29.934 -22.387 -15.083  0.00  0.00    +0.260 C 
ATOM      5  H   UNL     1      29.674 -22.087 -17.117  0.00  0.00    +0.182 HD
BRANCH   3   6
ATOM      6  O   UNL     1      27.849 -21.978 -16.090  0.00  0.00    -0.295 OA
ATOM      7  H   UNL     1      27.643 -21.795 -15.160  0.00  0.00    +0.241 HD
ENDBRANCH   3   6
ENDBRANCH   1   4
BRANCH   1   8
ATOM      8  N   UNL     1      31.628 -22.225 -16.763  0.00  0.00    -0.172 NA
ATOM      9  H   UNL     1      30.869 -22.664 -17.283  0.00  0.00    +0.149 HD
BRANCH   8  10
ATOM     10  S   UNL     1      33.073 -22.668 -17.538  0.00  0.00    +0.061 S 
ATOM     11  O   UNL     1      32.865 -23.896 -18.282  0.00  0.00    -0.153 OA
ATOM     12  O   UNL     1      34.163 -22.567 -16.586  0.00  0.00    -0.153 OA
BRANCH  10  13
ATOM     13  C   UNL     1      33.281 -21.355 -18.701  0.00  0.00    +0.122 C 
ATOM     14  C   UNL     1      34.557 -20.900 -18.986  0.00  0.00    +0.020 C 
ATOM     15  C   UNL     1      34.740 -19.856 -19.908  0.00  0.00    +0.001 C 
ATOM     16  C   UNL     1      32.167 -20.806 -19.305  0.00  0.00    +0.020 C 
ATOM     17  C   UNL     1      33.608 -19.282 -20.536  0.00  0.00    +0.000 C 
ATOM     18  C   UNL     1      32.330 -19.768 -20.224  0.00  0.00    +0.001 C 
ATOM     19  C   UNL     1      36.020 -19.369 -20.219  0.00  0.00    +0.000 C 
ATOM     20  C   UNL     1      33.791 -18.237 -21.457  0.00  0.00    +0.000 C 
ATOM     21  C   UNL     1      36.182 -18.331 -21.138  0.00  0.00    +0.000 C 
ATOM     22  C   UNL     1      35.070 -17.767 -21.755  0.00  0.00    +0.000 C 
ENDBRANCH  10  13
ENDBRANCH   8  10
ENDBRANCH   1   8
BRANCH   1  23
ATOM     23  C   UNL     1      31.863 -24.014 -15.075  0.00  0.00    +0.053 C 
BRANCH  23  24
ATOM     24  C   UNL     1      32.926 -24.133 -14.035  0.00  0.00    -0.020 C 
ATOM     25  C   UNL     1      34.167 -24.680 -14.364  0.00  0.00    -0.004 C 
ATOM     26  C   UNL     1      35.178 -24.798 -13.396  0.00  0.00    -0.000 C 
ATOM     27  C   UNL     1      32.679 -23.698 -12.737  0.00  0.00    -0.004 C 
ATOM     28  C   UNL     1      34.926 -24.355 -12.076  0.00  0.00    -0.000 C 
ATOM     29  C   UNL     1      33.672 -23.807 -11.763  0.00  0.00    -0.000 C 
ATOM     30  C   UNL     1      36.431 -25.346 -13.711  0.00  0.00    -0.000 C 
ATOM     31  C   UNL     1      35.937 -24.473 -11.108  0.00  0.00    -0.000 C 
ATOM     32  C   UNL     1      37.425 -25.456 -12.736  0.00  0.00    -0.000 C 
ATOM     33  C   UNL     1      37.177 -25.021 -11.438  0.00  0.00    -0.000 C 
ENDBRANCH  23  24
ENDBRANCH   1  23
TORSDOF 7
ENDMDL
MODEL 5
REMARK VINA RESULT:     -10.6      2.051      3.236
REMARK  Name = 9823454
REMARK  7 active torsions:
REMARK  status: ('A' for Active; 'I' for Inactive)
REMARK    1  A    between atoms: C_1  and  C_4
REMARK    2  A    between atoms: C_1  and  N_8
REMARK    3  A    between atoms: C_1  and  C_23
REMARK    4  A    between atoms: N_3  and  O_6
REMARK    5  A    between atoms: N_8  and  S_10
REMARK    6  A    between atoms: S_10  and  C_13
REMARK    7  A    between atoms: C_23  and  C_24
REMARK                            x       y       z     vdW  Elec       q    Type
REMARK                         _______ _______ _______ _____ _____    ______ ____
ROOT
ATOM      1  C   UNL     1      34.152 -23.135 -15.175  0.00  0.00    +0.158 C 
ENDROOT
BRANCH   1   4
ATOM      2  O   UNL     1      36.149 -21.773 -15.203  0.00  0.00    -0.272 OA
ATOM      3  N   UNL     1      36.333 -24.007 -14.650  0.00  0.00    -0.196 N 
ATOM      4  C   UNL     1      35.642 -22.878 -15.014  0.00  0.00    +0.260 C 
ATOM      5  H   UNL     1      35.884 -24.872 -14.509  0.00  0.00    +0.182 HD
BRANCH   3   6
ATOM      6  O   UNL     1      37.717 -23.853 -14.491  0.00  0.00    -0.295 OA
ATOM      7  H   UNL     1      38.083 -23.403 -15.269  0.00  0.00    +0.241 HD
ENDBRANCH   3   6
ENDBRANCH   1   4
BRANCH   1   8
ATOM      8  N   UNL     1      33.644 -22.023 -16.013  0.00  0.00    -0.172 NA
ATOM      9  H   UNL     1      32.924 -21.549 -15.469  0.00  0.00    +0.149 HD
BRANCH   8  10
ATOM     10  S   UNL     1      32.972 -22.351 -17.537  0.00  0.00    +0.061 S 
ATOM     11  O   UNL     1      31.582 -21.936 -17.552  0.00  0.00    -0.153 OA
ATOM     12  O   UNL     1      33.334 -23.701 -17.926  0.00  0.00    -0.153 OA
BRANCH  10  13
ATOM     13  C   UNL     1      33.880 -21.252 -18.581  0.00  0.00    +0.122 C 
ATOM     14  C   UNL     1      33.213 -20.565 -19.581  0.00  0.00    +0.020 C 
ATOM     15  C   UNL     1      33.921 -19.688 -20.420  0.00  0.00    +0.001 C 
ATOM     16  C   UNL     1      35.237 -21.099 -18.379  0.00  0.00    +0.020 C 
ATOM     17  C   UNL     1      35.313 -19.519 -20.227  0.00  0.00    +0.000 C 
ATOM     18  C   UNL     1      35.956 -20.231 -19.203  0.00  0.00    +0.001 C 
ATOM     19  C   UNL     1      33.277 -18.976 -21.445  0.00  0.00    +0.000 C 
ATOM     20  C   UNL     1      36.021 -18.643 -21.067  0.00  0.00    +0.000 C 
ATOM     21  C   UNL     1      33.996 -18.109 -22.269  0.00  0.00    +0.000 C 
ATOM     22  C   UNL     1      35.364 -17.943 -22.080  0.00  0.00    +0.000 C 
ENDBRANCH  10  13
ENDBRANCH   8  10
ENDBRANCH   1   8
BRANCH   1  23
ATOM     23  C   UNL     1      33.437 -23.132 -13.814  0.00  0.00    +0.053 C 
BRANCH  23  24
ATOM     24  C   UNL     1      31.995 -23.503 -13.903  0.00  0.00    -0.020 C 
ATOM     25  C   UNL     1      31.122 -22.734 -14.673  0.00  0.00    -0.004 C 
ATOM     26  C   UNL     1      29.761 -23.071 -14.767  0.00  0.00    -0.000 C 
ATOM     27  C   UNL     1      31.520 -24.618 -13.218  0.00  0.00    -0.004 C 
ATOM     28  C   UNL     1      29.280 -24.204 -14.070  0.00  0.00    -0.000 C 
ATOM     29  C   UNL     1      30.172 -24.967 -13.300  0.00  0.00    -0.000 C 
ATOM     30  C   UNL     1      28.870 -22.307 -15.537  0.00  0.00    -0.000 C 
ATOM     31  C   UNL     1      27.920 -24.541 -14.163  0.00  0.00    -0.000 C 
ATOM     32  C   UNL     1      27.521 -22.656 -15.619  0.00  0.00    -0.000 C 
ATOM     33  C   UNL     1      27.047 -23.770 -14.933  0.00  0.00    -0.000 C 
ENDBRANCH  23  24
ENDBRANCH   1  23
TORSDOF 7
ENDMDL
MODEL 6
REMARK VINA RESULT:     -10.6     13.525     17.200
REMARK  Name = 9823454
REMARK  7 active torsions:
REMARK  status: ('A' for Active; 'I' for Inactive)
REMARK    1  A    between atoms: C_1  and  C_4
REMARK    2  A    between atoms: C_1  and  N_8
REMARK    3  A    between atoms: C_1  and  C_23
REMARK    4  A    between atoms: N_3  and  O_6
REMARK    5  A    between atoms: N_8  and  S_10
REMARK    6  A    between atoms: S_10  and  C_13
REMARK    7  A    between atoms: C_23  and  C_24
REMARK                            x       y       z     vdW  Elec       q    Type
REMARK                         _______ _______ _______ _____ _____    ______ ____
ROOT
ATOM      1  C   UNL     1      32.509 -11.338 -22.126  0.00  0.00    +0.158 C 
ENDROOT
BRANCH   1   4
ATOM      2  O   UNL     1      32.272 -13.548 -21.178  0.00  0.00    -0.272 OA
ATOM      3  N   UNL     1      33.879 -13.198 -22.799  0.00  0.00    -0.196 N 
ATOM      4  C   UNL     1      32.855 -12.810 -21.971  0.00  0.00    +0.260 C 
ATOM      5  H   UNL     1      34.317 -12.571 -23.419  0.00  0.00    +0.182 HD
BRANCH   3   6
ATOM      6  O   UNL     1      34.264 -14.543 -22.706  0.00  0.00    -0.295 OA
ATOM      7  H   UNL     1      33.856 -15.046 -23.429  0.00  0.00    +0.241 HD
ENDBRANCH   3   6
ENDBRANCH   1   4
BRANCH   1   8
ATOM      8  N   UNL     1      31.081 -11.221 -21.746  0.00  0.00    -0.172 NA
ATOM      9  H   UNL     1      30.631 -10.651 -22.461  0.00  0.00    +0.149 HD
BRANCH   8  10
ATOM     10  S   UNL     1      30.658 -10.551 -20.244  0.00  0.00    +0.061 S 
ATOM     11  O   UNL     1      31.601 -10.996 -19.235  0.00  0.00    -0.153 OA
ATOM     12  O   UNL     1      29.233 -10.726 -20.040  0.00  0.00    -0.153 OA
BRANCH  10  13
ATOM     13  C   UNL     1      30.931  -8.828 -20.524  0.00  0.00    +0.122 C 
ATOM     14  C   UNL     1      30.286  -8.203 -21.577  0.00  0.00    +0.020 C 
ATOM     15  C   UNL     1      30.492  -6.834 -21.813  0.00  0.00    +0.001 C 
ATOM     16  C   UNL     1      31.784  -8.136 -19.686  0.00  0.00    +0.020 C 
ATOM     17  C   UNL     1      31.363  -6.110 -20.964  0.00  0.00    +0.000 C 
ATOM     18  C   UNL     1      32.001  -6.775 -19.906  0.00  0.00    +0.001 C 
ATOM     19  C   UNL     1      29.855  -6.169 -22.873  0.00  0.00    +0.000 C 
ATOM     20  C   UNL     1      31.571  -4.741 -21.201  0.00  0.00    +0.000 C 
ATOM     21  C   UNL     1      30.072  -4.808 -23.093  0.00  0.00    +0.000 C 
ATOM     22  C   UNL     1      30.928  -4.096 -22.258  0.00  0.00    +0.000 C 
ENDBRANCH  10  13
ENDBRANCH   8  10
ENDBRANCH   1   8
BRANCH   1  23
ATOM     23  C   UNL     1      32.702 -10.872 -23.579  0.00  0.00    +0.053 C 
BRANCH  23  24
ATOM     24  C   UNL     1      33.019  -9.419 -23.697  0.00  0.00    -0.020 C 
ATOM     25  C   UNL     1      32.388  -8.643 -24.671  0.00  0.00    -0.004 C 
ATOM     26  C   UNL     1      32.675  -7.274 -24.795  0.00  0.00    -0.000 C 
ATOM     27  C   UNL     1      33.944  -8.837 -22.836  0.00  0.00    -0.004 C 
ATOM     28  C   UNL     1      33.616  -6.683 -23.918  0.00  0.00    -0.000 C 
ATOM     29  C   UNL     1      34.241  -7.478 -22.944  0.00  0.00    -0.000 C 
ATOM     30  C   UNL     1      32.050  -6.480 -25.769  0.00  0.00    -0.000 C 
ATOM     31  C   UNL     1      33.904  -5.314 -24.042  0.00  0.00    -0.000 C 
ATOM     32  C   UNL     1      32.348  -5.121 -25.877  0.00  0.00    -0.000 C 
ATOM     33  C   UNL     1      33.273  -4.540 -25.016  0.00  0.00    -0.000 C 
ENDBRANCH  23  24
ENDBRANCH   1  23
TORSDOF 7
ENDMDL
MODEL 7
REMARK VINA RESULT:     -10.1      7.046     10.883
REMARK  Name = 9823454
REMARK  7 active torsions:
REMARK  status: ('A' for Active; 'I' for Inactive)
REMARK    1  A    between atoms: C_1  and  C_4
REMARK    2  A    between atoms: C_1  and  N_8
REMARK    3  A    between atoms: C_1  and  C_23
REMARK    4  A    between atoms: N_3  and  O_6
REMARK    5  A    between atoms: N_8  and  S_10
REMARK    6  A    between atoms: S_10  and  C_13
REMARK    7  A    between atoms: C_23  and  C_24
REMARK                            x       y       z     vdW  Elec       q    Type
REMARK                         _______ _______ _______ _____ _____    ______ ____
ROOT
ATOM      1  C   UNL     1      33.970 -16.741 -23.779  0.00  0.00    +0.158 C 
ENDROOT
BRANCH   1   4
ATOM      2  O   UNL     1      32.167 -15.766 -25.061  0.00  0.00    -0.272 OA
ATOM      3  N   UNL     1      31.960 -17.945 -24.327  0.00  0.00    -0.196 N 
ATOM      4  C   UNL     1      32.613 -16.745 -24.464  0.00  0.00    +0.260 C 
ATOM      5  H   UNL     1      32.356 -18.703 -23.840  0.00  0.00    +0.182 HD
BRANCH   3   6
ATOM      6  O   UNL     1      30.694 -18.024 -24.924  0.00  0.00    -0.295 OA
ATOM      7  H   UNL     1      30.057 -18.381 -24.286  0.00  0.00    +0.241 HD
ENDBRANCH   3   6
ENDBRANCH   1   4
BRANCH   1   8
ATOM      8  N   UNL     1      33.775 -17.476 -22.506  0.00  0.00    -0.172 NA
ATOM      9  H   UNL     1      33.693 -16.775 -21.770  0.00  0.00    +0.149 HD
BRANCH   8  10
ATOM     10  S   UNL     1      34.943 -18.596 -21.990  0.00  0.00    +0.061 S 
ATOM     11  O   UNL     1      36.025 -17.894 -21.326  0.00  0.00    -0.153 OA
ATOM     12  O   UNL     1      35.226 -19.510 -23.080  0.00  0.00    -0.153 OA
BRANCH  10  13
ATOM     13  C   UNL     1      34.055 -19.511 -20.767  0.00  0.00    +0.122 C 
ATOM     14  C   UNL     1      34.760 -20.205 -19.799  0.00  0.00    +0.020 C 
ATOM     15  C   UNL     1      34.069 -20.938 -18.820  0.00  0.00    +0.001 C 
ATOM     16  C   UNL     1      32.674 -19.517 -20.800  0.00  0.00    +0.020 C 
ATOM     17  C   UNL     1      32.654 -20.955 -18.838  0.00  0.00    +0.000 C 
ATOM     18  C   UNL     1      31.972 -20.239 -19.835  0.00  0.00    +0.001 C 
ATOM     19  C   UNL     1      34.752 -21.654 -17.823  0.00  0.00    +0.000 C 
ATOM     20  C   UNL     1      31.963 -21.688 -17.860  0.00  0.00    +0.000 C 
ATOM     21  C   UNL     1      34.049 -22.377 -16.858  0.00  0.00    +0.000 C 
ATOM     22  C   UNL     1      32.658 -22.393 -16.877  0.00  0.00    +0.000 C 
ENDBRANCH  10  13
ENDBRANCH   8  10
ENDBRANCH   1   8
BRANCH   1  23
ATOM     23  C   UNL     1      34.441 -15.307 -23.486  0.00  0.00    +0.053 C 
BRANCH  23  24
ATOM     24  C   UNL     1      33.693 -14.653 -22.373  0.00  0.00    -0.020 C 
ATOM     25  C   UNL     1      32.936 -13.507 -22.619  0.00  0.00    -0.004 C 
ATOM     26  C   UNL     1      32.225 -12.881 -21.582  0.00  0.00    -0.000 C 
ATOM     27  C   UNL     1      33.749 -15.188 -21.090  0.00  0.00    -0.004 C 
ATOM     28  C   UNL     1      32.284 -13.425 -20.277  0.00  0.00    -0.000 C 
ATOM     29  C   UNL     1      33.050 -14.579 -20.048  0.00  0.00    -0.000 C 
ATOM     30  C   UNL     1      31.460 -11.727 -21.812  0.00  0.00    -0.000 C 
ATOM     31  C   UNL     1      31.574 -12.799 -19.240  0.00  0.00    -0.000 C 
ATOM     32  C   UNL     1      30.760 -11.117 -20.769  0.00  0.00    -0.000 C 
ATOM     33  C   UNL     1      30.818 -11.652 -19.486  0.00  0.00    -0.000 C 
ENDBRANCH  23  24
ENDBRANCH   1  23
TORSDOF 7
ENDMDL
MODEL 8
REMARK VINA RESULT:     -10.0     12.869     16.224
REMARK  Name = 9823454
REMARK  7 active torsions:
REMARK  status: ('A' for Active; 'I' for Inactive)
REMARK    1  A    between atoms: C_1  and  C_4
REMARK    2  A    between atoms: C_1  and  N_8
REMARK    3  A    between atoms: C_1  and  C_23
REMARK    4  A    between atoms: N_3  and  O_6
REMARK    5  A    between atoms: N_8  and  S_10
REMARK    6  A    between atoms: S_10  and  C_13
REMARK    7  A    between atoms: C_23  and  C_24
REMARK                            x       y       z     vdW  Elec       q    Type
REMARK                         _______ _______ _______ _____ _____    ______ ____
ROOT
ATOM      1  C   UNL     1      33.019 -12.425 -23.190  0.00  0.00    +0.158 C 
ENDROOT
BRANCH   1   4
ATOM      2  O   UNL     1      33.874 -14.679 -23.008  0.00  0.00    -0.272 OA
ATOM      3  N   UNL     1      32.130 -14.264 -24.463  0.00  0.00    -0.196 N 
ATOM      4  C   UNL     1      33.068 -13.907 -23.525  0.00  0.00    +0.260 C 
ATOM      5  H   UNL     1      31.503 -13.610 -24.851  0.00  0.00    +0.182 HD
BRANCH   3   6
ATOM      6  O   UNL     1      32.119 -15.615 -24.834  0.00  0.00    -0.295 OA
ATOM      7  H   UNL     1      32.291 -16.166 -24.054  0.00  0.00    +0.241 HD
ENDBRANCH   3   6
ENDBRANCH   1   4
BRANCH   1   8
ATOM      8  N   UNL     1      31.774 -12.235 -22.407  0.00  0.00    -0.172 NA
ATOM      9  H   UNL     1      31.478 -11.271 -22.553  0.00  0.00    +0.149 HD
BRANCH   8  10
ATOM     10  S   UNL     1      31.782 -12.498 -20.729  0.00  0.00    +0.061 S 
ATOM     11  O   UNL     1      33.121 -12.862 -20.304  0.00  0.00    -0.153 OA
ATOM     12  O   UNL     1      30.653 -13.340 -20.383  0.00  0.00    -0.153 OA
BRANCH  10  13
ATOM     13  C   UNL     1      31.432 -10.883 -20.105  0.00  0.00    +0.122 C 
ATOM     14  C   UNL     1      31.423  -9.808 -20.978  0.00  0.00    +0.020 C 
ATOM     15  C   UNL     1      31.147  -8.518 -20.498  0.00  0.00    +0.001 C 
ATOM     16  C   UNL     1      31.174 -10.722 -18.758  0.00  0.00    +0.020 C 
ATOM     17  C   UNL     1      30.880  -8.335 -19.120  0.00  0.00    +0.000 C 
ATOM     18  C   UNL     1      30.897  -9.447 -18.264  0.00  0.00    +0.001 C 
ATOM     19  C   UNL     1      31.131  -7.405 -21.355  0.00  0.00    +0.000 C 
ATOM     20  C   UNL     1      30.605  -7.044 -18.639  0.00  0.00    +0.000 C 
ATOM     21  C   UNL     1      30.855  -6.130 -20.860  0.00  0.00    +0.000 C 
ATOM     22  C   UNL     1      30.593  -5.950 -19.506  0.00  0.00    +0.000 C 
ENDBRANCH  10  13
ENDBRANCH   8  10
ENDBRANCH   1   8
BRANCH   1  23
ATOM     23  C   UNL     1      32.968 -11.567 -24.465  0.00  0.00    +0.053 C 
BRANCH  23  24
ATOM     24  C   UNL     1      33.227 -10.120 -24.214  0.00  0.00    -0.020 C 
ATOM     25  C   UNL     1      32.302  -9.162 -24.631  0.00  0.00    -0.004 C 
ATOM     26  C   UNL     1      32.532  -7.796 -24.402  0.00  0.00    -0.000 C 
ATOM     27  C   UNL     1      34.393  -9.725 -23.565  0.00  0.00    -0.004 C 
ATOM     28  C   UNL     1      33.718  -7.395 -23.741  0.00  0.00    -0.000 C 
ATOM     29  C   UNL     1      34.637  -8.372 -23.329  0.00  0.00    -0.000 C 
ATOM     30  C   UNL     1      31.611  -6.820 -24.815  0.00  0.00    -0.000 C 
ATOM     31  C   UNL     1      33.948  -6.028 -23.513  0.00  0.00    -0.000 C 
ATOM     32  C   UNL     1      31.856  -5.466 -24.579  0.00  0.00    -0.000 C 
ATOM     33  C   UNL     1      33.022  -5.072 -23.931  0.00  0.00    -0.000 C 
ENDBRANCH  23  24
ENDBRANCH   1  23
TORSDOF 7
ENDMDL
MODEL 9
REMARK VINA RESULT:      -9.9     13.676     17.570
REMARK  Name = 9823454
REMARK  7 active torsions:
REMARK  status: ('A' for Active; 'I' for Inactive)
REMARK    1  A    between atoms: C_1  and  C_4
REMARK    2  A    between atoms: C_1  and  N_8
REMARK    3  A    between atoms: C_1  and  C_23
REMARK    4  A    between atoms: N_3  and  O_6
REMARK    5  A    between atoms: N_8  and  S_10
REMARK    6  A    between atoms: S_10  and  C_13
REMARK    7  A    between atoms: C_23  and  C_24
REMARK                            x       y       z     vdW  Elec       q    Type
REMARK                         _______ _______ _______ _____ _____    ______ ____
ROOT
ATOM      1  C   UNL     1      31.826  -8.253 -21.868  0.00  0.00    +0.158 C 
ENDROOT
BRANCH   1   4
ATOM      2  O   UNL     1      30.409  -9.488 -20.349  0.00  0.00    -0.272 OA
ATOM      3  N   UNL     1      31.431  -7.559 -19.598  0.00  0.00    -0.196 N 
ATOM      4  C   UNL     1      31.142  -8.519 -20.537  0.00  0.00    +0.260 C 
ATOM      5  H   UNL     1      32.026  -6.798 -19.793  0.00  0.00    +0.182 HD
BRANCH   3   6
ATOM      6  O   UNL     1      30.829  -7.729 -18.344  0.00  0.00    -0.295 OA
ATOM      7  H   UNL     1      30.477  -6.879 -18.037  0.00  0.00    +0.241 HD
ENDBRANCH   3   6
ENDBRANCH   1   4
BRANCH   1   8
ATOM      8  N   UNL     1      32.404  -9.553 -22.286  0.00  0.00    -0.172 NA
ATOM      9  H   UNL     1      33.145  -9.774 -21.622  0.00  0.00    +0.149 HD
BRANCH   8  10
ATOM     10  S   UNL     1      33.069  -9.722 -23.839  0.00  0.00    +0.061 S 
ATOM     11  O   UNL     1      34.456  -9.295 -23.819  0.00  0.00    -0.153 OA
ATOM     12  O   UNL     1      32.146  -9.160 -24.806  0.00  0.00    -0.153 OA
BRANCH  10  13
ATOM     13  C   UNL     1      33.042 -11.475 -24.059  0.00  0.00    +0.122 C 
ATOM     14  C   UNL     1      33.458 -12.293 -23.022  0.00  0.00    +0.020 C 
ATOM     15  C   UNL     1      33.443 -13.688 -23.180  0.00  0.00    +0.001 C 
ATOM     16  C   UNL     1      32.607 -11.997 -25.260  0.00  0.00    +0.020 C 
ATOM     17  C   UNL     1      33.000 -14.240 -24.406  0.00  0.00    +0.000 C 
ATOM     18  C   UNL     1      32.585 -13.381 -25.435  0.00  0.00    +0.001 C 
ATOM     19  C   UNL     1      33.858 -14.547 -22.150  0.00  0.00    +0.000 C 
ATOM     20  C   UNL     1      32.986 -15.636 -24.565  0.00  0.00    +0.000 C 
ATOM     21  C   UNL     1      33.837 -15.931 -22.325  0.00  0.00    +0.000 C 
ATOM     22  C   UNL     1      33.401 -16.474 -23.530  0.00  0.00    +0.000 C 
ENDBRANCH  10  13
ENDBRANCH   8  10
ENDBRANCH   1   8
BRANCH   1  23
ATOM     23  C   UNL     1      32.945  -7.209 -21.720  0.00  0.00    +0.053 C 
BRANCH  23  24
ATOM     24  C   UNL     1      32.852  -6.097 -22.710  0.00  0.00    -0.020 C 
ATOM     25  C   UNL     1      33.844  -5.938 -23.678  0.00  0.00    -0.004 C 
ATOM     26  C   UNL     1      33.769  -4.896 -24.617  0.00  0.00    -0.000 C 
ATOM     27  C   UNL     1      31.774  -5.217 -22.666  0.00  0.00    -0.004 C 
ATOM     28  C   UNL     1      32.673  -4.002 -24.572  0.00  0.00    -0.000 C 
ATOM     29  C   UNL     1      31.684  -4.177 -23.591  0.00  0.00    -0.000 C 
ATOM     30  C   UNL     1      34.759  -4.722 -25.597  0.00  0.00    -0.000 C 
ATOM     31  C   UNL     1      32.599  -2.960 -25.511  0.00  0.00    -0.000 C 
ATOM     32  C   UNL     1      34.669  -3.681 -26.522  0.00  0.00    -0.000 C 
ATOM     33  C   UNL     1      33.592  -2.802 -26.478  0.00  0.00    -0.000 C 
ENDBRANCH  23  24
ENDBRANCH   1  23
TORSDOF 7
ENDMDL
