MODEL 1
REMARK VINA RESULT:     -11.9      0.000      0.000
REMARK  Name = 10172943
REMARK  7 active torsions:
REMARK  status: ('A' for Active; 'I' for Inactive)
REMARK    1  A    between atoms: O_1  and  C_3
REMARK    2  A    between atoms: O_1  and  C_19
REMARK    3  A    between atoms: C_4  and  C_11
REMARK    4  A    between atoms: C_19  and  C_20
REMARK    5  A    between atoms: C_20  and  N_21
REMARK    6  A    between atoms: C_20  and  C_25
REMARK    7  A    between atoms: C_25  and  C_27
REMARK                            x       y       z     vdW  Elec       q    Type
REMARK                         _______ _______ _______ _____ _____    ______ ____
ROOT
ATOM      1  O   UNL     1      32.192 -21.832 -18.248  0.00  0.00    -0.476 OA
ENDROOT
BRANCH   1   3
ATOM      2  N   UNL     1      35.618 -20.686 -18.723  0.00  0.00    -0.239 NA
ATOM      3  C   UNL     1      33.259 -21.149 -18.771  0.00  0.00    +0.158 C 
ATOM      4  C   UNL     1      34.184 -19.598 -20.338  0.00  0.00    +0.022 C 
ATOM      5  C   UNL     1      33.083 -20.274 -19.827  0.00  0.00    +0.040 C 
ATOM      6  C   UNL     1      34.524 -21.325 -18.254  0.00  0.00    +0.136 C 
ATOM      7  C   UNL     1      35.419 -19.835 -19.755  0.00  0.00    +0.099 C 
BRANCH   4  11
ATOM      8  N   UNL     1      33.674 -14.914 -23.719  0.00  0.00    -0.280 N 
ATOM      9  N   UNL     1      33.658 -16.002 -24.516  0.00  0.00    -0.173 NA
ATOM     10  C   UNL     1      33.870 -16.546 -22.320  0.00  0.00    +0.032 A 
ATOM     11  C   UNL     1      34.047 -18.675 -21.441  0.00  0.00    +0.002 C 
ATOM     12  C   UNL     1      33.779 -17.042 -23.673  0.00  0.00    +0.102 A 
ATOM     13  C   UNL     1      34.005 -17.293 -21.157  0.00  0.00    +0.003 C 
ATOM     14  C   UNL     1      33.800 -15.183 -22.388  0.00  0.00    +0.053 A 
ATOM     15  C   UNL     1      33.960 -19.213 -22.768  0.00  0.00    +0.002 C 
ATOM     16  C   UNL     1      33.824 -18.424 -23.932  0.00  0.00    +0.021 C 
ATOM     17  C   UNL     1      33.836 -14.114 -21.376  0.00  0.00    +0.051 C 
ATOM     18  H   UNL     1      33.600 -13.998 -24.071  0.00  0.00    +0.189 HD
ENDBRANCH   4  11
ENDBRANCH   1   3
BRANCH   1  19
ATOM     19  C   UNL     1      32.488 -22.914 -17.375  0.00  0.00    +0.184 C 
BRANCH  19  20
ATOM     20  C   UNL     1      32.129 -22.588 -15.920  0.00  0.00    -0.017 C 
BRANCH  20  21
ATOM     21  N   UNL     1      30.668 -22.613 -15.781  0.00  0.00    +0.384 N 
ATOM     22  H   UNL     1      30.422 -22.803 -14.809  0.00  0.00    -0.089 HD
ATOM     23  H   UNL     1      30.282 -23.343 -16.379  0.00  0.00    -0.089 HD
ATOM     24  H   UNL     1      30.285 -21.709 -16.058  0.00  0.00    -0.089 HD
ENDBRANCH  20  21
BRANCH  20  25
ATOM     25  C   UNL     1      32.760 -23.564 -14.891  0.00  0.00    +0.009 C 
BRANCH  25  27
ATOM     26  N   UNL     1      36.184 -22.380 -14.432  0.00  0.00    -0.312 N 
ATOM     27  C   UNL     1      34.205 -23.359 -14.661  0.00  0.00    -0.008 C 
ATOM     28  C   UNL     1      35.168 -24.365 -14.370  0.00  0.00    +0.011 C 
ATOM     29  C   UNL     1      36.401 -23.724 -14.231  0.00  0.00    +0.048 C 
ATOM     30  C   UNL     1      34.860 -22.148 -14.694  0.00  0.00    +0.058 C 
ATOM     31  C   UNL     1      35.109 -25.763 -14.210  0.00  0.00    +0.001 C 
ATOM     32  C   UNL     1      37.583 -24.415 -13.939  0.00  0.00    +0.015 C 
ATOM     33  C   UNL     1      36.282 -26.467 -13.917  0.00  0.00    +0.000 C 
ATOM     34  C   UNL     1      37.500 -25.801 -13.784  0.00  0.00    +0.001 C 
ATOM     35  H   UNL     1      36.880 -21.685 -14.395  0.00  0.00    +0.152 HD
ENDBRANCH  25  27
ENDBRANCH  20  25
ENDBRANCH  19  20
ENDBRANCH   1  19
TORSDOF 7
ENDMDL
MODEL 2
REMARK VINA RESULT:     -11.8      1.869      3.440
REMARK  Name = 10172943
REMARK  7 active torsions:
REMARK  status: ('A' for Active; 'I' for Inactive)
REMARK    1  A    between atoms: O_1  and  C_3
REMARK    2  A    between atoms: O_1  and  C_19
REMARK    3  A    between atoms: C_4  and  C_11
REMARK    4  A    between atoms: C_19  and  C_20
REMARK    5  A    between atoms: C_20  and  N_21
REMARK    6  A    between atoms: C_20  and  C_25
REMARK    7  A    between atoms: C_25  and  C_27
REMARK                            x       y       z     vdW  Elec       q    Type
REMARK                         _______ _______ _______ _____ _____    ______ ____
ROOT
ATOM      1  O   UNL     1      35.516 -22.030 -17.899  0.00  0.00    -0.476 OA
ENDROOT
BRANCH   1   3
ATOM      2  N   UNL     1      32.075 -21.154 -18.718  0.00  0.00    -0.239 NA
ATOM      3  C   UNL     1      34.457 -21.411 -18.511  0.00  0.00    +0.158 C 
ATOM      4  C   UNL     1      33.576 -19.847 -20.091  0.00  0.00    +0.022 C 
ATOM      5  C   UNL     1      34.670 -20.458 -19.491  0.00  0.00    +0.040 C 
ATOM      6  C   UNL     1      33.163 -21.727 -18.157  0.00  0.00    +0.136 C 
ATOM      7  C   UNL     1      32.310 -20.227 -19.674  0.00  0.00    +0.099 C 
BRANCH   4  11
ATOM      8  N   UNL     1      34.135 -14.925 -23.107  0.00  0.00    -0.280 N 
ATOM      9  N   UNL     1      34.246 -15.953 -23.971  0.00  0.00    -0.173 NA
ATOM     10  C   UNL     1      33.906 -16.656 -21.837  0.00  0.00    +0.032 A 
ATOM     11  C   UNL     1      33.753 -18.846 -21.117  0.00  0.00    +0.002 C 
ATOM     12  C   UNL     1      34.108 -17.053 -23.211  0.00  0.00    +0.102 A 
ATOM     13  C   UNL     1      33.722 -17.486 -20.739  0.00  0.00    +0.003 C 
ATOM     14  C   UNL     1      33.929 -15.290 -21.809  0.00  0.00    +0.053 A 
ATOM     15  C   UNL     1      33.950 -19.286 -22.468  0.00  0.00    +0.002 C 
ATOM     16  C   UNL     1      34.135 -18.415 -23.564  0.00  0.00    +0.021 C 
ATOM     17  C   UNL     1      33.786 -14.296 -20.731  0.00  0.00    +0.051 C 
ATOM     18  H   UNL     1      34.196 -13.984 -23.391  0.00  0.00    +0.189 HD
ENDBRANCH   4  11
ENDBRANCH   1   3
BRANCH   1  19
ATOM     19  C   UNL     1      35.884 -21.549 -16.614  0.00  0.00    +0.184 C 
BRANCH  19  20
ATOM     20  C   UNL     1      35.539 -22.555 -15.508  0.00  0.00    -0.017 C 
BRANCH  20  21
ATOM     21  N   UNL     1      36.789 -23.044 -14.912  0.00  0.00    +0.384 N 
ATOM     22  H   UNL     1      36.704 -24.041 -14.716  0.00  0.00    -0.089 HD
ATOM     23  H   UNL     1      36.970 -22.541 -14.043  0.00  0.00    -0.089 HD
ATOM     24  H   UNL     1      37.559 -22.888 -15.562  0.00  0.00    -0.089 HD
ENDBRANCH  20  21
BRANCH  20  25
ATOM     25  C   UNL     1      34.632 -21.968 -14.394  0.00  0.00    +0.009 C 
BRANCH  25  27
ATOM     26  N   UNL     1      33.072 -24.567 -12.358  0.00  0.00    -0.312 N 
ATOM     27  C   UNL     1      33.768 -22.960 -13.722  0.00  0.00    -0.008 C 
ATOM     28  C   UNL     1      32.398 -23.218 -14.002  0.00  0.00    +0.011 C 
ATOM     29  C   UNL     1      31.985 -24.230 -13.133  0.00  0.00    +0.048 C 
ATOM     30  C   UNL     1      34.155 -23.805 -12.707  0.00  0.00    +0.058 C 
ATOM     31  C   UNL     1      31.465 -22.686 -14.914  0.00  0.00    +0.001 C 
ATOM     32  C   UNL     1      30.680 -24.738 -13.130  0.00  0.00    +0.015 C 
ATOM     33  C   UNL     1      30.157 -23.184 -14.923  0.00  0.00    +0.000 C 
ATOM     34  C   UNL     1      29.773 -24.194 -14.043  0.00  0.00    +0.001 C 
ATOM     35  H   UNL     1      33.071 -25.256 -11.656  0.00  0.00    +0.152 HD
ENDBRANCH  25  27
ENDBRANCH  20  25
ENDBRANCH  19  20
ENDBRANCH   1  19
TORSDOF 7
ENDMDL
MODEL 3
REMARK VINA RESULT:     -11.7      4.723     11.838
REMARK  Name = 10172943
REMARK  7 active torsions:
REMARK  status: ('A' for Active; 'I' for Inactive)
REMARK    1  A    between atoms: O_1  and  C_3
REMARK    2  A    between atoms: O_1  and  C_19
REMARK    3  A    between atoms: C_4  and  C_11
REMARK    4  A    between atoms: C_19  and  C_20
REMARK    5  A    between atoms: C_20  and  N_21
REMARK    6  A    between atoms: C_20  and  C_25
REMARK    7  A    between atoms: C_25  and  C_27
REMARK                            x       y       z     vdW  Elec       q    Type
REMARK                         _______ _______ _______ _____ _____    ______ ____
ROOT
ATOM      1  O   UNL     1      33.481 -12.952 -22.799  0.00  0.00    -0.476 OA
ENDROOT
BRANCH   1   3
ATOM      2  N   UNL     1      33.182 -15.975 -24.811  0.00  0.00    -0.239 NA
ATOM      3  C   UNL     1      33.526 -14.278 -23.143  0.00  0.00    +0.158 C 
ATOM      4  C   UNL     1      33.982 -16.563 -22.607  0.00  0.00    +0.022 C 
ATOM      5  C   UNL     1      33.945 -15.227 -22.228  0.00  0.00    +0.040 C 
ATOM      6  C   UNL     1      33.158 -14.685 -24.407  0.00  0.00    +0.136 C 
ATOM      7  C   UNL     1      33.593 -16.883 -23.898  0.00  0.00    +0.099 C 
BRANCH   4  11
ATOM      8  N   UNL     1      34.308 -20.969 -18.850  0.00  0.00    -0.280 N 
ATOM      9  N   UNL     1      35.559 -20.513 -19.061  0.00  0.00    -0.173 NA
ATOM     10  C   UNL     1      34.009 -19.354 -20.251  0.00  0.00    +0.032 A 
ATOM     11  C   UNL     1      34.413 -17.587 -21.684  0.00  0.00    +0.002 C 
ATOM     12  C   UNL     1      35.410 -19.501 -19.933  0.00  0.00    +0.102 A 
ATOM     13  C   UNL     1      33.434 -18.428 -21.111  0.00  0.00    +0.003 C 
ATOM     14  C   UNL     1      33.336 -20.308 -19.541  0.00  0.00    +0.053 A 
ATOM     15  C   UNL     1      35.815 -17.697 -21.398  0.00  0.00    +0.002 C 
ATOM     16  C   UNL     1      36.368 -18.652 -20.516  0.00  0.00    +0.021 C 
ATOM     17  C   UNL     1      31.913 -20.674 -19.432  0.00  0.00    +0.051 C 
ATOM     18  H   UNL     1      34.112 -21.719 -18.244  0.00  0.00    +0.189 HD
ENDBRANCH   4  11
ENDBRANCH   1   3
BRANCH   1  19
ATOM     19  C   UNL     1      33.067 -12.041 -23.808  0.00  0.00    +0.184 C 
BRANCH  19  20
ATOM     20  C   UNL     1      33.464 -10.597 -23.472  0.00  0.00    -0.017 C 
BRANCH  20  21
ATOM     21  N   UNL     1      34.528 -10.177 -24.392  0.00  0.00    +0.384 N 
ATOM     22  H   UNL     1      35.129  -9.496 -23.928  0.00  0.00    -0.089 HD
ATOM     23  H   UNL     1      34.112  -9.755 -25.222  0.00  0.00    -0.089 HD
ATOM     24  H   UNL     1      35.081 -10.989 -24.665  0.00  0.00    -0.089 HD
ENDBRANCH  20  21
BRANCH  20  25
ATOM     25  C   UNL     1      32.284  -9.593 -23.557  0.00  0.00    +0.009 C 
BRANCH  25  27
ATOM     26  N   UNL     1      31.903  -7.235 -20.795  0.00  0.00    -0.312 N 
ATOM     27  C   UNL     1      32.015  -8.860 -22.303  0.00  0.00    -0.008 C 
ATOM     28  C   UNL     1      31.415  -9.386 -21.125  0.00  0.00    +0.011 C 
ATOM     29  C   UNL     1      31.357  -8.347 -20.195  0.00  0.00    +0.048 C 
ATOM     30  C   UNL     1      32.305  -7.535 -22.070  0.00  0.00    +0.058 C 
ATOM     31  C   UNL     1      30.914 -10.651 -20.760  0.00  0.00    +0.001 C 
ATOM     32  C   UNL     1      30.821  -8.510 -18.912  0.00  0.00    +0.015 C 
ATOM     33  C   UNL     1      30.375 -10.829 -19.481  0.00  0.00    +0.000 C 
ATOM     34  C   UNL     1      30.329  -9.773 -18.573  0.00  0.00    +0.001 C 
ATOM     35  H   UNL     1      31.994  -6.352 -20.369  0.00  0.00    +0.152 HD
ENDBRANCH  25  27
ENDBRANCH  20  25
ENDBRANCH  19  20
ENDBRANCH   1  19
TORSDOF 7
ENDMDL
MODEL 4
REMARK VINA RESULT:     -11.7      4.298      8.234
REMARK  Name = 10172943
REMARK  7 active torsions:
REMARK  status: ('A' for Active; 'I' for Inactive)
REMARK    1  A    between atoms: O_1  and  C_3
REMARK    2  A    between atoms: O_1  and  C_19
REMARK    3  A    between atoms: C_4  and  C_11
REMARK    4  A    between atoms: C_19  and  C_20
REMARK    5  A    between atoms: C_20  and  N_21
REMARK    6  A    between atoms: C_20  and  C_25
REMARK    7  A    between atoms: C_25  and  C_27
REMARK                            x       y       z     vdW  Elec       q    Type
REMARK                         _______ _______ _______ _____ _____    ______ ____
ROOT
ATOM      1  O   UNL     1      33.078 -15.293 -22.800  0.00  0.00    -0.476 OA
ENDROOT
BRANCH   1   3
ATOM      2  N   UNL     1      32.618 -13.477 -25.926  0.00  0.00    -0.239 NA
ATOM      3  C   UNL     1      32.988 -14.243 -23.677  0.00  0.00    +0.158 C 
ATOM      4  C   UNL     1      33.058 -11.900 -24.147  0.00  0.00    +0.022 C 
ATOM      5  C   UNL     1      33.158 -12.944 -23.236  0.00  0.00    +0.040 C 
ATOM      6  C   UNL     1      32.722 -14.466 -25.010  0.00  0.00    +0.136 C 
ATOM      7  C   UNL     1      32.790 -12.216 -25.470  0.00  0.00    +0.099 C 
BRANCH   4  11
ATOM      8  N   UNL     1      32.600  -6.684 -21.653  0.00  0.00    -0.280 N 
ATOM      9  N   UNL     1      33.649  -6.647 -22.499  0.00  0.00    -0.173 NA
ATOM     10  C   UNL     1      32.628  -8.676 -22.485  0.00  0.00    +0.032 A 
ATOM     11  C   UNL     1      33.228 -10.527 -23.730  0.00  0.00    +0.002 C 
ATOM     12  C   UNL     1      33.696  -7.877 -23.037  0.00  0.00    +0.102 A 
ATOM     13  C   UNL     1      32.329 -10.000 -22.778  0.00  0.00    +0.003 C 
ATOM     14  C   UNL     1      31.949  -7.882 -21.604  0.00  0.00    +0.053 A 
ATOM     15  C   UNL     1      34.303  -9.771 -24.305  0.00  0.00    +0.002 C 
ATOM     16  C   UNL     1      34.581  -8.424 -23.985  0.00  0.00    +0.021 C 
ATOM     17  C   UNL     1      30.782  -8.101 -20.733  0.00  0.00    +0.051 C 
ATOM     18  H   UNL     1      32.326  -5.908 -21.113  0.00  0.00    +0.189 HD
ENDBRANCH   4  11
ENDBRANCH   1   3
BRANCH   1  19
ATOM     19  C   UNL     1      34.111 -16.240 -23.040  0.00  0.00    +0.184 C 
BRANCH  19  20
ATOM     20  C   UNL     1      34.521 -16.974 -21.756  0.00  0.00    -0.017 C 
BRANCH  20  21
ATOM     21  N   UNL     1      34.154 -16.143 -20.603  0.00  0.00    +0.384 N 
ATOM     22  H   UNL     1      34.475 -16.592 -19.745  0.00  0.00    -0.089 HD
ATOM     23  H   UNL     1      33.140 -16.035 -20.572  0.00  0.00    -0.089 HD
ATOM     24  H   UNL     1      34.591 -15.226 -20.693  0.00  0.00    -0.089 HD
ENDBRANCH  20  21
BRANCH  20  25
ATOM     25  C   UNL     1      33.872 -18.376 -21.608  0.00  0.00    +0.009 C 
BRANCH  25  27
ATOM     26  N   UNL     1      35.994 -20.186 -19.252  0.00  0.00    -0.312 N 
ATOM     27  C   UNL     1      34.487 -19.228 -20.569  0.00  0.00    -0.008 C 
ATOM     28  C   UNL     1      33.811 -20.136 -19.708  0.00  0.00    +0.011 C 
ATOM     29  C   UNL     1      34.779 -20.725 -18.891  0.00  0.00    +0.048 C 
ATOM     30  C   UNL     1      35.828 -19.281 -20.266  0.00  0.00    +0.058 C 
ATOM     31  C   UNL     1      32.464 -20.515 -19.543  0.00  0.00    +0.001 C 
ATOM     32  C   UNL     1      34.466 -21.677 -17.914  0.00  0.00    +0.015 C 
ATOM     33  C   UNL     1      32.136 -21.466 -18.570  0.00  0.00    +0.000 C 
ATOM     34  C   UNL     1      33.123 -22.037 -17.769  0.00  0.00    +0.001 C 
ATOM     35  H   UNL     1      36.857 -20.420 -18.840  0.00  0.00    +0.152 HD
ENDBRANCH  25  27
ENDBRANCH  20  25
ENDBRANCH  19  20
ENDBRANCH   1  19
TORSDOF 7
ENDMDL
MODEL 5
REMARK VINA RESULT:     -11.6      2.049     10.180
REMARK  Name = 10172943
REMARK  7 active torsions:
REMARK  status: ('A' for Active; 'I' for Inactive)
REMARK    1  A    between atoms: O_1  and  C_3
REMARK    2  A    between atoms: O_1  and  C_19
REMARK    3  A    between atoms: C_4  and  C_11
REMARK    4  A    between atoms: C_19  and  C_20
REMARK    5  A    between atoms: C_20  and  N_21
REMARK    6  A    between atoms: C_20  and  C_25
REMARK    7  A    between atoms: C_25  and  C_27
REMARK                            x       y       z     vdW  Elec       q    Type
REMARK                         _______ _______ _______ _____ _____    ______ ____
ROOT
ATOM      1  O   UNL     1      34.721 -21.371 -19.099  0.00  0.00    -0.476 OA
ENDROOT
BRANCH   1   3
ATOM      2  N   UNL     1      36.057 -21.758 -15.731  0.00  0.00    -0.239 NA
ATOM      3  C   UNL     1      34.778 -21.685 -17.766  0.00  0.00    +0.158 C 
ATOM      4  C   UNL     1      33.765 -22.525 -15.770  0.00  0.00    +0.022 C 
ATOM      5  C   UNL     1      33.676 -22.218 -17.122  0.00  0.00    +0.040 C 
ATOM      6  C   UNL     1      35.934 -21.473 -17.047  0.00  0.00    +0.136 C 
ATOM      7  C   UNL     1      34.967 -22.279 -15.125  0.00  0.00    +0.099 C 
BRANCH   4  11
ATOM      8  N   UNL     1      28.491 -24.089 -13.931  0.00  0.00    -0.280 N 
ATOM      9  N   UNL     1      29.398 -24.628 -13.092  0.00  0.00    -0.173 NA
ATOM     10  C   UNL     1      30.373 -23.418 -14.748  0.00  0.00    +0.032 A 
ATOM     11  C   UNL     1      32.638 -23.082 -15.057  0.00  0.00    +0.002 C 
ATOM     12  C   UNL     1      30.587 -24.228 -13.573  0.00  0.00    +0.102 A 
ATOM     13  C   UNL     1      31.339 -22.812 -15.541  0.00  0.00    +0.003 C 
ATOM     14  C   UNL     1      29.023 -23.351 -14.947  0.00  0.00    +0.053 A 
ATOM     15  C   UNL     1      32.898 -23.882 -13.895  0.00  0.00    +0.002 C 
ATOM     16  C   UNL     1      31.891 -24.484 -13.109  0.00  0.00    +0.021 C 
ATOM     17  C   UNL     1      28.179 -22.691 -15.957  0.00  0.00    +0.051 C 
ATOM     18  H   UNL     1      27.522 -24.218 -13.819  0.00  0.00    +0.189 HD
ENDBRANCH   4  11
ENDBRANCH   1   3
BRANCH   1  19
ATOM     19  C   UNL     1      35.312 -20.140 -19.494  0.00  0.00    +0.184 C 
BRANCH  19  20
ATOM     20  C   UNL     1      34.456 -19.403 -20.532  0.00  0.00    -0.017 C 
BRANCH  20  21
ATOM     21  N   UNL     1      33.040 -19.628 -20.217  0.00  0.00    +0.384 N 
ATOM     22  H   UNL     1      32.576 -20.048 -21.023  0.00  0.00    -0.089 HD
ATOM     23  H   UNL     1      32.595 -18.737 -19.994  0.00  0.00    -0.089 HD
ATOM     24  H   UNL     1      32.965 -20.255 -19.416  0.00  0.00    -0.089 HD
ENDBRANCH  20  21
BRANCH  20  25
ATOM     25  C   UNL     1      34.733 -17.877 -20.594  0.00  0.00    +0.009 C 
BRANCH  25  27
ATOM     26  N   UNL     1      33.793 -16.907 -23.987  0.00  0.00    -0.312 N 
ATOM     27  C   UNL     1      34.305 -17.229 -21.851  0.00  0.00    -0.008 C 
ATOM     28  C   UNL     1      33.903 -15.874 -22.012  0.00  0.00    +0.011 C 
ATOM     29  C   UNL     1      33.587 -15.698 -23.361  0.00  0.00    +0.048 C 
ATOM     30  C   UNL     1      34.228 -17.839 -23.083  0.00  0.00    +0.058 C 
ATOM     31  C   UNL     1      33.776 -14.777 -21.137  0.00  0.00    +0.001 C 
ATOM     32  C   UNL     1      33.148 -14.474 -23.881  0.00  0.00    +0.015 C 
ATOM     33  C   UNL     1      33.338 -13.548 -21.643  0.00  0.00    +0.000 C 
ATOM     34  C   UNL     1      33.030 -13.401 -22.994  0.00  0.00    +0.001 C 
ATOM     35  H   UNL     1      33.650 -17.076 -24.946  0.00  0.00    +0.152 HD
ENDBRANCH  25  27
ENDBRANCH  20  25
ENDBRANCH  19  20
ENDBRANCH   1  19
TORSDOF 7
ENDMDL
MODEL 6
REMARK VINA RESULT:     -11.4      6.769     12.544
REMARK  Name = 10172943
REMARK  7 active torsions:
REMARK  status: ('A' for Active; 'I' for Inactive)
REMARK    1  A    between atoms: O_1  and  C_3
REMARK    2  A    between atoms: O_1  and  C_19
REMARK    3  A    between atoms: C_4  and  C_11
REMARK    4  A    between atoms: C_19  and  C_20
REMARK    5  A    between atoms: C_20  and  N_21
REMARK    6  A    between atoms: C_20  and  C_25
REMARK    7  A    between atoms: C_25  and  C_27
REMARK                            x       y       z     vdW  Elec       q    Type
REMARK                         _______ _______ _______ _____ _____    ______ ____
ROOT
ATOM      1  O   UNL     1      33.257 -10.351 -23.370  0.00  0.00    -0.476 OA
ENDROOT
BRANCH   1   3
ATOM      2  N   UNL     1      32.590 -13.157 -25.597  0.00  0.00    -0.239 NA
ATOM      3  C   UNL     1      33.137 -11.644 -23.810  0.00  0.00    +0.158 C 
ATOM      4  C   UNL     1      33.297 -14.002 -23.445  0.00  0.00    +0.022 C 
ATOM      5  C   UNL     1      33.427 -12.702 -22.969  0.00  0.00    +0.040 C 
ATOM      6  C   UNL     1      32.728 -11.908 -25.099  0.00  0.00    +0.136 C 
ATOM      7  C   UNL     1      32.879 -14.175 -24.754  0.00  0.00    +0.099 C 
BRANCH   4  11
ATOM      8  N   UNL     1      34.413 -19.273 -21.299  0.00  0.00    -0.280 N 
ATOM      9  N   UNL     1      34.418 -18.400 -20.272  0.00  0.00    -0.173 NA
ATOM     10  C   UNL     1      33.987 -17.387 -22.260  0.00  0.00    +0.032 A 
ATOM     11  C   UNL     1      33.590 -15.136 -22.600  0.00  0.00    +0.002 C 
ATOM     12  C   UNL     1      34.155 -17.209 -20.837  0.00  0.00    +0.102 A 
ATOM     13  C   UNL     1      33.705 -16.408 -23.204  0.00  0.00    +0.003 C 
ATOM     14  C   UNL     1      34.159 -18.718 -22.519  0.00  0.00    +0.053 A 
ATOM     15  C   UNL     1      33.749 -14.912 -21.192  0.00  0.00    +0.002 C 
ATOM     16  C   UNL     1      34.036 -15.932 -20.258  0.00  0.00    +0.021 C 
ATOM     17  C   UNL     1      34.116 -19.524 -23.750  0.00  0.00    +0.051 C 
ATOM     18  H   UNL     1      34.579 -20.235 -21.178  0.00  0.00    +0.189 HD
ENDBRANCH   4  11
ENDBRANCH   1   3
BRANCH   1  19
ATOM     19  C   UNL     1      32.726  -9.336 -24.211  0.00  0.00    +0.184 C 
BRANCH  19  20
ATOM     20  C   UNL     1      33.020  -7.932 -23.665  0.00  0.00    -0.017 C 
BRANCH  20  21
ATOM     21  N   UNL     1      33.385  -7.060 -24.788  0.00  0.00    +0.384 N 
ATOM     22  H   UNL     1      32.580  -6.945 -25.404  0.00  0.00    -0.089 HD
ATOM     23  H   UNL     1      34.155  -7.480 -25.308  0.00  0.00    -0.089 HD
ATOM     24  H   UNL     1      33.673  -6.149 -24.431  0.00  0.00    -0.089 HD
ENDBRANCH  20  21
BRANCH  20  25
ATOM     25  C   UNL     1      31.830  -7.304 -22.891  0.00  0.00    +0.009 C 
BRANCH  25  27
ATOM     26  N   UNL     1      32.290  -7.247 -19.270  0.00  0.00    -0.312 N 
ATOM     27  C   UNL     1      31.867  -7.523 -21.431  0.00  0.00    -0.008 C 
ATOM     28  C   UNL     1      31.286  -8.611 -20.721  0.00  0.00    +0.011 C 
ATOM     29  C   UNL     1      31.566  -8.413 -19.367  0.00  0.00    +0.048 C 
ATOM     30  C   UNL     1      32.479  -6.701 -20.511  0.00  0.00    +0.058 C 
ATOM     31  C   UNL     1      30.546  -9.747 -21.102  0.00  0.00    +0.001 C 
ATOM     32  C   UNL     1      31.141  -9.300 -18.371  0.00  0.00    +0.015 C 
ATOM     33  C   UNL     1      30.114 -10.643 -20.117  0.00  0.00    +0.000 C 
ATOM     34  C   UNL     1      30.408 -10.420 -18.773  0.00  0.00    +0.001 C 
ATOM     35  H   UNL     1      32.626  -6.861 -18.428  0.00  0.00    +0.152 HD
ENDBRANCH  25  27
ENDBRANCH  20  25
ENDBRANCH  19  20
ENDBRANCH   1  19
TORSDOF 7
ENDMDL
MODEL 7
REMARK VINA RESULT:     -11.3      1.829     10.609
REMARK  Name = 10172943
REMARK  7 active torsions:
REMARK  status: ('A' for Active; 'I' for Inactive)
REMARK    1  A    between atoms: O_1  and  C_3
REMARK    2  A    between atoms: O_1  and  C_19
REMARK    3  A    between atoms: C_4  and  C_11
REMARK    4  A    between atoms: C_19  and  C_20
REMARK    5  A    between atoms: C_20  and  N_21
REMARK    6  A    between atoms: C_20  and  C_25
REMARK    7  A    between atoms: C_25  and  C_27
REMARK                            x       y       z     vdW  Elec       q    Type
REMARK                         _______ _______ _______ _____ _____    ______ ____
ROOT
ATOM      1  O   UNL     1      35.107 -20.645 -18.797  0.00  0.00    -0.476 OA
ENDROOT
BRANCH   1   3
ATOM      2  N   UNL     1      32.009 -22.324 -17.867  0.00  0.00    -0.239 NA
ATOM      3  C   UNL     1      34.212 -21.380 -18.063  0.00  0.00    +0.158 C 
ATOM      4  C   UNL     1      33.645 -22.647 -16.116  0.00  0.00    +0.022 C 
ATOM      5  C   UNL     1      34.574 -21.905 -16.836  0.00  0.00    +0.040 C 
ATOM      6  C   UNL     1      32.939 -21.608 -18.538  0.00  0.00    +0.136 C 
ATOM      7  C   UNL     1      32.387 -22.826 -16.670  0.00  0.00    +0.099 C 
BRANCH   4  11
ATOM      8  N   UNL     1      36.289 -25.066 -11.556  0.00  0.00    -0.280 N 
ATOM      9  N   UNL     1      35.006 -24.834 -11.214  0.00  0.00    -0.173 NA
ATOM     10  C   UNL     1      35.461 -24.177 -13.341  0.00  0.00    +0.032 A 
ATOM     11  C   UNL     1      33.981 -23.215 -14.831  0.00  0.00    +0.002 C 
ATOM     12  C   UNL     1      34.457 -24.278 -12.308  0.00  0.00    +0.102 A 
ATOM     13  C   UNL     1      35.304 -23.662 -14.621  0.00  0.00    +0.003 C 
ATOM     14  C   UNL     1      36.618 -24.690 -12.825  0.00  0.00    +0.053 A 
ATOM     15  C   UNL     1      32.952 -23.295 -13.835  0.00  0.00    +0.002 C 
ATOM     16  C   UNL     1      33.145 -23.826 -12.540  0.00  0.00    +0.021 C 
ATOM     17  C   UNL     1      37.977 -24.868 -13.365  0.00  0.00    +0.051 C 
ATOM     18  H   UNL     1      36.937 -25.475 -10.938  0.00  0.00    +0.189 HD
ENDBRANCH   4  11
ENDBRANCH   1   3
BRANCH   1  19
ATOM     19  C   UNL     1      34.619 -20.046 -19.990  0.00  0.00    +0.184 C 
BRANCH  19  20
ATOM     20  C   UNL     1      35.314 -18.711 -20.284  0.00  0.00    -0.017 C 
BRANCH  20  21
ATOM     21  N   UNL     1      36.495 -18.597 -19.419  0.00  0.00    +0.384 N 
ATOM     22  H   UNL     1      36.473 -17.701 -18.931  0.00  0.00    -0.089 HD
ATOM     23  H   UNL     1      37.340 -18.654 -19.988  0.00  0.00    -0.089 HD
ATOM     24  H   UNL     1      36.492 -19.356 -18.738  0.00  0.00    -0.089 HD
ENDBRANCH  20  21
BRANCH  20  25
ATOM     25  C   UNL     1      35.745 -18.547 -21.766  0.00  0.00    +0.009 C 
BRANCH  25  27
ATOM     26  N   UNL     1      33.004 -18.338 -24.170  0.00  0.00    -0.312 N 
ATOM     27  C   UNL     1      34.646 -18.184 -22.685  0.00  0.00    -0.008 C 
ATOM     28  C   UNL     1      34.141 -16.876 -22.927  0.00  0.00    +0.011 C 
ATOM     29  C   UNL     1      33.112 -17.001 -23.862  0.00  0.00    +0.048 C 
ATOM     30  C   UNL     1      33.928 -19.062 -23.464  0.00  0.00    +0.058 C 
ATOM     31  C   UNL     1      34.461 -15.594 -22.438  0.00  0.00    +0.001 C 
ATOM     32  C   UNL     1      32.383 -15.903 -24.335  0.00  0.00    +0.015 C 
ATOM     33  C   UNL     1      33.741 -14.487 -22.901  0.00  0.00    +0.000 C 
ATOM     34  C   UNL     1      32.718 -14.641 -23.835  0.00  0.00    +0.001 C 
ATOM     35  H   UNL     1      32.357 -18.719 -24.807  0.00  0.00    +0.152 HD
ENDBRANCH  25  27
ENDBRANCH  20  25
ENDBRANCH  19  20
ENDBRANCH   1  19
TORSDOF 7
ENDMDL
MODEL 8
REMARK VINA RESULT:     -11.3      1.953     10.236
REMARK  Name = 10172943
REMARK  7 active torsions:
REMARK  status: ('A' for Active; 'I' for Inactive)
REMARK    1  A    between atoms: O_1  and  C_3
REMARK    2  A    between atoms: O_1  and  C_19
REMARK    3  A    between atoms: C_4  and  C_11
REMARK    4  A    between atoms: C_19  and  C_20
REMARK    5  A    between atoms: C_20  and  N_21
REMARK    6  A    between atoms: C_20  and  C_25
REMARK    7  A    between atoms: C_25  and  C_27
REMARK                            x       y       z     vdW  Elec       q    Type
REMARK                         _______ _______ _______ _____ _____    ______ ____
ROOT
ATOM      1  O   UNL     1      31.971 -22.009 -18.075  0.00  0.00    -0.476 OA
ENDROOT
BRANCH   1   3
ATOM      2  N   UNL     1      30.700 -23.089 -14.835  0.00  0.00    -0.239 NA
ATOM      3  C   UNL     1      31.966 -22.439 -16.773  0.00  0.00    +0.158 C 
ATOM      4  C   UNL     1      33.117 -23.095 -14.783  0.00  0.00    +0.022 C 
ATOM      5  C   UNL     1      33.154 -22.657 -16.101  0.00  0.00    +0.040 C 
ATOM      6  C   UNL     1      30.776 -22.663 -16.115  0.00  0.00    +0.136 C 
ATOM      7  C   UNL     1      31.876 -23.293 -14.199  0.00  0.00    +0.099 C 
BRANCH   4  11
ATOM      8  N   UNL     1      37.101 -24.137 -10.699  0.00  0.00    -0.280 N 
ATOM      9  N   UNL     1      37.741 -24.025 -11.881  0.00  0.00    -0.173 NA
ATOM     10  C   UNL     1      35.495 -23.756 -12.090  0.00  0.00    +0.032 A 
ATOM     11  C   UNL     1      34.334 -23.336 -14.043  0.00  0.00    +0.002 C 
ATOM     12  C   UNL     1      36.765 -23.786 -12.774  0.00  0.00    +0.102 A 
ATOM     13  C   UNL     1      34.242 -23.538 -12.649  0.00  0.00    +0.003 C 
ATOM     14  C   UNL     1      35.748 -23.984 -10.766  0.00  0.00    +0.053 A 
ATOM     15  C   UNL     1      35.574 -23.358 -14.765  0.00  0.00    +0.002 C 
ATOM     16  C   UNL     1      36.833 -23.582 -14.165  0.00  0.00    +0.021 C 
ATOM     17  C   UNL     1      34.891 -24.076  -9.572  0.00  0.00    +0.051 C 
ATOM     18  H   UNL     1      37.575 -24.315  -9.855  0.00  0.00    +0.189 HD
ENDBRANCH   4  11
ENDBRANCH   1   3
BRANCH   1  19
ATOM     19  C   UNL     1      33.208 -21.535 -18.589  0.00  0.00    +0.184 C 
BRANCH  19  20
ATOM     20  C   UNL     1      33.011 -20.655 -19.830  0.00  0.00    -0.017 C 
BRANCH  20  21
ATOM     21  N   UNL     1      31.679 -20.041 -19.763  0.00  0.00    +0.384 N 
ATOM     22  H   UNL     1      31.770 -19.066 -19.478  0.00  0.00    -0.089 HD
ATOM     23  H   UNL     1      31.108 -20.543 -19.084  0.00  0.00    -0.089 HD
ATOM     24  H   UNL     1      31.237 -20.088 -20.681  0.00  0.00    -0.089 HD
ENDBRANCH  20  21
BRANCH  20  25
ATOM     25  C   UNL     1      34.084 -19.544 -19.981  0.00  0.00    +0.009 C 
BRANCH  25  27
ATOM     26  N   UNL     1      33.977 -18.391 -23.444  0.00  0.00    -0.312 N 
ATOM     27  C   UNL     1      34.035 -18.818 -21.267  0.00  0.00    -0.008 C 
ATOM     28  C   UNL     1      33.992 -17.407 -21.442  0.00  0.00    +0.011 C 
ATOM     29  C   UNL     1      33.956 -17.166 -22.817  0.00  0.00    +0.048 C 
ATOM     30  C   UNL     1      34.026 -19.396 -22.516  0.00  0.00    +0.058 C 
ATOM     31  C   UNL     1      33.978 -16.308 -20.561  0.00  0.00    +0.001 C 
ATOM     32  C   UNL     1      33.907 -15.875 -23.357  0.00  0.00    +0.015 C 
ATOM     33  C   UNL     1      33.930 -15.012 -21.086  0.00  0.00    +0.000 C 
ATOM     34  C   UNL     1      33.894 -14.801 -22.463  0.00  0.00    +0.001 C 
ATOM     35  H   UNL     1      33.961 -18.525 -24.419  0.00  0.00    +0.152 HD
ENDBRANCH  25  27
ENDBRANCH  20  25
ENDBRANCH  19  20
ENDBRANCH   1  19
TORSDOF 7
ENDMDL
MODEL 9
REMARK VINA RESULT:     -11.2      3.269      6.471
REMARK  Name = 10172943
REMARK  7 active torsions:
REMARK  status: ('A' for Active; 'I' for Inactive)
REMARK    1  A    between atoms: O_1  and  C_3
REMARK    2  A    between atoms: O_1  and  C_19
REMARK    3  A    between atoms: C_4  and  C_11
REMARK    4  A    between atoms: C_19  and  C_20
REMARK    5  A    between atoms: C_20  and  N_21
REMARK    6  A    between atoms: C_20  and  C_25
REMARK    7  A    between atoms: C_25  and  C_27
REMARK                            x       y       z     vdW  Elec       q    Type
REMARK                         _______ _______ _______ _____ _____    ______ ____
ROOT
ATOM      1  O   UNL     1      34.927 -16.962 -21.952  0.00  0.00    -0.476 OA
ENDROOT
BRANCH   1   3
ATOM      2  N   UNL     1      33.196 -15.610 -24.860  0.00  0.00    -0.239 NA
ATOM      3  C   UNL     1      34.200 -16.099 -22.730  0.00  0.00    +0.158 C 
ATOM      4  C   UNL     1      33.009 -14.046 -23.025  0.00  0.00    +0.022 C 
ATOM      5  C   UNL     1      33.745 -14.900 -22.212  0.00  0.00    +0.040 C 
ATOM      6  C   UNL     1      33.909 -16.414 -24.040  0.00  0.00    +0.136 C 
ATOM      7  C   UNL     1      32.764 -14.443 -24.330  0.00  0.00    +0.099 C 
BRANCH   4  11
ATOM      8  N   UNL     1      31.838  -8.447 -22.072  0.00  0.00    -0.280 N 
ATOM      9  N   UNL     1      31.154  -9.172 -21.165  0.00  0.00    -0.173 NA
ATOM     10  C   UNL     1      32.380 -10.478 -22.562  0.00  0.00    +0.032 A 
ATOM     11  C   UNL     1      32.514 -12.785 -22.525  0.00  0.00    +0.002 C 
ATOM     12  C   UNL     1      31.470 -10.449 -21.442  0.00  0.00    +0.102 A 
ATOM     13  C   UNL     1      32.944 -11.598 -23.159  0.00  0.00    +0.003 C 
ATOM     14  C   UNL     1      32.593  -9.182 -22.938  0.00  0.00    +0.053 A 
ATOM     15  C   UNL     1      31.611 -12.803 -21.411  0.00  0.00    +0.002 C 
ATOM     16  C   UNL     1      31.055 -11.644 -20.826  0.00  0.00    +0.021 C 
ATOM     17  C   UNL     1      33.403  -8.554 -23.995  0.00  0.00    +0.051 C 
ATOM     18  H   UNL     1      31.797  -7.464 -22.106  0.00  0.00    +0.189 HD
ENDBRANCH   4  11
ENDBRANCH   1   3
BRANCH   1  19
ATOM     19  C   UNL     1      34.275 -17.499 -20.809  0.00  0.00    +0.184 C 
BRANCH  19  20
ATOM     20  C   UNL     1      33.906 -18.976 -21.002  0.00  0.00    -0.017 C 
BRANCH  20  21
ATOM     21  N   UNL     1      34.255 -19.370 -22.373  0.00  0.00    +0.384 N 
ATOM     22  H   UNL     1      33.412 -19.384 -22.947  0.00  0.00    -0.089 HD
ATOM     23  H   UNL     1      34.675 -20.300 -22.362  0.00  0.00    -0.089 HD
ATOM     24  H   UNL     1      34.920 -18.701 -22.760  0.00  0.00    -0.089 HD
ENDBRANCH  20  21
BRANCH  20  25
ATOM     25  C   UNL     1      34.608 -19.928 -19.998  0.00  0.00    +0.009 C 
BRANCH  25  27
ATOM     26  N   UNL     1      31.845 -21.687 -18.385  0.00  0.00    -0.312 N 
ATOM     27  C   UNL     1      33.685 -20.713 -19.153  0.00  0.00    -0.008 C 
ATOM     28  C   UNL     1      34.013 -21.398 -17.950  0.00  0.00    +0.011 C 
ATOM     29  C   UNL     1      32.841 -22.001 -17.489  0.00  0.00    +0.048 C 
ATOM     30  C   UNL     1      32.345 -20.908 -19.394  0.00  0.00    +0.058 C 
ATOM     31  C   UNL     1      35.199 -21.565 -17.207  0.00  0.00    +0.001 C 
ATOM     32  C   UNL     1      32.795 -22.765 -16.317  0.00  0.00    +0.015 C 
ATOM     33  C   UNL     1      35.168 -22.327 -16.033  0.00  0.00    +0.000 C 
ATOM     34  C   UNL     1      33.983 -22.917 -15.597  0.00  0.00    +0.001 C 
ATOM     35  H   UNL     1      30.908 -21.979 -18.311  0.00  0.00    +0.152 HD
ENDBRANCH  25  27
ENDBRANCH  20  25
ENDBRANCH  19  20
ENDBRANCH   1  19
TORSDOF 7
ENDMDL
