MODEL 1
REMARK VINA RESULT:     -11.9      0.000      0.000
REMARK  Name = 56842109
REMARK  7 active torsions:
REMARK  status: ('A' for Active; 'I' for Inactive)
REMARK    1  A    between atoms: C_1  and  C_24
REMARK    2  A    between atoms: C_3  and  C_9
REMARK    3  A    between atoms: C_5  and  O_22
REMARK    4  A    between atoms: N_8  and  C_11
REMARK    5  A    between atoms: C_11  and  C_12
REMARK    6  A    between atoms: C_15  and  C_21
REMARK    7  A    between atoms: C_24  and  C_29
REMARK                            x       y       z     vdW  Elec       q    Type
REMARK                         _______ _______ _______ _____ _____    ______ ____
ROOT
ATOM      1  C   UNL     1      34.718 -23.464 -13.532  0.00  0.00    -0.018 C 
ATOM      2  C   UNL     1      34.009 -23.103 -14.678  0.00  0.00    +0.003 C 
ATOM      3  C   UNL     1      32.615 -23.135 -14.675  0.00  0.00    +0.087 C 
ATOM      4  C   UNL     1      34.033 -23.855 -12.383  0.00  0.00    -0.001 C 
ATOM      5  C   UNL     1      31.929 -23.527 -13.525  0.00  0.00    +0.143 C 
ATOM      6  C   UNL     1      32.638 -23.887 -12.379  0.00  0.00    +0.037 C 
ENDROOT
BRANCH   3   9
ATOM      7  O   UNL     1      30.653 -22.696 -15.881  0.00  0.00    -0.270 OA
ATOM      8  N   UNL     1      32.664 -22.439 -17.007  0.00  0.00    -0.297 N 
ATOM      9  C   UNL     1      31.894 -22.753 -15.882  0.00  0.00    +0.249 C 
ATOM     10  H   UNL     1      33.643 -22.507 -16.936  0.00  0.00    +0.150 HD
BRANCH   8  11
ATOM     11  C   UNL     1      32.097 -22.022 -18.269  0.00  0.00    +0.117 C 
BRANCH  11  12
ATOM     12  C   UNL     1      32.999 -21.074 -19.004  0.00  0.00    -0.003 C 
ATOM     13  C   UNL     1      32.458 -20.144 -19.893  0.00  0.00    -0.003 C 
ATOM     14  C   UNL     1      34.378 -21.121 -18.799  0.00  0.00    -0.003 C 
ATOM     15  C   UNL     1      34.673 -19.310 -20.370  0.00  0.00    +0.071 C 
ATOM     16  C   UNL     1      33.295 -19.262 -20.576  0.00  0.00    +0.004 C 
ATOM     17  C   UNL     1      35.215 -20.240 -19.482  0.00  0.00    +0.004 C 
BRANCH  15  21
ATOM     18  F   UNL     1      35.176 -17.065 -20.969  0.00  0.00    -0.166 F 
ATOM     19  F   UNL     1      36.866 -18.401 -20.671  0.00  0.00    -0.166 F 
ATOM     20  F   UNL     1      35.631 -18.597 -22.443  0.00  0.00    -0.166 F 
ATOM     21  C   UNL     1      35.569 -18.366 -21.099  0.00  0.00    +0.419 C 
ENDBRANCH  15  21
ENDBRANCH  11  12
ENDBRANCH   8  11
ENDBRANCH   3   9
BRANCH   5  22
ATOM     22  O   UNL     1      30.567 -23.561 -13.501  0.00  0.00    -0.471 OA
ATOM     23  C   UNL     1      29.959 -24.661 -12.825  0.00  0.00    +0.252 C 
ENDBRANCH   5  22
BRANCH   1  24
ATOM     24  C   UNL     1      36.227 -23.428 -13.537  0.00  0.00    +0.080 C 
BRANCH  24  29
ATOM     25  O   UNL     1      38.228 -24.541 -12.770  0.00  0.00    -0.428 OA
ATOM     26  O   UNL     1      35.818 -26.255 -14.626  0.00  0.00    -0.271 OA
ATOM     27  O   UNL     1      40.180 -25.457 -13.529  0.00  0.00    -0.226 OA
ATOM     28  N   UNL     1      38.116 -26.133 -14.315  0.00  0.00    -0.218 N 
ATOM     29  C   UNL     1      36.827 -24.725 -13.036  0.00  0.00    +0.250 C 
ATOM     30  C   UNL     1      36.814 -25.797 -14.088  0.00  0.00    +0.271 C 
ATOM     31  C   UNL     1      38.959 -25.395 -13.548  0.00  0.00    +0.408 C 
ATOM     32  H   UNL     1      38.408 -26.822 -14.954  0.00  0.00    +0.161 HD
ENDBRANCH  24  29
ENDBRANCH   1  24
TORSDOF 7
ENDMDL
MODEL 2
REMARK VINA RESULT:     -11.6      5.456      9.602
REMARK  Name = 56842109
REMARK  7 active torsions:
REMARK  status: ('A' for Active; 'I' for Inactive)
REMARK    1  A    between atoms: C_1  and  C_24
REMARK    2  A    between atoms: C_3  and  C_9
REMARK    3  A    between atoms: C_5  and  O_22
REMARK    4  A    between atoms: N_8  and  C_11
REMARK    5  A    between atoms: C_11  and  C_12
REMARK    6  A    between atoms: C_15  and  C_21
REMARK    7  A    between atoms: C_24  and  C_29
REMARK                            x       y       z     vdW  Elec       q    Type
REMARK                         _______ _______ _______ _____ _____    ______ ____
ROOT
ATOM      1  C   UNL     1      34.144 -19.598 -20.428  0.00  0.00    -0.018 C 
ATOM      2  C   UNL     1      33.421 -20.588 -19.762  0.00  0.00    +0.003 C 
ATOM      3  C   UNL     1      34.023 -21.325 -18.742  0.00  0.00    +0.087 C 
ATOM      4  C   UNL     1      35.469 -19.346 -20.073  0.00  0.00    -0.001 C 
ATOM      5  C   UNL     1      35.347 -21.073 -18.387  0.00  0.00    +0.143 C 
ATOM      6  C   UNL     1      36.071 -20.083 -19.053  0.00  0.00    +0.037 C 
ENDROOT
BRANCH   3   9
ATOM      7  O   UNL     1      32.763 -23.302 -18.697  0.00  0.00    -0.270 OA
ATOM      8  N   UNL     1      33.107 -22.224 -16.673  0.00  0.00    -0.297 N 
ATOM      9  C   UNL     1      33.249 -22.353 -18.059  0.00  0.00    +0.249 C 
ATOM     10  H   UNL     1      33.519 -21.445 -16.233  0.00  0.00    +0.150 HD
BRANCH   8  11
ATOM     11  C   UNL     1      32.389 -23.173 -15.853  0.00  0.00    +0.117 C 
BRANCH  11  12
ATOM     12  C   UNL     1      33.143 -23.518 -14.602  0.00  0.00    -0.003 C 
ATOM     13  C   UNL     1      34.521 -23.727 -14.654  0.00  0.00    -0.003 C 
ATOM     14  C   UNL     1      32.466 -23.632 -13.388  0.00  0.00    -0.003 C 
ATOM     15  C   UNL     1      34.546 -24.160 -12.279  0.00  0.00    +0.071 C 
ATOM     16  C   UNL     1      35.224 -24.048 -13.492  0.00  0.00    +0.004 C 
ATOM     17  C   UNL     1      33.167 -23.953 -12.226  0.00  0.00    +0.004 C 
BRANCH  15  21
ATOM     18  F   UNL     1      35.995 -25.669 -11.147  0.00  0.00    -0.166 F 
ATOM     19  F   UNL     1      36.217 -23.557 -10.676  0.00  0.00    -0.166 F 
ATOM     20  F   UNL     1      34.498 -24.655  -9.938  0.00  0.00    -0.166 F 
ATOM     21  C   UNL     1      35.296 -24.501 -11.035  0.00  0.00    +0.419 C 
ENDBRANCH  15  21
ENDBRANCH  11  12
ENDBRANCH   8  11
ENDBRANCH   3   9
BRANCH   5  22
ATOM     22  O   UNL     1      35.952 -21.781 -17.392  0.00  0.00    -0.471 OA
ATOM     23  C   UNL     1      36.431 -21.040 -16.270  0.00  0.00    +0.252 C 
ENDBRANCH   5  22
BRANCH   1  24
ATOM     24  C   UNL     1      33.492 -18.800 -21.530  0.00  0.00    +0.080 C 
BRANCH  24  29
ATOM     25  O   UNL     1      34.337 -16.582 -21.085  0.00  0.00    -0.428 OA
ATOM     26  O   UNL     1      33.714 -17.645 -24.352  0.00  0.00    -0.271 OA
ATOM     27  O   UNL     1      33.733 -14.378 -21.158  0.00  0.00    -0.226 OA
ATOM     28  N   UNL     1      33.604 -15.753 -23.010  0.00  0.00    -0.218 N 
ATOM     29  C   UNL     1      34.379 -17.675 -22.018  0.00  0.00    +0.250 C 
ATOM     30  C   UNL     1      33.866 -17.062 -23.290  0.00  0.00    +0.271 C 
ATOM     31  C   UNL     1      33.872 -15.460 -21.712  0.00  0.00    +0.408 C 
ATOM     32  H   UNL     1      33.263 -15.103 -23.666  0.00  0.00    +0.161 HD
ENDBRANCH  24  29
ENDBRANCH   1  24
TORSDOF 7
ENDMDL
MODEL 3
REMARK VINA RESULT:     -11.6      2.360      5.874
REMARK  Name = 56842109
REMARK  7 active torsions:
REMARK  status: ('A' for Active; 'I' for Inactive)
REMARK    1  A    between atoms: C_1  and  C_24
REMARK    2  A    between atoms: C_3  and  C_9
REMARK    3  A    between atoms: C_5  and  O_22
REMARK    4  A    between atoms: N_8  and  C_11
REMARK    5  A    between atoms: C_11  and  C_12
REMARK    6  A    between atoms: C_15  and  C_21
REMARK    7  A    between atoms: C_24  and  C_29
REMARK                            x       y       z     vdW  Elec       q    Type
REMARK                         _______ _______ _______ _____ _____    ______ ____
ROOT
ATOM      1  C   UNL     1      31.327 -22.932 -13.939  0.00  0.00    -0.018 C 
ATOM      2  C   UNL     1      32.460 -22.439 -14.587  0.00  0.00    +0.003 C 
ATOM      3  C   UNL     1      33.715 -22.978 -14.303  0.00  0.00    +0.087 C 
ATOM      4  C   UNL     1      31.450 -23.964 -13.009  0.00  0.00    -0.001 C 
ATOM      5  C   UNL     1      33.838 -24.010 -13.373  0.00  0.00    +0.143 C 
ATOM      6  C   UNL     1      32.705 -24.503 -12.726  0.00  0.00    +0.037 C 
ENDROOT
BRANCH   3   9
ATOM      7  O   UNL     1      35.960 -22.306 -14.386  0.00  0.00    -0.270 OA
ATOM      8  N   UNL     1      34.737 -22.144 -16.349  0.00  0.00    -0.297 N 
ATOM      9  C   UNL     1      34.885 -22.450 -14.992  0.00  0.00    +0.249 C 
ATOM     10  H   UNL     1      33.855 -22.282 -16.765  0.00  0.00    +0.150 HD
BRANCH   8  11
ATOM     11  C   UNL     1      35.810 -21.634 -17.173  0.00  0.00    +0.117 C 
BRANCH  11  12
ATOM     12  C   UNL     1      35.294 -20.899 -18.375  0.00  0.00    -0.003 C 
ATOM     13  C   UNL     1      33.967 -21.060 -18.775  0.00  0.00    -0.003 C 
ATOM     14  C   UNL     1      36.141 -20.056 -19.095  0.00  0.00    -0.003 C 
ATOM     15  C   UNL     1      34.333 -19.534 -20.610  0.00  0.00    +0.071 C 
ATOM     16  C   UNL     1      33.486 -20.378 -19.892  0.00  0.00    +0.004 C 
ATOM     17  C   UNL     1      35.661 -19.373 -20.212  0.00  0.00    +0.004 C 
BRANCH  15  21
ATOM     18  F   UNL     1      32.535 -19.143 -22.116  0.00  0.00    -0.166 F 
ATOM     19  F   UNL     1      33.809 -17.444 -21.650  0.00  0.00    -0.166 F 
ATOM     20  F   UNL     1      34.545 -19.026 -22.938  0.00  0.00    -0.166 F 
ATOM     21  C   UNL     1      33.819 -18.802 -21.803  0.00  0.00    +0.419 C 
ENDBRANCH  15  21
ENDBRANCH  11  12
ENDBRANCH   8  11
ENDBRANCH   3   9
BRANCH   5  22
ATOM     22  O   UNL     1      35.055 -24.552 -13.085  0.00  0.00    -0.471 OA
ATOM     23  C   UNL     1      35.431 -24.603 -11.710  0.00  0.00    +0.252 C 
ENDBRANCH   5  22
BRANCH   1  24
ATOM     24  C   UNL     1      29.970 -22.349 -14.246  0.00  0.00    +0.080 C 
BRANCH  24  29
ATOM     25  O   UNL     1      28.517 -22.121 -16.162  0.00  0.00    -0.428 OA
ATOM     26  O   UNL     1      28.490 -25.025 -14.223  0.00  0.00    -0.271 OA
ATOM     27  O   UNL     1      26.316 -21.887 -16.733  0.00  0.00    -0.226 OA
ATOM     28  N   UNL     1      27.072 -23.644 -15.437  0.00  0.00    -0.218 N 
ATOM     29  C   UNL     1      29.294 -23.060 -15.400  0.00  0.00    +0.250 C 
ATOM     30  C   UNL     1      28.270 -24.053 -14.930  0.00  0.00    +0.271 C 
ATOM     31  C   UNL     1      27.205 -22.503 -16.161  0.00  0.00    +0.408 C 
ATOM     32  H   UNL     1      26.220 -24.116 -15.297  0.00  0.00    +0.161 HD
ENDBRANCH  24  29
ENDBRANCH   1  24
TORSDOF 7
ENDMDL
MODEL 4
REMARK VINA RESULT:     -11.5      4.574      7.426
REMARK  Name = 56842109
REMARK  7 active torsions:
REMARK  status: ('A' for Active; 'I' for Inactive)
REMARK    1  A    between atoms: C_1  and  C_24
REMARK    2  A    between atoms: C_3  and  C_9
REMARK    3  A    between atoms: C_5  and  O_22
REMARK    4  A    between atoms: N_8  and  C_11
REMARK    5  A    between atoms: C_11  and  C_12
REMARK    6  A    between atoms: C_15  and  C_21
REMARK    7  A    between atoms: C_24  and  C_29
REMARK                            x       y       z     vdW  Elec       q    Type
REMARK                         _______ _______ _______ _____ _____    ______ ____
ROOT
ATOM      1  C   UNL     1      35.941 -22.111 -15.264  0.00  0.00    -0.018 C 
ATOM      2  C   UNL     1      34.836 -22.445 -14.480  0.00  0.00    +0.003 C 
ATOM      3  C   UNL     1      34.922 -23.495 -13.566  0.00  0.00    +0.087 C 
ATOM      4  C   UNL     1      37.131 -22.825 -15.132  0.00  0.00    -0.001 C 
ATOM      5  C   UNL     1      36.112 -24.210 -13.434  0.00  0.00    +0.143 C 
ATOM      6  C   UNL     1      37.217 -23.875 -14.217  0.00  0.00    +0.037 C 
ENDROOT
BRANCH   3   9
ATOM      7  O   UNL     1      33.752 -23.590 -11.536  0.00  0.00    -0.270 OA
ATOM      8  N   UNL     1      32.663 -24.392 -13.420  0.00  0.00    -0.297 N 
ATOM      9  C   UNL     1      33.757 -23.827 -12.756  0.00  0.00    +0.249 C 
ATOM     10  H   UNL     1      32.738 -24.552 -14.389  0.00  0.00    +0.150 HD
BRANCH   8  11
ATOM     11  C   UNL     1      31.430 -24.753 -12.760  0.00  0.00    +0.117 C 
BRANCH  11  12
ATOM     12  C   UNL     1      30.229 -24.195 -13.468  0.00  0.00    -0.003 C 
ATOM     13  C   UNL     1      30.154 -22.830 -13.743  0.00  0.00    -0.003 C 
ATOM     14  C   UNL     1      29.189 -25.042 -13.850  0.00  0.00    -0.003 C 
ATOM     15  C   UNL     1      28.000 -23.157 -14.783  0.00  0.00    +0.071 C 
ATOM     16  C   UNL     1      29.040 -22.310 -14.401  0.00  0.00    +0.004 C 
ATOM     17  C   UNL     1      28.074 -24.522 -14.508  0.00  0.00    +0.004 C 
BRANCH  15  21
ATOM     18  F   UNL     1      26.298 -23.466 -16.415  0.00  0.00    -0.166 F 
ATOM     19  F   UNL     1      25.768 -22.303 -14.655  0.00  0.00    -0.166 F 
ATOM     20  F   UNL     1      27.064 -21.446 -16.169  0.00  0.00    -0.166 F 
ATOM     21  C   UNL     1      26.809 -22.602 -15.489  0.00  0.00    +0.419 C 
ENDBRANCH  15  21
ENDBRANCH  11  12
ENDBRANCH   8  11
ENDBRANCH   3   9
BRANCH   5  22
ATOM     22  O   UNL     1      36.217 -25.236 -12.543  0.00  0.00    -0.471 OA
ATOM     23  C   UNL     1      36.321 -26.552 -13.083  0.00  0.00    +0.252 C 
ENDBRANCH   5  22
BRANCH   1  24
ATOM     24  C   UNL     1      35.847 -20.975 -16.252  0.00  0.00    +0.080 C 
BRANCH  24  29
ATOM     25  O   UNL     1      35.939 -20.411 -18.599  0.00  0.00    -0.428 OA
ATOM     26  O   UNL     1      33.548 -22.645 -17.380  0.00  0.00    -0.271 OA
ATOM     27  O   UNL     1      34.787 -19.294 -20.227  0.00  0.00    -0.226 OA
ATOM     28  N   UNL     1      33.824 -20.977 -18.972  0.00  0.00    -0.218 N 
ATOM     29  C   UNL     1      35.651 -21.470 -17.670  0.00  0.00    +0.250 C 
ATOM     30  C   UNL     1      34.215 -21.802 -17.960  0.00  0.00    +0.271 C 
ATOM     31  C   UNL     1      34.829 -20.148 -19.354  0.00  0.00    +0.408 C 
ATOM     32  H   UNL     1      32.926 -20.981 -19.376  0.00  0.00    +0.161 HD
ENDBRANCH  24  29
ENDBRANCH   1  24
TORSDOF 7
ENDMDL
MODEL 5
REMARK VINA RESULT:     -11.0      2.035      2.528
REMARK  Name = 56842109
REMARK  7 active torsions:
REMARK  status: ('A' for Active; 'I' for Inactive)
REMARK    1  A    between atoms: C_1  and  C_24
REMARK    2  A    between atoms: C_3  and  C_9
REMARK    3  A    between atoms: C_5  and  O_22
REMARK    4  A    between atoms: N_8  and  C_11
REMARK    5  A    between atoms: C_11  and  C_12
REMARK    6  A    between atoms: C_15  and  C_21
REMARK    7  A    between atoms: C_24  and  C_29
REMARK                            x       y       z     vdW  Elec       q    Type
REMARK                         _______ _______ _______ _____ _____    ______ ____
ROOT
ATOM      1  C   UNL     1      33.129 -23.741 -13.341  0.00  0.00    -0.018 C 
ATOM      2  C   UNL     1      32.921 -23.367 -14.669  0.00  0.00    +0.003 C 
ATOM      3  C   UNL     1      31.641 -23.023 -15.104  0.00  0.00    +0.087 C 
ATOM      4  C   UNL     1      32.058 -23.769 -12.449  0.00  0.00    -0.001 C 
ATOM      5  C   UNL     1      30.570 -23.051 -14.212  0.00  0.00    +0.143 C 
ATOM      6  C   UNL     1      30.778 -23.425 -12.884  0.00  0.00    +0.037 C 
ENDROOT
BRANCH   3   9
ATOM      7  O   UNL     1      30.474 -21.933 -16.820  0.00  0.00    -0.270 OA
ATOM      8  N   UNL     1      32.409 -23.064 -17.414  0.00  0.00    -0.297 N 
ATOM      9  C   UNL     1      31.447 -22.633 -16.494  0.00  0.00    +0.249 C 
ATOM     10  H   UNL     1      33.154 -23.617 -17.084  0.00  0.00    +0.150 HD
BRANCH   8  11
ATOM     11  C   UNL     1      32.367 -22.741 -18.821  0.00  0.00    +0.117 C 
BRANCH  11  12
ATOM     12  C   UNL     1      33.303 -21.621 -19.169  0.00  0.00    -0.003 C 
ATOM     13  C   UNL     1      34.648 -21.697 -18.805  0.00  0.00    -0.003 C 
ATOM     14  C   UNL     1      32.830 -20.502 -19.855  0.00  0.00    -0.003 C 
ATOM     15  C   UNL     1      35.045 -19.539 -19.814  0.00  0.00    +0.071 C 
ATOM     16  C   UNL     1      35.519 -20.657 -19.127  0.00  0.00    +0.004 C 
ATOM     17  C   UNL     1      33.700 -19.462 -20.177  0.00  0.00    +0.004 C 
BRANCH  15  21
ATOM     18  F   UNL     1      36.908 -18.200 -19.189  0.00  0.00    -0.166 F 
ATOM     19  F   UNL     1      36.690 -18.649 -21.306  0.00  0.00    -0.166 F 
ATOM     20  F   UNL     1      35.351 -17.230 -20.358  0.00  0.00    -0.166 F 
ATOM     21  C   UNL     1      35.977 -18.428 -20.161  0.00  0.00    +0.419 C 
ENDBRANCH  15  21
ENDBRANCH  11  12
ENDBRANCH   8  11
ENDBRANCH   3   9
BRANCH   5  22
ATOM     22  O   UNL     1      29.313 -22.714 -14.617  0.00  0.00    -0.471 OA
ATOM     23  C   UNL     1      28.275 -23.659 -14.359  0.00  0.00    +0.252 C 
ENDBRANCH   5  22
BRANCH   1  24
ATOM     24  C   UNL     1      34.514 -24.113 -12.870  0.00  0.00    +0.080 C 
BRANCH  24  29
ATOM     25  O   UNL     1      36.225 -22.759 -11.836  0.00  0.00    -0.428 OA
ATOM     26  O   UNL     1      34.264 -24.937  -9.937  0.00  0.00    -0.271 OA
ATOM     27  O   UNL     1      38.264 -22.910 -10.811  0.00  0.00    -0.226 OA
ATOM     28  N   UNL     1      36.423 -24.092 -10.069  0.00  0.00    -0.218 N 
ATOM     29  C   UNL     1      34.923 -23.336 -11.637  0.00  0.00    +0.250 C 
ATOM     30  C   UNL     1      35.119 -24.229 -10.445  0.00  0.00    +0.271 C 
ATOM     31  C   UNL     1      37.086 -23.232 -10.885  0.00  0.00    +0.408 C 
ATOM     32  H   UNL     1      36.831 -24.557  -9.304  0.00  0.00    +0.161 HD
ENDBRANCH  24  29
ENDBRANCH   1  24
TORSDOF 7
ENDMDL
MODEL 6
REMARK VINA RESULT:     -11.0     10.046     14.303
REMARK  Name = 56842109
REMARK  7 active torsions:
REMARK  status: ('A' for Active; 'I' for Inactive)
REMARK    1  A    between atoms: C_1  and  C_24
REMARK    2  A    between atoms: C_3  and  C_9
REMARK    3  A    between atoms: C_5  and  O_22
REMARK    4  A    between atoms: N_8  and  C_11
REMARK    5  A    between atoms: C_11  and  C_12
REMARK    6  A    between atoms: C_15  and  C_21
REMARK    7  A    between atoms: C_24  and  C_29
REMARK                            x       y       z     vdW  Elec       q    Type
REMARK                         _______ _______ _______ _____ _____    ______ ____
ROOT
ATOM      1  C   UNL     1      30.848  -9.263 -20.876  0.00  0.00    -0.018 C 
ATOM      2  C   UNL     1      31.549  -9.915 -21.891  0.00  0.00    +0.003 C 
ATOM      3  C   UNL     1      31.794 -11.286 -21.800  0.00  0.00    +0.087 C 
ATOM      4  C   UNL     1      30.392  -9.981 -19.772  0.00  0.00    -0.001 C 
ATOM      5  C   UNL     1      31.337 -12.004 -20.696  0.00  0.00    +0.143 C 
ATOM      6  C   UNL     1      30.636 -11.352 -19.681  0.00  0.00    +0.037 C 
ENDROOT
BRANCH   3   9
ATOM      7  O   UNL     1      33.621 -11.501 -23.254  0.00  0.00    -0.270 OA
ATOM      8  N   UNL     1      31.948 -13.099 -23.418  0.00  0.00    -0.297 N 
ATOM      9  C   UNL     1      32.526 -11.947 -22.872  0.00  0.00    +0.249 C 
ATOM     10  H   UNL     1      31.077 -13.394 -23.067  0.00  0.00    +0.150 HD
BRANCH   8  11
ATOM     11  C   UNL     1      32.562 -13.877 -24.469  0.00  0.00    +0.117 C 
BRANCH  11  12
ATOM     12  C   UNL     1      33.021 -15.219 -23.979  0.00  0.00    -0.003 C 
ATOM     13  C   UNL     1      33.960 -15.303 -22.951  0.00  0.00    -0.003 C 
ATOM     14  C   UNL     1      32.510 -16.384 -24.552  0.00  0.00    -0.003 C 
ATOM     15  C   UNL     1      33.876 -17.713 -23.067  0.00  0.00    +0.071 C 
ATOM     16  C   UNL     1      34.388 -16.549 -22.494  0.00  0.00    +0.004 C 
ATOM     17  C   UNL     1      32.937 -17.631 -24.096  0.00  0.00    +0.004 C 
BRANCH  15  21
ATOM     18  F   UNL     1      35.613 -19.026 -22.111  0.00  0.00    -0.166 F 
ATOM     19  F   UNL     1      33.575 -19.540 -21.551  0.00  0.00    -0.166 F 
ATOM     20  F   UNL     1      34.305 -20.019 -23.536  0.00  0.00    -0.166 F 
ATOM     21  C   UNL     1      34.330 -19.047 -22.578  0.00  0.00    +0.419 C 
ENDBRANCH  15  21
ENDBRANCH  11  12
ENDBRANCH   8  11
ENDBRANCH   3   9
BRANCH   5  22
ATOM     22  O   UNL     1      31.563 -13.344 -20.591  0.00  0.00    -0.471 OA
ATOM     23  C   UNL     1      32.752 -13.748 -19.914  0.00  0.00    +0.252 C 
ENDBRANCH   5  22
BRANCH   1  24
ATOM     24  C   UNL     1      30.584  -7.781 -20.975  0.00  0.00    +0.080 C 
BRANCH  24  29
ATOM     25  O   UNL     1      31.675  -6.888 -19.015  0.00  0.00    -0.428 OA
ATOM     26  O   UNL     1      31.652  -5.115 -22.023  0.00  0.00    -0.271 OA
ATOM     27  O   UNL     1      31.498  -5.222 -17.459  0.00  0.00    -0.226 OA
ATOM     28  N   UNL     1      31.565  -4.786 -19.727  0.00  0.00    -0.218 N 
ATOM     29  C   UNL     1      31.742  -6.960 -20.449  0.00  0.00    +0.250 C 
ATOM     30  C   UNL     1      31.653  -5.521 -20.872  0.00  0.00    +0.271 C 
ATOM     31  C   UNL     1      31.572  -5.581 -18.626  0.00  0.00    +0.408 C 
ATOM     32  H   UNL     1      31.504  -3.804 -19.701  0.00  0.00    +0.161 HD
ENDBRANCH  24  29
ENDBRANCH   1  24
TORSDOF 7
ENDMDL
MODEL 7
REMARK VINA RESULT:     -11.0      6.307     10.986
REMARK  Name = 56842109
REMARK  7 active torsions:
REMARK  status: ('A' for Active; 'I' for Inactive)
REMARK    1  A    between atoms: C_1  and  C_24
REMARK    2  A    between atoms: C_3  and  C_9
REMARK    3  A    between atoms: C_5  and  O_22
REMARK    4  A    between atoms: N_8  and  C_11
REMARK    5  A    between atoms: C_11  and  C_12
REMARK    6  A    between atoms: C_15  and  C_21
REMARK    7  A    between atoms: C_24  and  C_29
REMARK                            x       y       z     vdW  Elec       q    Type
REMARK                         _______ _______ _______ _____ _____    ______ ____
ROOT
ATOM      1  C   UNL     1      33.834 -15.340 -21.335  0.00  0.00    -0.018 C 
ATOM      2  C   UNL     1      34.469 -16.302 -20.549  0.00  0.00    +0.003 C 
ATOM      3  C   UNL     1      34.772 -17.553 -21.087  0.00  0.00    +0.087 C 
ATOM      4  C   UNL     1      33.503 -15.629 -22.658  0.00  0.00    -0.001 C 
ATOM      5  C   UNL     1      34.441 -17.842 -22.410  0.00  0.00    +0.143 C 
ATOM      6  C   UNL     1      33.807 -16.880 -23.196  0.00  0.00    +0.037 C 
ENDROOT
BRANCH   3   9
ATOM      7  O   UNL     1      36.523 -18.278 -19.706  0.00  0.00    -0.270 OA
ATOM      8  N   UNL     1      34.785 -19.768 -20.077  0.00  0.00    -0.297 N 
ATOM      9  C   UNL     1      35.437 -18.542 -20.249  0.00  0.00    +0.249 C 
ATOM     10  H   UNL     1      33.926 -19.908 -20.538  0.00  0.00    +0.150 HD
BRANCH   8  11
ATOM     11  C   UNL     1      35.305 -20.839 -19.258  0.00  0.00    +0.117 C 
BRANCH  11  12
ATOM     12  C   UNL     1      34.271 -21.378 -18.314  0.00  0.00    -0.003 C 
ATOM     13  C   UNL     1      34.661 -21.925 -17.091  0.00  0.00    -0.003 C 
ATOM     14  C   UNL     1      32.920 -21.332 -18.657  0.00  0.00    -0.003 C 
ATOM     15  C   UNL     1      32.350 -22.379 -16.556  0.00  0.00    +0.071 C 
ATOM     16  C   UNL     1      33.701 -22.426 -16.212  0.00  0.00    +0.004 C 
ATOM     17  C   UNL     1      31.960 -21.832 -17.778  0.00  0.00    +0.004 C 
BRANCH  15  21
ATOM     18  F   UNL     1      30.239 -22.090 -15.500  0.00  0.00    -0.166 F 
ATOM     19  F   UNL     1      30.822 -24.128 -15.983  0.00  0.00    -0.166 F 
ATOM     20  F   UNL     1      31.785 -23.088 -14.342  0.00  0.00    -0.166 F 
ATOM     21  C   UNL     1      31.323 -22.912 -15.615  0.00  0.00    +0.419 C 
ENDBRANCH  15  21
ENDBRANCH  11  12
ENDBRANCH   8  11
ENDBRANCH   3   9
BRANCH   5  22
ATOM     22  O   UNL     1      34.732 -19.057 -22.954  0.00  0.00    -0.471 OA
ATOM     23  C   UNL     1      33.760 -19.622 -23.832  0.00  0.00    +0.252 C 
ENDBRANCH   5  22
BRANCH   1  24
ATOM     24  C   UNL     1      33.507 -13.987 -20.753  0.00  0.00    +0.080 C 
BRANCH  24  29
ATOM     25  O   UNL     1      32.129 -12.252 -21.714  0.00  0.00    -0.428 OA
ATOM     26  O   UNL     1      30.995 -14.161 -19.019  0.00  0.00    -0.271 OA
ATOM     27  O   UNL     1      31.258 -10.188 -21.259  0.00  0.00    -0.226 OA
ATOM     28  N   UNL     1      30.897 -12.008 -19.882  0.00  0.00    -0.218 N 
ATOM     29  C   UNL     1      32.098 -13.547 -21.092  0.00  0.00    +0.250 C 
ATOM     30  C   UNL     1      31.266 -13.320 -19.862  0.00  0.00    +0.271 C 
ATOM     31  C   UNL     1      31.404 -11.366 -20.966  0.00  0.00    +0.408 C 
ATOM     32  H   UNL     1      30.334 -11.579 -19.198  0.00  0.00    +0.161 HD
ENDBRANCH  24  29
ENDBRANCH   1  24
TORSDOF 7
ENDMDL
MODEL 8
REMARK VINA RESULT:     -10.9      5.529     10.030
REMARK  Name = 56842109
REMARK  7 active torsions:
REMARK  status: ('A' for Active; 'I' for Inactive)
REMARK    1  A    between atoms: C_1  and  C_24
REMARK    2  A    between atoms: C_3  and  C_9
REMARK    3  A    between atoms: C_5  and  O_22
REMARK    4  A    between atoms: N_8  and  C_11
REMARK    5  A    between atoms: C_11  and  C_12
REMARK    6  A    between atoms: C_15  and  C_21
REMARK    7  A    between atoms: C_24  and  C_29
REMARK                            x       y       z     vdW  Elec       q    Type
REMARK                         _______ _______ _______ _____ _____    ______ ____
ROOT
ATOM      1  C   UNL     1      34.258 -18.325 -22.131  0.00  0.00    -0.018 C 
ATOM      2  C   UNL     1      33.333 -19.059 -21.388  0.00  0.00    +0.003 C 
ATOM      3  C   UNL     1      33.748 -19.758 -20.254  0.00  0.00    +0.087 C 
ATOM      4  C   UNL     1      35.596 -18.290 -21.740  0.00  0.00    -0.001 C 
ATOM      5  C   UNL     1      35.085 -19.723 -19.863  0.00  0.00    +0.143 C 
ATOM      6  C   UNL     1      36.010 -18.990 -20.607  0.00  0.00    +0.037 C 
ENDROOT
BRANCH   3   9
ATOM      7  O   UNL     1      31.552 -20.386 -19.723  0.00  0.00    -0.270 OA
ATOM      8  N   UNL     1      33.258 -21.396 -18.521  0.00  0.00    -0.297 N 
ATOM      9  C   UNL     1      32.765 -20.516 -19.491  0.00  0.00    +0.249 C 
ATOM     10  H   UNL     1      34.232 -21.448 -18.390  0.00  0.00    +0.150 HD
BRANCH   8  11
ATOM     11  C   UNL     1      32.412 -22.232 -17.700  0.00  0.00    +0.117 C 
BRANCH  11  12
ATOM     12  C   UNL     1      33.073 -22.600 -16.404  0.00  0.00    -0.003 C 
ATOM     13  C   UNL     1      34.435 -22.360 -16.223  0.00  0.00    -0.003 C 
ATOM     14  C   UNL     1      32.326 -23.183 -15.380  0.00  0.00    -0.003 C 
ATOM     15  C   UNL     1      34.303 -23.283 -13.996  0.00  0.00    +0.071 C 
ATOM     16  C   UNL     1      35.051 -22.701 -15.019  0.00  0.00    +0.004 C 
ATOM     17  C   UNL     1      32.941 -23.525 -14.176  0.00  0.00    +0.004 C 
BRANCH  15  21
ATOM     18  F   UNL     1      35.334 -22.551 -11.982  0.00  0.00    -0.166 F 
ATOM     19  F   UNL     1      34.165 -24.382 -11.875  0.00  0.00    -0.166 F 
ATOM     20  F   UNL     1      36.096 -24.388 -12.861  0.00  0.00    -0.166 F 
ATOM     21  C   UNL     1      34.960 -23.646 -12.707  0.00  0.00    +0.419 C 
ENDBRANCH  15  21
ENDBRANCH  11  12
ENDBRANCH   8  11
ENDBRANCH   3   9
BRANCH   5  22
ATOM     22  O   UNL     1      35.509 -20.397 -18.757  0.00  0.00    -0.471 OA
ATOM     23  C   UNL     1      36.539 -19.786 -17.982  0.00  0.00    +0.252 C 
ENDBRANCH   5  22
BRANCH   1  24
ATOM     24  C   UNL     1      33.809 -17.568 -23.357  0.00  0.00    +0.080 C 
BRANCH  24  29
ATOM     25  O   UNL     1      34.180 -15.624 -21.973  0.00  0.00    -0.428 OA
ATOM     26  O   UNL     1      33.021 -15.302 -25.251  0.00  0.00    -0.271 OA
ATOM     27  O   UNL     1      33.065 -13.948 -20.888  0.00  0.00    -0.226 OA
ATOM     28  N   UNL     1      32.804 -14.338 -23.151  0.00  0.00    -0.218 N 
ATOM     29  C   UNL     1      34.245 -16.118 -23.321  0.00  0.00    +0.250 C 
ATOM     30  C   UNL     1      33.293 -15.224 -24.064  0.00  0.00    +0.271 C 
ATOM     31  C   UNL     1      33.315 -14.566 -21.913  0.00  0.00    +0.408 C 
ATOM     32  H   UNL     1      32.161 -13.622 -23.361  0.00  0.00    +0.161 HD
ENDBRANCH  24  29
ENDBRANCH   1  24
TORSDOF 7
ENDMDL
MODEL 9
REMARK VINA RESULT:     -10.8      9.759     13.191
REMARK  Name = 56842109
REMARK  7 active torsions:
REMARK  status: ('A' for Active; 'I' for Inactive)
REMARK    1  A    between atoms: C_1  and  C_24
REMARK    2  A    between atoms: C_3  and  C_9
REMARK    3  A    between atoms: C_5  and  O_22
REMARK    4  A    between atoms: N_8  and  C_11
REMARK    5  A    between atoms: C_11  and  C_12
REMARK    6  A    between atoms: C_15  and  C_21
REMARK    7  A    between atoms: C_24  and  C_29
REMARK                            x       y       z     vdW  Elec       q    Type
REMARK                         _______ _______ _______ _____ _____    ______ ____
ROOT
ATOM      1  C   UNL     1      33.761 -14.806 -21.963  0.00  0.00    -0.018 C 
ATOM      2  C   UNL     1      33.830 -13.812 -22.940  0.00  0.00    +0.003 C 
ATOM      3  C   UNL     1      33.132 -12.617 -22.768  0.00  0.00    +0.087 C 
ATOM      4  C   UNL     1      32.995 -14.604 -20.815  0.00  0.00    -0.001 C 
ATOM      5  C   UNL     1      32.366 -12.414 -21.621  0.00  0.00    +0.143 C 
ATOM      6  C   UNL     1      32.298 -13.408 -20.644  0.00  0.00    +0.037 C 
ENDROOT
BRANCH   3   9
ATOM      7  O   UNL     1      32.680 -11.765 -24.905  0.00  0.00    -0.270 OA
ATOM      8  N   UNL     1      33.909 -10.419 -23.471  0.00  0.00    -0.297 N 
ATOM      9  C   UNL     1      33.219 -11.591 -23.799  0.00  0.00    +0.249 C 
ATOM     10  H   UNL     1      34.313 -10.351 -22.576  0.00  0.00    +0.150 HD
BRANCH   8  11
ATOM     11  C   UNL     1      34.062  -9.304 -24.377  0.00  0.00    +0.117 C 
BRANCH  11  12
ATOM     12  C   UNL     1      33.308  -8.093 -23.910  0.00  0.00    -0.003 C 
ATOM     13  C   UNL     1      31.925  -8.026 -24.077  0.00  0.00    -0.003 C 
ATOM     14  C   UNL     1      33.990  -7.035 -23.309  0.00  0.00    -0.003 C 
ATOM     15  C   UNL     1      31.905  -5.844 -23.042  0.00  0.00    +0.071 C 
ATOM     16  C   UNL     1      31.223  -6.901 -23.644  0.00  0.00    +0.004 C 
ATOM     17  C   UNL     1      33.289  -5.911 -22.876  0.00  0.00    +0.004 C 
BRANCH  15  21
ATOM     18  F   UNL     1      31.568  -3.495 -23.189  0.00  0.00    -0.166 F 
ATOM     19  F   UNL     1      29.810  -4.715 -22.803  0.00  0.00    -0.166 F 
ATOM     20  F   UNL     1      31.278  -4.406 -21.236  0.00  0.00    -0.166 F 
ATOM     21  C   UNL     1      31.155  -4.642 -22.576  0.00  0.00    +0.419 C 
ENDBRANCH  15  21
ENDBRANCH  11  12
ENDBRANCH   8  11
ENDBRANCH   3   9
BRANCH   5  22
ATOM     22  O   UNL     1      31.680 -11.251 -21.433  0.00  0.00    -0.471 OA
ATOM     23  C   UNL     1      30.782 -11.201 -20.326  0.00  0.00    +0.252 C 
ENDBRANCH   5  22
BRANCH   1  24
ATOM     24  C   UNL     1      34.516 -16.099 -22.148  0.00  0.00    +0.080 C 
BRANCH  24  29
ATOM     25  O   UNL     1      34.880 -17.548 -20.251  0.00  0.00    -0.428 OA
ATOM     26  O   UNL     1      33.136 -18.670 -23.060  0.00  0.00    -0.271 OA
ATOM     27  O   UNL     1      36.032 -19.414 -19.606  0.00  0.00    -0.226 OA
ATOM     28  N   UNL     1      34.616 -19.410 -21.431  0.00  0.00    -0.218 N 
ATOM     29  C   UNL     1      33.951 -17.215 -21.296  0.00  0.00    +0.250 C 
ATOM     30  C   UNL     1      33.821 -18.501 -22.063  0.00  0.00    +0.271 C 
ATOM     31  C   UNL     1      35.250 -18.859 -20.364  0.00  0.00    +0.408 C 
ATOM     32  H   UNL     1      34.718 -20.348 -21.712  0.00  0.00    +0.161 HD
ENDBRANCH  24  29
ENDBRANCH   1  24
TORSDOF 7
ENDMDL
