MODEL 1
REMARK VINA RESULT:     -12.2      0.000      0.000
REMARK  Name = 10297043
REMARK  6 active torsions:
REMARK  status: ('A' for Active; 'I' for Inactive)
REMARK    1  A    between atoms: N_2  and  C_30
REMARK    2  A    between atoms: C_5  and  C_16
REMARK    3  A    between atoms: C_13  and  C_19
REMARK    4  A    between atoms: C_19  and  N_20
REMARK    5  A    between atoms: N_21  and  C_28
REMARK    6  A    between atoms: C_30  and  C_32
REMARK                            x       y       z     vdW  Elec       q    Type
REMARK                         _______ _______ _______ _____ _____    ______ ____
ROOT
ATOM      1  N   UNL     1      31.531 -21.676 -17.740  0.00  0.00    -0.301 N 
ATOM      2  N   UNL     1      34.074 -23.784 -14.446  0.00  0.00    -0.319 N 
ATOM      3  N   UNL     1      30.273 -22.829 -16.037  0.00  0.00    -0.233 NA
ATOM      4  N   UNL     1      31.690 -23.894 -14.368  0.00  0.00    -0.233 NA
ATOM      5  C   UNL     1      32.854 -21.456 -18.025  0.00  0.00    +0.046 C 
ATOM      6  C   UNL     1      32.711 -22.697 -16.146  0.00  0.00    +0.131 C 
ATOM      7  C   UNL     1      33.609 -22.078 -17.052  0.00  0.00    +0.003 C 
ATOM      8  C   UNL     1      31.426 -22.429 -16.601  0.00  0.00    +0.117 C 
ATOM      9  C   UNL     1      32.815 -23.461 -14.984  0.00  0.00    +0.113 C 
ATOM     10  C   UNL     1      30.505 -23.557 -14.925  0.00  0.00    +0.252 C 
ATOM     11  H   UNL     1      30.773 -21.343 -18.274  0.00  0.00    +0.153 HD
ATOM     12  H   UNL     1      34.880 -23.459 -14.909  0.00  0.00    +0.148 HD
ENDROOT
BRANCH   5  16
ATOM     13  C   UNL     1      34.080 -19.219 -21.388  0.00  0.00    -0.043 C 
ATOM     14  C   UNL     1      35.037 -19.787 -20.554  0.00  0.00    -0.006 C 
ATOM     15  C   UNL     1      32.725 -19.379 -21.127  0.00  0.00    -0.006 C 
ATOM     16  C   UNL     1      33.273 -20.692 -19.174  0.00  0.00    +0.013 C 
ATOM     17  C   UNL     1      34.631 -20.527 -19.444  0.00  0.00    +0.001 C 
ATOM     18  C   UNL     1      32.320 -20.118 -20.016  0.00  0.00    +0.001 C 
BRANCH  13  19
ATOM     19  C   UNL     1      34.517 -18.422 -22.584  0.00  0.00    -0.050 C 
BRANCH  19  20
ATOM     20  N   UNL     1      33.832 -17.133 -22.662  0.00  0.00    +0.387 N 
ATOM     21  N   UNL     1      33.765 -14.274 -23.085  0.00  0.00    +0.384 N 
ATOM     22  C   UNL     1      34.361 -16.201 -21.657  0.00  0.00    -0.100 C 
ATOM     23  C   UNL     1      33.950 -16.559 -24.007  0.00  0.00    -0.100 C 
ATOM     24  C   UNL     1      33.647 -14.848 -21.739  0.00  0.00    -0.101 C 
ATOM     25  C   UNL     1      33.235 -15.206 -24.087  0.00  0.00    -0.101 C 
ATOM     26  H   UNL     1      32.843 -17.290 -22.465  0.00  0.00    -0.079 HD
ATOM     27  H   UNL     1      34.755 -14.119 -23.282  0.00  0.00    -0.080 HD
BRANCH  21  28
ATOM     28  C   UNL     1      33.083 -12.984 -23.162  0.00  0.00    -0.078 C 
ATOM     29  C   UNL     1      32.180 -12.768 -21.959  0.00  0.00    -0.025 C 
ENDBRANCH  21  28
ENDBRANCH  19  20
ENDBRANCH  13  19
ENDBRANCH   5  16
BRANCH   2  30
ATOM     30  C   UNL     1      34.238 -24.564 -13.256  0.00  0.00    +0.093 C 
ATOM     31  C   UNL     1      33.618 -23.818 -12.078  0.00  0.00    +0.026 C 
BRANCH  30  32
ATOM     32  C   UNL     1      35.699 -24.899 -13.046  0.00  0.00    -0.005 C 
ATOM     33  C   UNL     1      36.153 -25.163 -11.765  0.00  0.00    -0.003 C 
ATOM     34  C   UNL     1      36.549 -24.932 -14.137  0.00  0.00    -0.003 C 
ATOM     35  C   UNL     1      37.499 -25.471 -11.570  0.00  0.00    -0.000 C 
ATOM     36  C   UNL     1      37.895 -25.240 -13.942  0.00  0.00    -0.000 C 
ATOM     37  C   UNL     1      38.370 -25.509 -12.659  0.00  0.00    -0.000 C 
ENDBRANCH  30  32
ENDBRANCH   2  30
TORSDOF 6
ENDMDL
MODEL 2
REMARK VINA RESULT:     -12.2      3.127     12.803
REMARK  Name = 10297043
REMARK  6 active torsions:
REMARK  status: ('A' for Active; 'I' for Inactive)
REMARK    1  A    between atoms: N_2  and  C_30
REMARK    2  A    between atoms: C_5  and  C_16
REMARK    3  A    between atoms: C_13  and  C_19
REMARK    4  A    between atoms: C_19  and  N_20
REMARK    5  A    between atoms: N_21  and  C_28
REMARK    6  A    between atoms: C_30  and  C_32
REMARK                            x       y       z     vdW  Elec       q    Type
REMARK                         _______ _______ _______ _____ _____    ______ ____
ROOT
ATOM      1  N   UNL     1      32.969 -15.479 -24.264  0.00  0.00    -0.301 N 
ATOM      2  N   UNL     1      33.393 -10.954 -23.209  0.00  0.00    -0.319 N 
ATOM      3  N   UNL     1      32.055 -13.945 -25.884  0.00  0.00    -0.233 NA
ATOM      4  N   UNL     1      32.326 -11.612 -25.241  0.00  0.00    -0.233 NA
ATOM      5  C   UNL     1      33.612 -15.386 -23.056  0.00  0.00    +0.046 C 
ATOM      6  C   UNL     1      33.152 -13.305 -23.796  0.00  0.00    +0.131 C 
ATOM      7  C   UNL     1      33.739 -14.050 -22.741  0.00  0.00    +0.003 C 
ATOM      8  C   UNL     1      32.681 -14.222 -24.728  0.00  0.00    +0.117 C 
ATOM      9  C   UNL     1      32.952 -11.957 -24.091  0.00  0.00    +0.113 C 
ATOM     10  C   UNL     1      31.921 -12.613 -26.055  0.00  0.00    +0.252 C 
ATOM     11  H   UNL     1      32.748 -16.319 -24.726  0.00  0.00    +0.153 HD
ATOM     12  H   UNL     1      33.845 -11.226 -22.378  0.00  0.00    +0.148 HD
ENDROOT
BRANCH   5  16
ATOM     13  C   UNL     1      34.852 -18.807 -20.915  0.00  0.00    -0.043 C 
ATOM     14  C   UNL     1      34.488 -18.927 -22.251  0.00  0.00    -0.006 C 
ATOM     15  C   UNL     1      34.812 -17.574 -20.276  0.00  0.00    -0.006 C 
ATOM     16  C   UNL     1      34.036 -16.554 -22.325  0.00  0.00    +0.013 C 
ATOM     17  C   UNL     1      34.079 -17.796 -22.959  0.00  0.00    +0.001 C 
ATOM     18  C   UNL     1      34.402 -16.443 -20.984  0.00  0.00    +0.001 C 
BRANCH  13  19
ATOM     19  C   UNL     1      35.292 -20.024 -20.153  0.00  0.00    -0.050 C 
BRANCH  19  20
ATOM     20  N   UNL     1      34.346 -20.379 -19.098  0.00  0.00    +0.387 N 
ATOM     21  N   UNL     1      32.457 -22.161 -17.827  0.00  0.00    +0.384 N 
ATOM     22  C   UNL     1      33.002 -20.587 -19.652  0.00  0.00    -0.100 C 
ATOM     23  C   UNL     1      34.794 -21.577 -18.377  0.00  0.00    -0.100 C 
ATOM     24  C   UNL     1      32.008 -20.964 -18.548  0.00  0.00    -0.101 C 
ATOM     25  C   UNL     1      33.800 -21.952 -17.273  0.00  0.00    -0.101 C 
ATOM     26  H   UNL     1      34.305 -19.603 -18.437  0.00  0.00    -0.079 HD
ATOM     27  H   UNL     1      32.500 -22.938 -18.488  0.00  0.00    -0.080 HD
BRANCH  21  28
ATOM     28  C   UNL     1      31.510 -22.519 -16.773  0.00  0.00    -0.078 C 
ATOM     29  C   UNL     1      32.229 -23.059 -15.549  0.00  0.00    -0.025 C 
ENDBRANCH  21  28
ENDBRANCH  19  20
ENDBRANCH  13  19
ENDBRANCH   5  16
BRANCH   2  30
ATOM     30  C   UNL     1      33.213  -9.556 -23.462  0.00  0.00    +0.093 C 
ATOM     31  C   UNL     1      34.575  -8.914 -23.717  0.00  0.00    +0.026 C 
BRANCH  30  32
ATOM     32  C   UNL     1      32.455  -8.910 -22.323  0.00  0.00    -0.005 C 
ATOM     33  C   UNL     1      32.782  -7.620 -21.940  0.00  0.00    -0.003 C 
ATOM     34  C   UNL     1      31.453  -9.621 -21.687  0.00  0.00    -0.003 C 
ATOM     35  C   UNL     1      32.085  -7.024 -20.890  0.00  0.00    -0.000 C 
ATOM     36  C   UNL     1      30.755  -9.025 -20.637  0.00  0.00    -0.000 C 
ATOM     37  C   UNL     1      31.071  -7.727 -20.238  0.00  0.00    -0.000 C 
ENDBRANCH  30  32
ENDBRANCH   2  30
TORSDOF 6
ENDMDL
MODEL 3
REMARK VINA RESULT:     -11.5      2.502     12.001
REMARK  Name = 10297043
REMARK  6 active torsions:
REMARK  status: ('A' for Active; 'I' for Inactive)
REMARK    1  A    between atoms: N_2  and  C_30
REMARK    2  A    between atoms: C_5  and  C_16
REMARK    3  A    between atoms: C_13  and  C_19
REMARK    4  A    between atoms: C_19  and  N_20
REMARK    5  A    between atoms: N_21  and  C_28
REMARK    6  A    between atoms: C_30  and  C_32
REMARK                            x       y       z     vdW  Elec       q    Type
REMARK                         _______ _______ _______ _____ _____    ______ ____
ROOT
ATOM      1  N   UNL     1      33.744 -16.896 -23.496  0.00  0.00    -0.301 N 
ATOM      2  N   UNL     1      32.715 -12.504 -22.305  0.00  0.00    -0.319 N 
ATOM      3  N   UNL     1      33.011 -15.475 -25.301  0.00  0.00    -0.233 NA
ATOM      4  N   UNL     1      32.500 -13.207 -24.577  0.00  0.00    -0.233 NA
ATOM      5  C   UNL     1      33.953 -16.765 -22.147  0.00  0.00    +0.046 C 
ATOM      6  C   UNL     1      33.242 -14.787 -22.968  0.00  0.00    +0.131 C 
ATOM      7  C   UNL     1      33.650 -15.467 -21.792  0.00  0.00    +0.003 C 
ATOM      8  C   UNL     1      33.311 -15.703 -24.010  0.00  0.00    +0.117 C 
ATOM      9  C   UNL     1      32.817 -13.500 -23.294  0.00  0.00    +0.113 C 
ATOM     10  C   UNL     1      32.614 -14.200 -25.488  0.00  0.00    +0.252 C 
ATOM     11  H   UNL     1      33.884 -17.721 -24.014  0.00  0.00    +0.153 HD
ATOM     12  H   UNL     1      32.950 -12.737 -21.378  0.00  0.00    +0.148 HD
ENDROOT
BRANCH   5  16
ATOM     13  C   UNL     1      35.294 -19.985 -19.768  0.00  0.00    -0.043 C 
ATOM     14  C   UNL     1      36.191 -18.995 -20.154  0.00  0.00    -0.006 C 
ATOM     15  C   UNL     1      33.961 -19.927 -20.157  0.00  0.00    -0.006 C 
ATOM     16  C   UNL     1      34.411 -17.865 -21.334  0.00  0.00    +0.013 C 
ATOM     17  C   UNL     1      35.747 -17.931 -20.939  0.00  0.00    +0.001 C 
ATOM     18  C   UNL     1      33.518 -18.863 -20.943  0.00  0.00    +0.001 C 
BRANCH  13  19
ATOM     19  C   UNL     1      35.771 -21.131 -18.923  0.00  0.00    -0.050 C 
BRANCH  19  20
ATOM     20  N   UNL     1      34.962 -21.294 -17.717  0.00  0.00    +0.387 N 
ATOM     21  N   UNL     1      33.850 -22.858 -15.555  0.00  0.00    +0.384 N 
ATOM     22  C   UNL     1      33.868 -22.246 -17.949  0.00  0.00    -0.100 C 
ATOM     23  C   UNL     1      35.791 -21.730 -16.587  0.00  0.00    -0.100 C 
ATOM     24  C   UNL     1      33.020 -22.422 -16.685  0.00  0.00    -0.101 C 
ATOM     25  C   UNL     1      34.941 -21.905 -15.323  0.00  0.00    -0.101 C 
ATOM     26  H   UNL     1      34.555 -20.387 -17.486  0.00  0.00    -0.079 HD
ATOM     27  H   UNL     1      34.258 -23.764 -15.786  0.00  0.00    -0.080 HD
BRANCH  21  28
ATOM     28  C   UNL     1      33.040 -23.024 -14.350  0.00  0.00    -0.078 C 
ATOM     29  C   UNL     1      31.581 -23.263 -14.697  0.00  0.00    -0.025 C 
ENDBRANCH  21  28
ENDBRANCH  19  20
ENDBRANCH  13  19
ENDBRANCH   5  16
BRANCH   2  30
ATOM     30  C   UNL     1      32.284 -11.168 -22.585  0.00  0.00    +0.093 C 
ATOM     31  C   UNL     1      33.475 -10.349 -23.076  0.00  0.00    +0.026 C 
BRANCH  30  32
ATOM     32  C   UNL     1      31.612 -10.568 -21.369  0.00  0.00    -0.005 C 
ATOM     33  C   UNL     1      31.286 -11.390 -20.303  0.00  0.00    -0.003 C 
ATOM     34  C   UNL     1      31.337  -9.212 -21.347  0.00  0.00    -0.003 C 
ATOM     35  C   UNL     1      30.667 -10.838 -19.182  0.00  0.00    -0.000 C 
ATOM     36  C   UNL     1      30.717  -8.660 -20.227  0.00  0.00    -0.000 C 
ATOM     37  C   UNL     1      30.382  -9.472 -19.144  0.00  0.00    -0.000 C 
ENDBRANCH  30  32
ENDBRANCH   2  30
TORSDOF 6
ENDMDL
MODEL 4
REMARK VINA RESULT:     -11.1      1.958      4.155
REMARK  Name = 10297043
REMARK  6 active torsions:
REMARK  status: ('A' for Active; 'I' for Inactive)
REMARK    1  A    between atoms: N_2  and  C_30
REMARK    2  A    between atoms: C_5  and  C_16
REMARK    3  A    between atoms: C_13  and  C_19
REMARK    4  A    between atoms: C_19  and  N_20
REMARK    5  A    between atoms: N_21  and  C_28
REMARK    6  A    between atoms: C_30  and  C_32
REMARK                            x       y       z     vdW  Elec       q    Type
REMARK                         _______ _______ _______ _____ _____    ______ ____
ROOT
ATOM      1  N   UNL     1      36.070 -20.853 -17.970  0.00  0.00    -0.301 N 
ATOM      2  N   UNL     1      32.837 -22.889 -15.292  0.00  0.00    -0.319 N 
ATOM      3  N   UNL     1      36.902 -21.960 -15.996  0.00  0.00    -0.233 NA
ATOM      4  N   UNL     1      35.139 -22.989 -14.669  0.00  0.00    -0.233 NA
ATOM      5  C   UNL     1      34.847 -20.645 -18.554  0.00  0.00    +0.046 C 
ATOM      6  C   UNL     1      34.554 -21.840 -16.662  0.00  0.00    +0.131 C 
ATOM      7  C   UNL     1      33.888 -21.246 -17.765  0.00  0.00    +0.003 C 
ATOM      8  C   UNL     1      35.910 -21.578 -16.818  0.00  0.00    +0.117 C 
ATOM      9  C   UNL     1      34.186 -22.574 -15.536  0.00  0.00    +0.113 C 
ATOM     10  C   UNL     1      36.421 -22.660 -14.949  0.00  0.00    +0.252 C 
ATOM     11  H   UNL     1      36.930 -20.531 -18.324  0.00  0.00    +0.153 HD
ATOM     12  H   UNL     1      32.158 -22.578 -15.935  0.00  0.00    +0.148 HD
ENDROOT
BRANCH   5  16
ATOM     13  C   UNL     1      34.427 -18.479 -22.154  0.00  0.00    -0.043 C 
ATOM     14  C   UNL     1      35.673 -18.563 -21.543  0.00  0.00    -0.006 C 
ATOM     15  C   UNL     1      33.318 -19.100 -21.593  0.00  0.00    -0.006 C 
ATOM     16  C   UNL     1      34.703 -19.905 -19.784  0.00  0.00    +0.013 C 
ATOM     17  C   UNL     1      35.811 -19.279 -20.354  0.00  0.00    +0.001 C 
ATOM     18  C   UNL     1      33.457 -19.816 -20.404  0.00  0.00    +0.001 C 
BRANCH  13  19
ATOM     19  C   UNL     1      34.278 -17.708 -23.434  0.00  0.00    -0.050 C 
BRANCH  19  20
ATOM     20  N   UNL     1      33.582 -16.440 -23.229  0.00  0.00    +0.387 N 
ATOM     21  N   UNL     1      33.444 -13.552 -23.216  0.00  0.00    +0.384 N 
ATOM     22  C   UNL     1      34.238 -15.649 -22.179  0.00  0.00    -0.100 C 
ATOM     23  C   UNL     1      33.514 -15.674 -24.480  0.00  0.00    -0.100 C 
ATOM     24  C   UNL     1      33.512 -14.317 -21.965  0.00  0.00    -0.101 C 
ATOM     25  C   UNL     1      32.787 -14.342 -24.264  0.00  0.00    -0.101 C 
ATOM     26  H   UNL     1      32.630 -16.648 -22.927  0.00  0.00    -0.079 HD
ATOM     27  H   UNL     1      34.396 -13.345 -23.519  0.00  0.00    -0.080 HD
BRANCH  21  28
ATOM     28  C   UNL     1      32.750 -12.282 -23.011  0.00  0.00    -0.078 C 
ATOM     29  C   UNL     1      33.396 -11.167 -23.815  0.00  0.00    -0.025 C 
ENDBRANCH  21  28
ENDBRANCH  19  20
ENDBRANCH  13  19
ENDBRANCH   5  16
BRANCH   2  30
ATOM     30  C   UNL     1      32.403 -23.639 -14.152  0.00  0.00    +0.093 C 
ATOM     31  C   UNL     1      33.209 -24.933 -14.068  0.00  0.00    +0.026 C 
BRANCH  30  32
ATOM     32  C   UNL     1      30.909 -23.873 -14.215  0.00  0.00    -0.005 C 
ATOM     33  C   UNL     1      30.337 -24.815 -13.378  0.00  0.00    -0.003 C 
ATOM     34  C   UNL     1      30.147 -23.140 -15.108  0.00  0.00    -0.003 C 
ATOM     35  C   UNL     1      28.961 -25.031 -13.435  0.00  0.00    -0.000 C 
ATOM     36  C   UNL     1      28.770 -23.356 -15.166  0.00  0.00    -0.000 C 
ATOM     37  C   UNL     1      28.177 -24.301 -14.330  0.00  0.00    -0.000 C 
ENDBRANCH  30  32
ENDBRANCH   2  30
TORSDOF 6
ENDMDL
MODEL 5
REMARK VINA RESULT:     -10.7      4.890     14.843
REMARK  Name = 10297043
REMARK  6 active torsions:
REMARK  status: ('A' for Active; 'I' for Inactive)
REMARK    1  A    between atoms: N_2  and  C_30
REMARK    2  A    between atoms: C_5  and  C_16
REMARK    3  A    between atoms: C_13  and  C_19
REMARK    4  A    between atoms: C_19  and  N_20
REMARK    5  A    between atoms: N_21  and  C_28
REMARK    6  A    between atoms: C_30  and  C_32
REMARK                            x       y       z     vdW  Elec       q    Type
REMARK                         _______ _______ _______ _____ _____    ______ ____
ROOT
ATOM      1  N   UNL     1      31.808 -11.332 -21.407  0.00  0.00    -0.301 N 
ATOM      2  N   UNL     1      32.389  -7.683 -24.255  0.00  0.00    -0.319 N 
ATOM      3  N   UNL     1      30.842  -9.258 -20.647  0.00  0.00    -0.233 NA
ATOM      4  N   UNL     1      31.200  -7.418 -22.202  0.00  0.00    -0.233 NA
ATOM      5  C   UNL     1      32.518 -11.759 -22.499  0.00  0.00    +0.046 C 
ATOM      6  C   UNL     1      32.064  -9.562 -22.741  0.00  0.00    +0.131 C 
ATOM      7  C   UNL     1      32.691 -10.683 -23.344  0.00  0.00    +0.003 C 
ATOM      8  C   UNL     1      31.525  -9.998 -21.537  0.00  0.00    +0.117 C 
ATOM      9  C   UNL     1      31.879  -8.217 -23.058  0.00  0.00    +0.113 C 
ATOM     10  C   UNL     1      30.730  -7.980 -21.065  0.00  0.00    +0.252 C 
ATOM     11  H   UNL     1      31.543 -11.897 -20.645  0.00  0.00    +0.153 HD
ATOM     12  H   UNL     1      32.881  -8.281 -24.864  0.00  0.00    +0.148 HD
ENDROOT
BRANCH   5  16
ATOM     13  C   UNL     1      33.813 -15.757 -22.902  0.00  0.00    -0.043 C 
ATOM     14  C   UNL     1      33.900 -15.128 -21.666  0.00  0.00    -0.006 C 
ATOM     15  C   UNL     1      33.305 -15.085 -24.007  0.00  0.00    -0.006 C 
ATOM     16  C   UNL     1      32.960 -13.125 -22.637  0.00  0.00    +0.013 C 
ATOM     17  C   UNL     1      33.471 -13.807 -21.533  0.00  0.00    +0.001 C 
ATOM     18  C   UNL     1      32.877 -13.765 -23.874  0.00  0.00    +0.001 C 
BRANCH  13  19
ATOM     19  C   UNL     1      34.275 -17.179 -23.046  0.00  0.00    -0.050 C 
BRANCH  19  20
ATOM     20  N   UNL     1      34.439 -17.833 -21.749  0.00  0.00    +0.387 N 
ATOM     21  N   UNL     1      35.121 -20.086 -20.070  0.00  0.00    +0.384 N 
ATOM     22  C   UNL     1      33.550 -18.997 -21.636  0.00  0.00    -0.100 C 
ATOM     23  C   UNL     1      35.836 -18.233 -21.540  0.00  0.00    -0.100 C 
ATOM     24  C   UNL     1      33.724 -19.687 -20.279  0.00  0.00    -0.101 C 
ATOM     25  C   UNL     1      36.008 -18.922 -20.181  0.00  0.00    -0.101 C 
ATOM     26  H   UNL     1      34.184 -17.163 -21.024  0.00  0.00    -0.079 HD
ATOM     27  H   UNL     1      35.377 -20.755 -20.797  0.00  0.00    -0.080 HD
BRANCH  21  28
ATOM     28  C   UNL     1      35.285 -20.742 -18.775  0.00  0.00    -0.078 C 
ATOM     29  C   UNL     1      34.090 -21.621 -18.449  0.00  0.00    -0.025 C 
ENDBRANCH  21  28
ENDBRANCH  19  20
ENDBRANCH  13  19
ENDBRANCH   5  16
BRANCH   2  30
ATOM     30  C   UNL     1      32.229  -6.310 -24.629  0.00  0.00    +0.093 C 
ATOM     31  C   UNL     1      30.878  -6.134 -25.320  0.00  0.00    +0.026 C 
BRANCH  30  32
ATOM     32  C   UNL     1      33.395  -5.858 -25.480  0.00  0.00    -0.005 C 
ATOM     33  C   UNL     1      33.724  -6.582 -26.614  0.00  0.00    -0.003 C 
ATOM     34  C   UNL     1      34.109  -4.733 -25.108  0.00  0.00    -0.003 C 
ATOM     35  C   UNL     1      34.799  -6.166 -27.399  0.00  0.00    -0.000 C 
ATOM     36  C   UNL     1      35.184  -4.317 -25.892  0.00  0.00    -0.000 C 
ATOM     37  C   UNL     1      35.529  -5.034 -27.038  0.00  0.00    -0.000 C 
ENDBRANCH  30  32
ENDBRANCH   2  30
TORSDOF 6
ENDMDL
MODEL 6
REMARK VINA RESULT:     -10.5      1.322      2.112
REMARK  Name = 10297043
REMARK  6 active torsions:
REMARK  status: ('A' for Active; 'I' for Inactive)
REMARK    1  A    between atoms: N_2  and  C_30
REMARK    2  A    between atoms: C_5  and  C_16
REMARK    3  A    between atoms: C_13  and  C_19
REMARK    4  A    between atoms: C_19  and  N_20
REMARK    5  A    between atoms: N_21  and  C_28
REMARK    6  A    between atoms: C_30  and  C_32
REMARK                            x       y       z     vdW  Elec       q    Type
REMARK                         _______ _______ _______ _____ _____    ______ ____
ROOT
ATOM      1  N   UNL     1      32.912 -21.786 -17.379  0.00  0.00    -0.301 N 
ATOM      2  N   UNL     1      36.117 -23.934 -14.757  0.00  0.00    -0.319 N 
ATOM      3  N   UNL     1      32.046 -23.142 -15.583  0.00  0.00    -0.233 NA
ATOM      4  N   UNL     1      33.796 -24.218 -14.276  0.00  0.00    -0.233 NA
ATOM      5  C   UNL     1      34.149 -21.454 -17.869  0.00  0.00    +0.046 C 
ATOM      6  C   UNL     1      34.413 -22.830 -16.101  0.00  0.00    +0.131 C 
ATOM      7  C   UNL     1      35.099 -22.087 -17.096  0.00  0.00    +0.003 C 
ATOM      8  C   UNL     1      33.054 -22.623 -16.304  0.00  0.00    +0.117 C 
ATOM      9  C   UNL     1      34.766 -23.664 -15.041  0.00  0.00    +0.113 C 
ATOM     10  C   UNL     1      32.513 -23.927 -14.591  0.00  0.00    +0.252 C 
ATOM     11  H   UNL     1      32.054 -21.471 -17.744  0.00  0.00    +0.153 HD
ATOM     12  H   UNL     1      36.808 -23.522 -15.325  0.00  0.00    +0.148 HD
ENDROOT
BRANCH   5  16
ATOM     13  C   UNL     1      34.624 -18.907 -21.203  0.00  0.00    -0.043 C 
ATOM     14  C   UNL     1      33.360 -19.388 -20.879  0.00  0.00    -0.006 C 
ATOM     15  C   UNL     1      35.733 -19.256 -20.442  0.00  0.00    -0.006 C 
ATOM     16  C   UNL     1      34.311 -20.584 -19.008  0.00  0.00    +0.013 C 
ATOM     17  C   UNL     1      33.204 -20.229 -19.777  0.00  0.00    +0.001 C 
ATOM     18  C   UNL     1      35.576 -20.097 -19.340  0.00  0.00    +0.001 C 
BRANCH  13  19
ATOM     19  C   UNL     1      34.793 -18.002 -22.389  0.00  0.00    -0.050 C 
BRANCH  19  20
ATOM     20  N   UNL     1      33.922 -16.831 -22.311  0.00  0.00    +0.387 N 
ATOM     21  N   UNL     1      33.416 -13.987 -22.424  0.00  0.00    +0.384 N 
ATOM     22  C   UNL     1      34.348 -15.937 -21.226  0.00  0.00    -0.100 C 
ATOM     23  C   UNL     1      33.900 -16.111 -23.590  0.00  0.00    -0.100 C 
ATOM     24  C   UNL     1      33.439 -14.706 -21.145  0.00  0.00    -0.101 C 
ATOM     25  C   UNL     1      32.990 -14.881 -23.507  0.00  0.00    -0.101 C 
ATOM     26  H   UNL     1      32.976 -17.155 -22.108  0.00  0.00    -0.079 HD
ATOM     27  H   UNL     1      34.363 -13.664 -22.628  0.00  0.00    -0.080 HD
BRANCH  21  28
ATOM     28  C   UNL     1      32.547 -12.815 -22.346  0.00  0.00    -0.078 C 
ATOM     29  C   UNL     1      31.741 -12.814 -21.058  0.00  0.00    -0.025 C 
ENDBRANCH  21  28
ENDBRANCH  19  20
ENDBRANCH  13  19
ENDBRANCH   5  16
BRANCH   2  30
ATOM     30  C   UNL     1      36.535 -24.783 -13.681  0.00  0.00    +0.093 C 
ATOM     31  C   UNL     1      35.957 -26.180 -13.892  0.00  0.00    +0.026 C 
BRANCH  30  32
ATOM     32  C   UNL     1      36.147 -24.174 -12.352  0.00  0.00    -0.005 C 
ATOM     33  C   UNL     1      35.300 -24.874 -11.509  0.00  0.00    -0.003 C 
ATOM     34  C   UNL     1      36.646 -22.930 -12.006  0.00  0.00    -0.003 C 
ATOM     35  C   UNL     1      34.942 -24.313 -10.284  0.00  0.00    -0.000 C 
ATOM     36  C   UNL     1      36.288 -22.369 -10.780  0.00  0.00    -0.000 C 
ATOM     37  C   UNL     1      35.436 -23.060  -9.919  0.00  0.00    -0.000 C 
ENDBRANCH  30  32
ENDBRANCH   2  30
TORSDOF 6
ENDMDL
MODEL 7
REMARK VINA RESULT:     -10.1      4.823     14.921
REMARK  Name = 10297043
REMARK  6 active torsions:
REMARK  status: ('A' for Active; 'I' for Inactive)
REMARK    1  A    between atoms: N_2  and  C_30
REMARK    2  A    between atoms: C_5  and  C_16
REMARK    3  A    between atoms: C_13  and  C_19
REMARK    4  A    between atoms: C_19  and  N_20
REMARK    5  A    between atoms: N_21  and  C_28
REMARK    6  A    between atoms: C_30  and  C_32
REMARK                            x       y       z     vdW  Elec       q    Type
REMARK                         _______ _______ _______ _____ _____    ______ ____
ROOT
ATOM      1  N   UNL     1      31.998 -11.324 -21.786  0.00  0.00    -0.301 N 
ATOM      2  N   UNL     1      33.342  -7.781 -24.507  0.00  0.00    -0.319 N 
ATOM      3  N   UNL     1      31.150  -9.155 -21.162  0.00  0.00    -0.233 NA
ATOM      4  N   UNL     1      31.908  -7.377 -22.642  0.00  0.00    -0.233 NA
ATOM      5  C   UNL     1      32.808 -11.832 -22.769  0.00  0.00    +0.046 C 
ATOM      6  C   UNL     1      32.618  -9.602 -23.063  0.00  0.00    +0.131 C 
ATOM      7  C   UNL     1      33.207 -10.787 -23.576  0.00  0.00    +0.003 C 
ATOM      8  C   UNL     1      31.873  -9.970 -21.950  0.00  0.00    +0.117 C 
ATOM      9  C   UNL     1      32.617  -8.249 -23.397  0.00  0.00    +0.113 C 
ATOM     10  C   UNL     1      31.228  -7.877 -21.586  0.00  0.00    +0.252 C 
ATOM     11  H   UNL     1      31.573 -11.852 -21.072  0.00  0.00    +0.153 HD
ATOM     12  H   UNL     1      33.852  -8.431 -25.043  0.00  0.00    +0.148 HD
ENDROOT
BRANCH   5  16
ATOM     13  C   UNL     1      33.736 -15.944 -23.003  0.00  0.00    -0.043 C 
ATOM     14  C   UNL     1      33.904 -15.268 -21.799  0.00  0.00    -0.006 C 
ATOM     15  C   UNL     1      33.267 -15.281 -24.130  0.00  0.00    -0.006 C 
ATOM     16  C   UNL     1      33.125 -13.236 -22.849  0.00  0.00    +0.013 C 
ATOM     17  C   UNL     1      33.596 -13.909 -21.723  0.00  0.00    +0.001 C 
ATOM     18  C   UNL     1      32.960 -13.922 -24.053  0.00  0.00    +0.001 C 
BRANCH  13  19
ATOM     19  C   UNL     1      34.068 -17.406 -23.086  0.00  0.00    -0.050 C 
BRANCH  19  20
ATOM     20  N   UNL     1      34.320 -17.984 -21.768  0.00  0.00    +0.387 N 
ATOM     21  N   UNL     1      35.142 -20.129 -20.012  0.00  0.00    +0.384 N 
ATOM     22  C   UNL     1      33.462 -19.155 -21.539  0.00  0.00    -0.100 C 
ATOM     23  C   UNL     1      35.734 -18.349 -21.620  0.00  0.00    -0.100 C 
ATOM     24  C   UNL     1      33.728 -19.766 -20.160  0.00  0.00    -0.101 C 
ATOM     25  C   UNL     1      35.998 -18.959 -20.239  0.00  0.00    -0.101 C 
ATOM     26  H   UNL     1      34.094 -17.279 -21.066  0.00  0.00    -0.079 HD
ATOM     27  H   UNL     1      35.368 -20.834 -20.715  0.00  0.00    -0.080 HD
BRANCH  21  28
ATOM     28  C   UNL     1      35.395 -20.710 -18.695  0.00  0.00    -0.078 C 
ATOM     29  C   UNL     1      34.262 -21.631 -18.275  0.00  0.00    -0.025 C 
ENDBRANCH  21  28
ENDBRANCH  19  20
ENDBRANCH  13  19
ENDBRANCH   5  16
BRANCH   2  30
ATOM     30  C   UNL     1      33.376  -6.403 -24.894  0.00  0.00    +0.093 C 
ATOM     31  C   UNL     1      34.220  -5.621 -23.890  0.00  0.00    +0.026 C 
BRANCH  30  32
ATOM     32  C   UNL     1      31.970  -5.863 -25.036  0.00  0.00    -0.005 C 
ATOM     33  C   UNL     1      31.619  -4.705 -24.362  0.00  0.00    -0.003 C 
ATOM     34  C   UNL     1      31.063  -6.537 -25.836  0.00  0.00    -0.003 C 
ATOM     35  C   UNL     1      30.323  -4.207 -24.492  0.00  0.00    -0.000 C 
ATOM     36  C   UNL     1      29.767  -6.040 -25.966  0.00  0.00    -0.000 C 
ATOM     37  C   UNL     1      29.397  -4.875 -25.294  0.00  0.00    -0.000 C 
ENDBRANCH  30  32
ENDBRANCH   2  30
TORSDOF 6
ENDMDL
MODEL 8
REMARK VINA RESULT:      -9.9      5.853     16.322
REMARK  Name = 10297043
REMARK  6 active torsions:
REMARK  status: ('A' for Active; 'I' for Inactive)
REMARK    1  A    between atoms: N_2  and  C_30
REMARK    2  A    between atoms: C_5  and  C_16
REMARK    3  A    between atoms: C_13  and  C_19
REMARK    4  A    between atoms: C_19  and  N_20
REMARK    5  A    between atoms: N_21  and  C_28
REMARK    6  A    between atoms: C_30  and  C_32
REMARK                            x       y       z     vdW  Elec       q    Type
REMARK                         _______ _______ _______ _____ _____    ______ ____
ROOT
ATOM      1  N   UNL     1      34.004  -9.869 -23.288  0.00  0.00    -0.301 N 
ATOM      2  N   UNL     1      31.309  -6.661 -25.341  0.00  0.00    -0.319 N 
ATOM      3  N   UNL     1      34.533  -7.576 -22.761  0.00  0.00    -0.233 NA
ATOM      4  N   UNL     1      33.072  -5.983 -23.881  0.00  0.00    -0.233 NA
ATOM      5  C   UNL     1      33.084 -10.526 -24.064  0.00  0.00    +0.046 C 
ATOM      6  C   UNL     1      32.738  -8.304 -24.251  0.00  0.00    +0.131 C 
ATOM      7  C   UNL     1      32.286  -9.580 -24.672  0.00  0.00    +0.003 C 
ATOM      8  C   UNL     1      33.809  -8.517 -23.391  0.00  0.00    +0.117 C 
ATOM      9  C   UNL     1      32.380  -6.977 -24.486  0.00  0.00    +0.113 C 
ATOM     10  C   UNL     1      34.092  -6.339 -23.068  0.00  0.00    +0.252 C 
ATOM     11  H   UNL     1      34.699 -10.302 -22.742  0.00  0.00    +0.153 HD
ATOM     12  H   UNL     1      30.819  -7.399 -25.772  0.00  0.00    +0.148 HD
ENDROOT
BRANCH   5  16
ATOM     13  C   UNL     1      32.984 -14.737 -24.336  0.00  0.00    -0.043 C 
ATOM     14  C   UNL     1      32.701 -13.969 -25.460  0.00  0.00    -0.006 C 
ATOM     15  C   UNL     1      33.300 -14.135 -23.125  0.00  0.00    -0.006 C 
ATOM     16  C   UNL     1      33.051 -11.964 -24.157  0.00  0.00    +0.013 C 
ATOM     17  C   UNL     1      32.735 -12.577 -25.369  0.00  0.00    +0.001 C 
ATOM     18  C   UNL     1      33.333 -12.743 -23.035  0.00  0.00    +0.001 C 
BRANCH  13  19
ATOM     19  C   UNL     1      32.948 -16.236 -24.433  0.00  0.00    -0.050 C 
BRANCH  19  20
ATOM     20  N   UNL     1      33.282 -16.873 -23.161  0.00  0.00    +0.387 N 
ATOM     21  N   UNL     1      34.850 -18.651 -21.507  0.00  0.00    +0.384 N 
ATOM     22  C   UNL     1      33.133 -18.332 -23.255  0.00  0.00    -0.100 C 
ATOM     23  C   UNL     1      34.646 -16.523 -22.744  0.00  0.00    -0.100 C 
ATOM     24  C   UNL     1      33.487 -19.003 -21.924  0.00  0.00    -0.101 C 
ATOM     25  C   UNL     1      34.998 -17.194 -21.412  0.00  0.00    -0.101 C 
ATOM     26  H   UNL     1      32.631 -16.528 -22.456  0.00  0.00    -0.079 HD
ATOM     27  H   UNL     1      35.501 -18.995 -22.214  0.00  0.00    -0.080 HD
BRANCH  21  28
ATOM     28  C   UNL     1      35.186 -19.291 -20.236  0.00  0.00    -0.078 C 
ATOM     29  C   UNL     1      34.093 -20.250 -19.798  0.00  0.00    -0.025 C 
ENDBRANCH  21  28
ENDBRANCH  19  20
ENDBRANCH  13  19
ENDBRANCH   5  16
BRANCH   2  30
ATOM     30  C   UNL     1      30.900  -5.317 -25.618  0.00  0.00    +0.093 C 
ATOM     31  C   UNL     1      29.606  -5.023 -24.863  0.00  0.00    +0.026 C 
BRANCH  30  32
ATOM     32  C   UNL     1      30.780  -5.102 -27.111  0.00  0.00    -0.005 C 
ATOM     33  C   UNL     1      31.373  -6.007 -27.974  0.00  0.00    -0.003 C 
ATOM     34  C   UNL     1      30.080  -4.004 -27.582  0.00  0.00    -0.003 C 
ATOM     35  C   UNL     1      31.263  -5.809 -29.350  0.00  0.00    -0.000 C 
ATOM     36  C   UNL     1      29.970  -3.806 -28.957  0.00  0.00    -0.000 C 
ATOM     37  C   UNL     1      30.562  -4.708 -29.842  0.00  0.00    -0.000 C 
ENDBRANCH  30  32
ENDBRANCH   2  30
TORSDOF 6
ENDMDL
MODEL 9
REMARK VINA RESULT:      -9.6      4.128     13.528
REMARK  Name = 10297043
REMARK  6 active torsions:
REMARK  status: ('A' for Active; 'I' for Inactive)
REMARK    1  A    between atoms: N_2  and  C_30
REMARK    2  A    between atoms: C_5  and  C_16
REMARK    3  A    between atoms: C_13  and  C_19
REMARK    4  A    between atoms: C_19  and  N_20
REMARK    5  A    between atoms: N_21  and  C_28
REMARK    6  A    between atoms: C_30  and  C_32
REMARK                            x       y       z     vdW  Elec       q    Type
REMARK                         _______ _______ _______ _____ _____    ______ ____
ROOT
ATOM      1  N   UNL     1      31.314 -12.791 -20.862  0.00  0.00    -0.301 N 
ATOM      2  N   UNL     1      32.668  -8.751 -22.764  0.00  0.00    -0.319 N 
ATOM      3  N   UNL     1      29.814 -10.933 -20.531  0.00  0.00    -0.233 NA
ATOM      4  N   UNL     1      30.609  -8.875 -21.561  0.00  0.00    -0.233 NA
ATOM      5  C   UNL     1      32.517 -13.001 -21.486  0.00  0.00    +0.046 C 
ATOM      6  C   UNL     1      31.926 -10.840 -21.757  0.00  0.00    +0.131 C 
ATOM      7  C   UNL     1      32.920 -11.808 -22.050  0.00  0.00    +0.003 C 
ATOM      8  C   UNL     1      30.940 -11.482 -21.017  0.00  0.00    +0.117 C 
ATOM      9  C   UNL     1      31.725  -9.486 -22.022  0.00  0.00    +0.113 C 
ATOM     10  C   UNL     1      29.735  -9.625 -20.853  0.00  0.00    +0.252 C 
ATOM     11  H   UNL     1      30.799 -13.476 -20.378  0.00  0.00    +0.153 HD
ATOM     12  H   UNL     1      33.473  -9.215 -23.090  0.00  0.00    +0.148 HD
ENDROOT
BRANCH   5  16
ATOM     13  C   UNL     1      34.408 -16.776 -21.488  0.00  0.00    -0.043 C 
ATOM     14  C   UNL     1      34.080 -16.171 -20.280  0.00  0.00    -0.006 C 
ATOM     15  C   UNL     1      34.120 -16.151 -22.695  0.00  0.00    -0.006 C 
ATOM     16  C   UNL     1      33.163 -14.290 -21.487  0.00  0.00    +0.013 C 
ATOM     17  C   UNL     1      33.455 -14.924 -20.280  0.00  0.00    +0.001 C 
ATOM     18  C   UNL     1      33.495 -14.904 -22.695  0.00  0.00    +0.001 C 
BRANCH  13  19
ATOM     19  C   UNL     1      35.081 -18.118 -21.489  0.00  0.00    -0.050 C 
BRANCH  19  20
ATOM     20  N   UNL     1      34.707 -18.917 -20.324  0.00  0.00    +0.387 N 
ATOM     21  N   UNL     1      34.138 -21.420 -18.994  0.00  0.00    +0.384 N 
ATOM     22  C   UNL     1      33.456 -19.645 -20.572  0.00  0.00    -0.100 C 
ATOM     23  C   UNL     1      35.782 -19.851 -19.965  0.00  0.00    -0.100 C 
ATOM     24  C   UNL     1      33.064 -20.487 -19.353  0.00  0.00    -0.101 C 
ATOM     25  C   UNL     1      35.388 -20.692 -18.745  0.00  0.00    -0.101 C 
ATOM     26  H   UNL     1      34.558 -18.281 -19.540  0.00  0.00    -0.079 HD
ATOM     27  H   UNL     1      34.288 -22.056 -19.778  0.00  0.00    -0.080 HD
BRANCH  21  28
ATOM     28  C   UNL     1      33.764 -22.221 -17.830  0.00  0.00    -0.078 C 
ATOM     29  C   UNL     1      32.272 -22.129 -17.557  0.00  0.00    -0.025 C 
ENDBRANCH  21  28
ENDBRANCH  19  20
ENDBRANCH  13  19
ENDBRANCH   5  16
BRANCH   2  30
ATOM     30  C   UNL     1      32.512  -7.360 -23.064  0.00  0.00    +0.093 C 
ATOM     31  C   UNL     1      33.817  -6.825 -23.649  0.00  0.00    +0.026 C 
BRANCH  30  32
ATOM     32  C   UNL     1      32.058  -6.605 -21.834  0.00  0.00    -0.005 C 
ATOM     33  C   UNL     1      32.635  -6.897 -20.610  0.00  0.00    -0.003 C 
ATOM     34  C   UNL     1      31.075  -5.638 -21.958  0.00  0.00    -0.003 C 
ATOM     35  C   UNL     1      32.217  -6.202 -19.477  0.00  0.00    -0.000 C 
ATOM     36  C   UNL     1      30.657  -4.943 -20.824  0.00  0.00    -0.000 C 
ATOM     37  C   UNL     1      31.227  -5.225 -19.583  0.00  0.00    -0.000 C 
ENDBRANCH  30  32
ENDBRANCH   2  30
TORSDOF 6
ENDMDL
