MODEL 1
REMARK VINA RESULT:     -12.3      0.000      0.000
REMARK  Name = 10200813
REMARK  4 active torsions:
REMARK  status: ('A' for Active; 'I' for Inactive)
REMARK    1  A    between atoms: C_3  and  C_24
REMARK    2  A    between atoms: C_8  and  C_11
REMARK    3  A    between atoms: N_10  and  C_16
REMARK    4  A    between atoms: C_24  and  C_26
REMARK                            x       y       z     vdW  Elec       q    Type
REMARK                         _______ _______ _______ _____ _____    ______ ____
ROOT
ATOM      1  O   UNL     1      34.027 -16.936 -23.740  0.00  0.00    -0.265 OA
ATOM      2  N   UNL     1      33.817 -15.237 -22.129  0.00  0.00    -0.272 N 
ATOM      3  C   UNL     1      32.182 -13.043 -21.178  0.00  0.00    +0.008 C 
ATOM      4  C   UNL     1      32.090 -13.554 -22.624  0.00  0.00    +0.022 C 
ATOM      5  C   UNL     1      32.638 -14.174 -20.244  0.00  0.00    +0.022 C 
ATOM      6  C   UNL     1      33.402 -14.197 -23.068  0.00  0.00    +0.094 C 
ATOM      7  C   UNL     1      33.939 -14.807 -20.732  0.00  0.00    +0.094 C 
ATOM      8  C   UNL     1      34.106 -16.511 -22.594  0.00  0.00    +0.303 C 
ENDROOT
BRANCH   8  11
ATOM      9  O   UNL     1      35.726 -17.379 -21.199  0.00  0.00    -0.265 OA
ATOM     10  N   UNL     1      33.586 -18.389 -21.224  0.00  0.00    -0.277 N 
ATOM     11  C   UNL     1      34.569 -17.489 -21.582  0.00  0.00    +0.303 C 
ATOM     12  H   UNL     1      32.714 -18.285 -21.669  0.00  0.00    +0.155 HD
BRANCH  10  16
ATOM     13  O   UNL     1      31.679 -21.634 -18.129  0.00  0.00    -0.407 OA
ATOM     14  O   UNL     1      31.830 -23.365 -16.602  0.00  0.00    -0.223 OA
ATOM     15  N   UNL     1      33.747 -22.480 -17.589  0.00  0.00    -0.287 N 
ATOM     16  C   UNL     1      33.693 -19.446 -20.291  0.00  0.00    +0.054 C 
ATOM     17  C   UNL     1      32.535 -19.955 -19.716  0.00  0.00    +0.054 C 
ATOM     18  C   UNL     1      34.965 -19.946 -19.977  0.00  0.00    +0.016 C 
ATOM     19  C   UNL     1      32.694 -20.985 -18.814  0.00  0.00    +0.167 A 
ATOM     20  C   UNL     1      33.942 -21.479 -18.502  0.00  0.00    +0.096 A 
ATOM     21  C   UNL     1      35.102 -20.990 -19.060  0.00  0.00    +0.022 C 
ATOM     22  C   UNL     1      32.384 -22.578 -17.360  0.00  0.00    +0.419 A 
ATOM     23  H   UNL     1      34.448 -23.031 -17.171  0.00  0.00    +0.172 HD
ENDBRANCH  10  16
ENDBRANCH   8  11
BRANCH   3  24
ATOM     24  C   UNL     1      30.844 -12.466 -20.720  0.00  0.00    +0.026 C 
BRANCH  24  26
ATOM     25  F   UNL     1      31.340  -7.098 -19.129  0.00  0.00    -0.204 F 
ATOM     26  C   UNL     1      30.978 -11.030 -20.294  0.00  0.00    -0.022 C 
ATOM     27  C   UNL     1      30.914 -10.707 -18.945  0.00  0.00    -0.002 C 
ATOM     28  C   UNL     1      31.161 -10.045 -21.256  0.00  0.00    -0.002 C 
ATOM     29  C   UNL     1      31.038  -9.375 -18.551  0.00  0.00    +0.029 C 
ATOM     30  C   UNL     1      31.284  -8.713 -20.861  0.00  0.00    +0.029 C 
ATOM     31  C   UNL     1      31.223  -8.378 -19.509  0.00  0.00    +0.140 C 
ENDBRANCH  24  26
ENDBRANCH   3  24
TORSDOF 4
ENDMDL
MODEL 2
REMARK VINA RESULT:     -12.0      1.892      2.431
REMARK  Name = 10200813
REMARK  4 active torsions:
REMARK  status: ('A' for Active; 'I' for Inactive)
REMARK    1  A    between atoms: C_3  and  C_24
REMARK    2  A    between atoms: C_8  and  C_11
REMARK    3  A    between atoms: N_10  and  C_16
REMARK    4  A    between atoms: C_24  and  C_26
REMARK                            x       y       z     vdW  Elec       q    Type
REMARK                         _______ _______ _______ _____ _____    ______ ____
ROOT
ATOM      1  O   UNL     1      33.375 -18.537 -24.001  0.00  0.00    -0.265 OA
ATOM      2  N   UNL     1      33.983 -16.472 -23.057  0.00  0.00    -0.272 N 
ATOM      3  C   UNL     1      33.196 -13.714 -22.650  0.00  0.00    +0.008 C 
ATOM      4  C   UNL     1      32.619 -14.560 -23.796  0.00  0.00    +0.022 C 
ATOM      5  C   UNL     1      33.607 -14.619 -21.478  0.00  0.00    +0.022 C 
ATOM      6  C   UNL     1      33.590 -15.664 -24.210  0.00  0.00    +0.094 C 
ATOM      7  C   UNL     1      34.556 -15.724 -21.935  0.00  0.00    +0.094 C 
ATOM      8  C   UNL     1      33.843 -17.852 -23.101  0.00  0.00    +0.303 C 
ENDROOT
BRANCH   8  11
ATOM      9  O   UNL     1      35.502 -18.495 -21.633  0.00  0.00    -0.265 OA
ATOM     10  N   UNL     1      33.303 -19.301 -21.289  0.00  0.00    -0.277 N 
ATOM     11  C   UNL     1      34.314 -18.596 -21.910  0.00  0.00    +0.303 C 
ATOM     12  H   UNL     1      32.408 -19.232 -21.695  0.00  0.00    +0.155 HD
BRANCH  10  16
ATOM     13  O   UNL     1      31.387 -21.873 -17.620  0.00  0.00    -0.407 OA
ATOM     14  O   UNL     1      31.538 -23.201 -15.733  0.00  0.00    -0.223 OA
ATOM     15  N   UNL     1      33.461 -22.446 -16.811  0.00  0.00    -0.287 N 
ATOM     16  C   UNL     1      33.409 -20.111 -20.134  0.00  0.00    +0.054 C 
ATOM     17  C   UNL     1      32.247 -20.547 -19.510  0.00  0.00    +0.054 C 
ATOM     18  C   UNL     1      34.684 -20.447 -19.660  0.00  0.00    +0.016 C 
ATOM     19  C   UNL     1      32.406 -21.334 -18.390  0.00  0.00    +0.167 A 
ATOM     20  C   UNL     1      33.657 -21.667 -17.920  0.00  0.00    +0.096 A 
ATOM     21  C   UNL     1      34.822 -21.247 -18.523  0.00  0.00    +0.022 C 
ATOM     22  C   UNL     1      32.094 -22.574 -16.626  0.00  0.00    +0.419 A 
ATOM     23  H   UNL     1      34.163 -22.845 -16.247  0.00  0.00    +0.172 HD
ENDBRANCH  10  16
ENDBRANCH   8  11
BRANCH   3  24
ATOM     24  C   UNL     1      32.191 -12.658 -22.196  0.00  0.00    +0.026 C 
BRANCH  24  26
ATOM     25  F   UNL     1      33.532  -7.556 -24.135  0.00  0.00    -0.204 F 
ATOM     26  C   UNL     1      32.550 -11.293 -22.716  0.00  0.00    -0.022 C 
ATOM     27  C   UNL     1      33.483 -11.172 -23.736  0.00  0.00    -0.002 C 
ATOM     28  C   UNL     1      31.944 -10.171 -22.166  0.00  0.00    -0.002 C 
ATOM     29  C   UNL     1      33.815  -9.906 -24.218  0.00  0.00    +0.029 C 
ATOM     30  C   UNL     1      32.276  -8.904 -22.647  0.00  0.00    +0.029 C 
ATOM     31  C   UNL     1      33.211  -8.772 -23.673  0.00  0.00    +0.140 C 
ENDBRANCH  24  26
ENDBRANCH   3  24
TORSDOF 4
ENDMDL
MODEL 3
REMARK VINA RESULT:     -12.0      4.677      7.432
REMARK  Name = 10200813
REMARK  4 active torsions:
REMARK  status: ('A' for Active; 'I' for Inactive)
REMARK    1  A    between atoms: C_3  and  C_24
REMARK    2  A    between atoms: C_8  and  C_11
REMARK    3  A    between atoms: N_10  and  C_16
REMARK    4  A    between atoms: C_24  and  C_26
REMARK                            x       y       z     vdW  Elec       q    Type
REMARK                         _______ _______ _______ _____ _____    ______ ____
ROOT
ATOM      1  O   UNL     1      31.068 -21.673 -17.239  0.00  0.00    -0.265 OA
ATOM      2  N   UNL     1      32.803 -21.444 -18.809  0.00  0.00    -0.272 N 
ATOM      3  C   UNL     1      34.283 -19.589 -20.470  0.00  0.00    +0.008 C 
ATOM      4  C   UNL     1      32.870 -19.268 -19.960  0.00  0.00    +0.022 C 
ATOM      5  C   UNL     1      34.992 -20.549 -19.501  0.00  0.00    +0.022 C 
ATOM      6  C   UNL     1      32.073 -20.546 -19.701  0.00  0.00    +0.094 C 
ATOM      7  C   UNL     1      34.155 -21.801 -19.248  0.00  0.00    +0.094 C 
ATOM      8  C   UNL     1      32.188 -21.928 -17.664  0.00  0.00    +0.303 C 
ENDROOT
BRANCH   8  11
ATOM      9  O   UNL     1      32.727 -24.063 -16.974  0.00  0.00    -0.265 OA
ATOM     10  N   UNL     1      33.909 -22.235 -16.045  0.00  0.00    -0.277 N 
ATOM     11  C   UNL     1      32.981 -22.873 -16.844  0.00  0.00    +0.303 C 
ATOM     12  H   UNL     1      33.938 -21.253 -16.108  0.00  0.00    +0.155 HD
BRANCH  10  16
ATOM     13  O   UNL     1      34.999 -25.128 -12.278  0.00  0.00    -0.407 OA
ATOM     14  O   UNL     1      36.474 -26.123 -10.801  0.00  0.00    -0.223 OA
ATOM     15  N   UNL     1      37.246 -24.679 -12.459  0.00  0.00    -0.287 N 
ATOM     16  C   UNL     1      34.822 -22.836 -15.147  0.00  0.00    +0.054 C 
ATOM     17  C   UNL     1      34.335 -23.693 -14.167  0.00  0.00    +0.054 C 
ATOM     18  C   UNL     1      36.187 -22.547 -15.277  0.00  0.00    +0.016 C 
ATOM     19  C   UNL     1      35.266 -24.252 -13.319  0.00  0.00    +0.167 A 
ATOM     20  C   UNL     1      36.609 -23.971 -13.442  0.00  0.00    +0.096 A 
ATOM     21  C   UNL     1      37.113 -23.125 -14.405  0.00  0.00    +0.022 C 
ATOM     22  C   UNL     1      36.281 -25.379 -11.754  0.00  0.00    +0.419 A 
ATOM     23  H   UNL     1      38.216 -24.690 -12.284  0.00  0.00    +0.172 HD
ENDBRANCH  10  16
ENDBRANCH   8  11
BRANCH   3  24
ATOM     24  C   UNL     1      35.096 -18.310 -20.659  0.00  0.00    +0.026 C 
BRANCH  24  26
ATOM     25  F   UNL     1      32.953 -15.076 -24.726  0.00  0.00    -0.204 F 
ATOM     26  C   UNL     1      34.522 -17.445 -21.747  0.00  0.00    -0.022 C 
ATOM     27  C   UNL     1      34.197 -18.011 -22.972  0.00  0.00    -0.002 C 
ATOM     28  C   UNL     1      34.325 -16.090 -21.512  0.00  0.00    -0.002 C 
ATOM     29  C   UNL     1      33.665 -17.208 -23.981  0.00  0.00    +0.029 C 
ATOM     30  C   UNL     1      33.792 -15.288 -22.521  0.00  0.00    +0.029 C 
ATOM     31  C   UNL     1      33.463 -15.847 -23.756  0.00  0.00    +0.140 C 
ENDBRANCH  24  26
ENDBRANCH   3  24
TORSDOF 4
ENDMDL
MODEL 4
REMARK VINA RESULT:     -11.9      4.930      7.780
REMARK  Name = 10200813
REMARK  4 active torsions:
REMARK  status: ('A' for Active; 'I' for Inactive)
REMARK    1  A    between atoms: C_3  and  C_24
REMARK    2  A    between atoms: C_8  and  C_11
REMARK    3  A    between atoms: N_10  and  C_16
REMARK    4  A    between atoms: C_24  and  C_26
REMARK                            x       y       z     vdW  Elec       q    Type
REMARK                         _______ _______ _______ _____ _____    ______ ____
ROOT
ATOM      1  O   UNL     1      30.992 -21.824 -16.985  0.00  0.00    -0.265 OA
ATOM      2  N   UNL     1      32.701 -21.643 -18.589  0.00  0.00    -0.272 N 
ATOM      3  C   UNL     1      34.167 -19.837 -20.316  0.00  0.00    +0.008 C 
ATOM      4  C   UNL     1      32.765 -19.494 -19.789  0.00  0.00    +0.022 C 
ATOM      5  C   UNL     1      34.885 -20.781 -19.338  0.00  0.00    +0.022 C 
ATOM      6  C   UNL     1      31.963 -20.759 -19.488  0.00  0.00    +0.094 C 
ATOM      7  C   UNL     1      34.043 -22.021 -19.044  0.00  0.00    +0.094 C 
ATOM      8  C   UNL     1      32.103 -22.098 -17.423  0.00  0.00    +0.303 C 
ENDROOT
BRANCH   8  11
ATOM      9  O   UNL     1      32.740 -24.226 -16.801  0.00  0.00    -0.265 OA
ATOM     10  N   UNL     1      33.730 -22.377 -15.705  0.00  0.00    -0.277 N 
ATOM     11  C   UNL     1      32.903 -23.031 -16.596  0.00  0.00    +0.303 C 
ATOM     12  H   UNL     1      33.696 -21.392 -15.718  0.00  0.00    +0.155 HD
BRANCH  10  16
ATOM     13  O   UNL     1      38.145 -23.901 -14.316  0.00  0.00    -0.407 OA
ATOM     14  O   UNL     1      39.619 -24.854 -12.810  0.00  0.00    -0.223 OA
ATOM     15  N   UNL     1      37.364 -24.610 -12.274  0.00  0.00    -0.287 N 
ATOM     16  C   UNL     1      34.620 -22.963 -14.776  0.00  0.00    +0.054 C 
ATOM     17  C   UNL     1      35.960 -23.097 -15.121  0.00  0.00    +0.054 C 
ATOM     18  C   UNL     1      34.121 -23.387 -13.537  0.00  0.00    +0.016 C 
ATOM     19  C   UNL     1      36.785 -23.674 -14.179  0.00  0.00    +0.167 A 
ATOM     20  C   UNL     1      36.299 -24.092 -12.960  0.00  0.00    +0.096 A 
ATOM     21  C   UNL     1      34.976 -23.968 -12.597  0.00  0.00    +0.022 C 
ATOM     22  C   UNL     1      38.481 -24.497 -13.086  0.00  0.00    +0.419 A 
ATOM     23  H   UNL     1      37.342 -24.993 -11.366  0.00  0.00    +0.172 HD
ENDBRANCH  10  16
ENDBRANCH   8  11
BRANCH   3  24
ATOM     24  C   UNL     1      34.985 -18.569 -20.547  0.00  0.00    +0.026 C 
BRANCH  24  26
ATOM     25  F   UNL     1      32.987 -15.578 -24.865  0.00  0.00    -0.204 F 
ATOM     26  C   UNL     1      34.451 -17.768 -21.702  0.00  0.00    -0.022 C 
ATOM     27  C   UNL     1      34.395 -16.384 -21.608  0.00  0.00    -0.002 C 
ATOM     28  C   UNL     1      34.020 -18.424 -22.848  0.00  0.00    -0.002 C 
ATOM     29  C   UNL     1      33.899 -15.642 -22.681  0.00  0.00    +0.029 C 
ATOM     30  C   UNL     1      33.525 -17.682 -23.920  0.00  0.00    +0.029 C 
ATOM     31  C   UNL     1      33.465 -16.291 -23.836  0.00  0.00    +0.140 C 
ENDBRANCH  24  26
ENDBRANCH   3  24
TORSDOF 4
ENDMDL
MODEL 5
REMARK VINA RESULT:     -11.6      5.114     10.035
REMARK  Name = 10200813
REMARK  4 active torsions:
REMARK  status: ('A' for Active; 'I' for Inactive)
REMARK    1  A    between atoms: C_3  and  C_24
REMARK    2  A    between atoms: C_8  and  C_11
REMARK    3  A    between atoms: N_10  and  C_16
REMARK    4  A    between atoms: C_24  and  C_26
REMARK                            x       y       z     vdW  Elec       q    Type
REMARK                         _______ _______ _______ _____ _____    ______ ____
ROOT
ATOM      1  O   UNL     1      32.654 -12.781 -25.113  0.00  0.00    -0.265 OA
ATOM      2  N   UNL     1      32.791 -14.289 -23.315  0.00  0.00    -0.272 N 
ATOM      3  C   UNL     1      33.991 -16.743 -22.350  0.00  0.00    +0.008 C 
ATOM      4  C   UNL     1      33.874 -16.435 -23.851  0.00  0.00    +0.022 C 
ATOM      5  C   UNL     1      34.063 -15.437 -21.544  0.00  0.00    +0.022 C 
ATOM      6  C   UNL     1      32.702 -15.498 -24.132  0.00  0.00    +0.094 C 
ATOM      7  C   UNL     1      32.889 -14.517 -21.870  0.00  0.00    +0.094 C 
ATOM      8  C   UNL     1      32.736 -13.042 -23.919  0.00  0.00    +0.303 C 
ENDROOT
BRANCH   8  11
ATOM      9  O   UNL     1      33.718 -11.098 -23.158  0.00  0.00    -0.265 OA
ATOM     10  N   UNL     1      31.725 -11.846 -22.124  0.00  0.00    -0.277 N 
ATOM     11  C   UNL     1      32.781 -11.872 -23.012  0.00  0.00    +0.303 C 
ATOM     12  H   UNL     1      31.078 -12.586 -22.191  0.00  0.00    +0.155 HD
BRANCH  10  16
ATOM     13  O   UNL     1      31.227  -7.245 -20.598  0.00  0.00    -0.407 OA
ATOM     14  O   UNL     1      30.806  -5.640 -18.986  0.00  0.00    -0.223 OA
ATOM     15  N   UNL     1      30.760  -7.907 -18.447  0.00  0.00    -0.287 N 
ATOM     16  C   UNL     1      31.468 -10.875 -21.129  0.00  0.00    +0.054 C 
ATOM     17  C   UNL     1      31.502  -9.530 -21.477  0.00  0.00    +0.054 C 
ATOM     18  C   UNL     1      31.185 -11.302 -19.824  0.00  0.00    +0.016 C 
ATOM     19  C   UNL     1      31.243  -8.625 -20.470  0.00  0.00    +0.167 A 
ATOM     20  C   UNL     1      30.966  -9.040 -19.186  0.00  0.00    +0.096 A 
ATOM     21  C   UNL     1      30.926 -10.367 -18.820  0.00  0.00    +0.022 C 
ATOM     22  C   UNL     1      30.916  -6.821 -19.293  0.00  0.00    +0.419 A 
ATOM     23  H   UNL     1      30.540  -7.869 -17.487  0.00  0.00    +0.172 HD
ENDBRANCH  10  16
ENDBRANCH   8  11
BRANCH   3  24
ATOM     24  C   UNL     1      35.207 -17.623 -22.069  0.00  0.00    +0.026 C 
BRANCH  24  26
ATOM     25  F   UNL     1      34.045 -21.614 -18.285  0.00  0.00    -0.204 F 
ATOM     26  C   UNL     1      34.896 -18.690 -21.056  0.00  0.00    -0.022 C 
ATOM     27  C   UNL     1      35.915 -19.198 -20.262  0.00  0.00    -0.002 C 
ATOM     28  C   UNL     1      33.594 -19.155 -20.930  0.00  0.00    -0.002 C 
ATOM     29  C   UNL     1      35.626 -20.188 -19.323  0.00  0.00    +0.029 C 
ATOM     30  C   UNL     1      33.305 -20.145 -19.990  0.00  0.00    +0.029 C 
ATOM     31  C   UNL     1      34.321 -20.661 -19.187  0.00  0.00    +0.140 C 
ENDBRANCH  24  26
ENDBRANCH   3  24
TORSDOF 4
ENDMDL
MODEL 6
REMARK VINA RESULT:     -11.4      5.117     10.765
REMARK  Name = 10200813
REMARK  4 active torsions:
REMARK  status: ('A' for Active; 'I' for Inactive)
REMARK    1  A    between atoms: C_3  and  C_24
REMARK    2  A    between atoms: C_8  and  C_11
REMARK    3  A    between atoms: N_10  and  C_16
REMARK    4  A    between atoms: C_24  and  C_26
REMARK                            x       y       z     vdW  Elec       q    Type
REMARK                         _______ _______ _______ _____ _____    ______ ____
ROOT
ATOM      1  O   UNL     1      33.057 -13.120 -25.365  0.00  0.00    -0.265 OA
ATOM      2  N   UNL     1      33.035 -14.539 -23.492  0.00  0.00    -0.272 N 
ATOM      3  C   UNL     1      34.035 -17.013 -22.364  0.00  0.00    +0.008 C 
ATOM      4  C   UNL     1      33.988 -16.776 -23.882  0.00  0.00    +0.022 C 
ATOM      5  C   UNL     1      34.169 -15.675 -21.622  0.00  0.00    +0.022 C 
ATOM      6  C   UNL     1      32.890 -15.779 -24.251  0.00  0.00    +0.094 C 
ATOM      7  C   UNL     1      33.070 -14.698 -22.034  0.00  0.00    +0.094 C 
ATOM      8  C   UNL     1      33.082 -13.324 -24.158  0.00  0.00    +0.303 C 
ENDROOT
BRANCH   8  11
ATOM      9  O   UNL     1      33.391 -12.294 -22.116  0.00  0.00    -0.265 OA
ATOM     10  N   UNL     1      33.006 -10.946 -24.023  0.00  0.00    -0.277 N 
ATOM     11  C   UNL     1      33.177 -12.114 -23.308  0.00  0.00    +0.303 C 
ATOM     12  H   UNL     1      32.844 -11.045 -24.990  0.00  0.00    +0.155 HD
BRANCH  10  16
ATOM     13  O   UNL     1      30.951  -7.094 -21.860  0.00  0.00    -0.407 OA
ATOM     14  O   UNL     1      30.980  -4.934 -21.032  0.00  0.00    -0.223 OA
ATOM     15  N   UNL     1      32.882  -5.855 -22.014  0.00  0.00    -0.287 N 
ATOM     16  C   UNL     1      33.036  -9.624 -23.523  0.00  0.00    +0.054 C 
ATOM     17  C   UNL     1      31.888  -9.098 -22.943  0.00  0.00    +0.054 C 
ATOM     18  C   UNL     1      34.225  -8.889 -23.628  0.00  0.00    +0.016 C 
ATOM     19  C   UNL     1      31.971  -7.806 -22.470  0.00  0.00    +0.167 A 
ATOM     20  C   UNL     1      33.137  -7.079 -22.571  0.00  0.00    +0.096 A 
ATOM     21  C   UNL     1      34.286  -7.581 -23.141  0.00  0.00    +0.022 C 
ATOM     22  C   UNL     1      31.565  -5.858 -21.583  0.00  0.00    +0.419 A 
ATOM     23  H   UNL     1      33.518  -5.108 -21.932  0.00  0.00    +0.172 HD
ENDBRANCH  10  16
ENDBRANCH   8  11
BRANCH   3  24
ATOM     24  C   UNL     1      35.179 -17.955 -21.998  0.00  0.00    +0.026 C 
BRANCH  24  26
ATOM     25  F   UNL     1      33.618 -21.687 -18.095  0.00  0.00    -0.204 F 
ATOM     26  C   UNL     1      34.761 -18.954 -20.954  0.00  0.00    -0.022 C 
ATOM     27  C   UNL     1      33.416 -19.258 -20.797  0.00  0.00    -0.002 C 
ATOM     28  C   UNL     1      35.727 -19.559 -20.160  0.00  0.00    -0.002 C 
ATOM     29  C   UNL     1      33.029 -20.184 -19.828  0.00  0.00    +0.029 C 
ATOM     30  C   UNL     1      35.340 -20.485 -19.191  0.00  0.00    +0.029 C 
ATOM     31  C   UNL     1      33.991 -20.798 -19.026  0.00  0.00    +0.140 C 
ENDBRANCH  24  26
ENDBRANCH   3  24
TORSDOF 4
ENDMDL
MODEL 7
REMARK VINA RESULT:     -11.1      6.205     10.744
REMARK  Name = 10200813
REMARK  4 active torsions:
REMARK  status: ('A' for Active; 'I' for Inactive)
REMARK    1  A    between atoms: C_3  and  C_24
REMARK    2  A    between atoms: C_8  and  C_11
REMARK    3  A    between atoms: N_10  and  C_16
REMARK    4  A    between atoms: C_24  and  C_26
REMARK                            x       y       z     vdW  Elec       q    Type
REMARK                         _______ _______ _______ _____ _____    ______ ____
ROOT
ATOM      1  O   UNL     1      37.218 -22.305 -14.886  0.00  0.00    -0.265 OA
ATOM      2  N   UNL     1      35.063 -23.202 -15.166  0.00  0.00    -0.272 N 
ATOM      3  C   UNL     1      32.720 -24.239 -13.815  0.00  0.00    +0.008 C 
ATOM      4  C   UNL     1      34.101 -24.224 -13.142  0.00  0.00    +0.022 C 
ATOM      5  C   UNL     1      32.621 -23.108 -14.850  0.00  0.00    +0.022 C 
ATOM      6  C   UNL     1      35.221 -24.270 -14.180  0.00  0.00    +0.094 C 
ATOM      7  C   UNL     1      33.769 -23.173 -15.855  0.00  0.00    +0.094 C 
ATOM      8  C   UNL     1      36.117 -22.337 -15.421  0.00  0.00    +0.303 C 
ENDROOT
BRANCH   8  11
ATOM      9  O   UNL     1      36.564 -20.300 -16.407  0.00  0.00    -0.265 OA
ATOM     10  N   UNL     1      34.920 -21.697 -17.379  0.00  0.00    -0.277 N 
ATOM     11  C   UNL     1      35.888 -21.318 -16.471  0.00  0.00    +0.303 C 
ATOM     12  H   UNL     1      34.502 -22.577 -17.231  0.00  0.00    +0.155 HD
BRANCH  10  16
ATOM     13  O   UNL     1      35.617 -18.766 -21.209  0.00  0.00    -0.407 OA
ATOM     14  O   UNL     1      34.888 -17.561 -23.044  0.00  0.00    -0.223 OA
ATOM     15  N   UNL     1      33.383 -18.785 -21.753  0.00  0.00    -0.287 N 
ATOM     16  C   UNL     1      34.461 -20.964 -18.497  0.00  0.00    +0.054 C 
ATOM     17  C   UNL     1      35.379 -20.242 -19.250  0.00  0.00    +0.054 C 
ATOM     18  C   UNL     1      33.095 -20.991 -18.810  0.00  0.00    +0.016 C 
ATOM     19  C   UNL     1      34.881 -19.545 -20.330  0.00  0.00    +0.167 A 
ATOM     20  C   UNL     1      33.539 -19.569 -20.641  0.00  0.00    +0.096 A 
ATOM     21  C   UNL     1      32.612 -20.277 -19.909  0.00  0.00    +0.022 C 
ATOM     22  C   UNL     1      34.633 -18.298 -22.100  0.00  0.00    +0.419 A 
ATOM     23  H   UNL     1      32.537 -18.601 -22.222  0.00  0.00    +0.172 HD
ENDBRANCH  10  16
ENDBRANCH   8  11
BRANCH   3  24
ATOM     24  C   UNL     1      31.609 -24.123 -12.774  0.00  0.00    +0.026 C 
BRANCH  24  26
ATOM     25  F   UNL     1      26.622 -23.146 -15.176  0.00  0.00    -0.204 F 
ATOM     26  C   UNL     1      30.274 -23.862 -13.416  0.00  0.00    -0.022 C 
ATOM     27  C   UNL     1      29.441 -24.929 -13.722  0.00  0.00    -0.002 C 
ATOM     28  C   UNL     1      29.893 -22.556 -13.696  0.00  0.00    -0.002 C 
ATOM     29  C   UNL     1      28.203 -24.686 -14.318  0.00  0.00    +0.029 C 
ATOM     30  C   UNL     1      28.655 -22.313 -14.291  0.00  0.00    +0.029 C 
ATOM     31  C   UNL     1      27.810 -23.379 -14.602  0.00  0.00    +0.140 C 
ENDBRANCH  24  26
ENDBRANCH   3  24
TORSDOF 4
ENDMDL
MODEL 8
REMARK VINA RESULT:     -11.0      4.778     10.026
REMARK  Name = 10200813
REMARK  4 active torsions:
REMARK  status: ('A' for Active; 'I' for Inactive)
REMARK    1  A    between atoms: C_3  and  C_24
REMARK    2  A    between atoms: C_8  and  C_11
REMARK    3  A    between atoms: N_10  and  C_16
REMARK    4  A    between atoms: C_24  and  C_26
REMARK                            x       y       z     vdW  Elec       q    Type
REMARK                         _______ _______ _______ _____ _____    ______ ____
ROOT
ATOM      1  O   UNL     1      37.013 -18.743 -18.663  0.00  0.00    -0.265 OA
ATOM      2  N   UNL     1      35.320 -20.283 -19.201  0.00  0.00    -0.272 N 
ATOM      3  C   UNL     1      33.194 -21.949 -18.154  0.00  0.00    +0.008 C 
ATOM      4  C   UNL     1      34.358 -21.473 -17.272  0.00  0.00    +0.022 C 
ATOM      5  C   UNL     1      32.950 -20.950 -19.296  0.00  0.00    +0.022 C 
ATOM      6  C   UNL     1      35.610 -21.206 -18.105  0.00  0.00    +0.094 C 
ATOM      7  C   UNL     1      34.228 -20.691 -20.090  0.00  0.00    +0.094 C 
ATOM      8  C   UNL     1      36.091 -19.142 -19.364  0.00  0.00    +0.303 C 
ENDROOT
BRANCH   8  11
ATOM      9  O   UNL     1      36.399 -18.491 -21.556  0.00  0.00    -0.265 OA
ATOM     10  N   UNL     1      34.756 -17.384 -20.261  0.00  0.00    -0.277 N 
ATOM     11  C   UNL     1      35.762 -18.290 -20.531  0.00  0.00    +0.303 C 
ATOM     12  H   UNL     1      34.382 -17.404 -19.350  0.00  0.00    +0.155 HD
BRANCH  10  16
ATOM     13  O   UNL     1      33.392 -15.875 -24.689  0.00  0.00    -0.407 OA
ATOM     14  O   UNL     1      32.490 -14.330 -26.155  0.00  0.00    -0.223 OA
ATOM     15  N   UNL     1      32.656 -13.854 -23.880  0.00  0.00    -0.287 N 
ATOM     16  C   UNL     1      34.204 -16.430 -21.147  0.00  0.00    +0.054 C 
ATOM     17  C   UNL     1      34.118 -16.738 -22.499  0.00  0.00    +0.054 C 
ATOM     18  C   UNL     1      33.762 -15.204 -20.630  0.00  0.00    +0.016 C 
ATOM     19  C   UNL     1      33.571 -15.775 -23.319  0.00  0.00    +0.167 A 
ATOM     20  C   UNL     1      33.135 -14.569 -22.815  0.00  0.00    +0.096 A 
ATOM     21  C   UNL     1      33.211 -14.242 -21.480  0.00  0.00    +0.022 C 
ATOM     22  C   UNL     1      32.808 -14.636 -25.013  0.00  0.00    +0.419 A 
ATOM     23  H   UNL     1      32.271 -12.947 -23.847  0.00  0.00    +0.172 HD
ENDBRANCH  10  16
ENDBRANCH   8  11
BRANCH   3  24
ATOM     24  C   UNL     1      31.928 -22.146 -17.324  0.00  0.00    +0.026 C 
BRANCH  24  26
ATOM     25  F   UNL     1      33.083 -24.332 -12.277  0.00  0.00    -0.204 F 
ATOM     26  C   UNL     1      32.236 -22.731 -15.974  0.00  0.00    -0.022 C 
ATOM     27  C   UNL     1      31.314 -22.601 -14.944  0.00  0.00    -0.002 C 
ATOM     28  C   UNL     1      33.441 -23.394 -15.774  0.00  0.00    -0.002 C 
ATOM     29  C   UNL     1      31.601 -23.144 -13.692  0.00  0.00    +0.029 C 
ATOM     30  C   UNL     1      33.728 -23.937 -14.522  0.00  0.00    +0.029 C 
ATOM     31  C   UNL     1      32.808 -23.812 -13.481  0.00  0.00    +0.140 C 
ENDBRANCH  24  26
ENDBRANCH   3  24
TORSDOF 4
ENDMDL
MODEL 9
REMARK VINA RESULT:     -10.9      2.440      3.068
REMARK  Name = 10200813
REMARK  4 active torsions:
REMARK  status: ('A' for Active; 'I' for Inactive)
REMARK    1  A    between atoms: C_3  and  C_24
REMARK    2  A    between atoms: C_8  and  C_11
REMARK    3  A    between atoms: N_10  and  C_16
REMARK    4  A    between atoms: C_24  and  C_26
REMARK                            x       y       z     vdW  Elec       q    Type
REMARK                         _______ _______ _______ _____ _____    ______ ____
ROOT
ATOM      1  O   UNL     1      33.781 -18.913 -23.198  0.00  0.00    -0.265 OA
ATOM      2  N   UNL     1      34.147 -16.679 -22.565  0.00  0.00    -0.272 N 
ATOM      3  C   UNL     1      33.243 -13.942 -22.854  0.00  0.00    +0.008 C 
ATOM      4  C   UNL     1      32.928 -15.014 -23.909  0.00  0.00    +0.022 C 
ATOM      5  C   UNL     1      33.423 -14.592 -21.474  0.00  0.00    +0.022 C 
ATOM      6  C   UNL     1      33.982 -16.120 -23.905  0.00  0.00    +0.094 C 
ATOM      7  C   UNL     1      34.465 -15.707 -21.515  0.00  0.00    +0.094 C 
ATOM      8  C   UNL     1      34.043 -18.049 -22.371  0.00  0.00    +0.303 C 
ENDROOT
BRANCH   8  11
ATOM      9  O   UNL     1      34.928 -17.808 -20.254  0.00  0.00    -0.265 OA
ATOM     10  N   UNL     1      33.695 -19.765 -20.756  0.00  0.00    -0.277 N 
ATOM     11  C   UNL     1      34.275 -18.535 -20.991  0.00  0.00    +0.303 C 
ATOM     12  H   UNL     1      33.207 -20.170 -21.510  0.00  0.00    +0.155 HD
BRANCH  10  16
ATOM     13  O   UNL     1      35.997 -21.686 -16.915  0.00  0.00    -0.407 OA
ATOM     14  O   UNL     1      36.067 -22.896 -14.945  0.00  0.00    -0.223 OA
ATOM     15  N   UNL     1      34.057 -22.598 -16.085  0.00  0.00    -0.287 N 
ATOM     16  C   UNL     1      33.724 -20.508 -19.553  0.00  0.00    +0.054 C 
ATOM     17  C   UNL     1      34.936 -20.672 -18.893  0.00  0.00    +0.054 C 
ATOM     18  C   UNL     1      32.528 -21.055 -19.067  0.00  0.00    +0.016 C 
ATOM     19  C   UNL     1      34.909 -21.403 -17.726  0.00  0.00    +0.167 A 
ATOM     20  C   UNL     1      33.737 -21.943 -17.244  0.00  0.00    +0.096 A 
ATOM     21  C   UNL     1      32.525 -21.793 -17.882  0.00  0.00    +0.022 C 
ATOM     22  C   UNL     1      35.419 -22.446 -15.882  0.00  0.00    +0.419 A 
ATOM     23  H   UNL     1      33.433 -23.088 -15.502  0.00  0.00    +0.172 HD
ENDBRANCH  10  16
ENDBRANCH   8  11
BRANCH   3  24
ATOM     24  C   UNL     1      32.148 -12.879 -22.817  0.00  0.00    +0.026 C 
BRANCH  24  26
ATOM     25  F   UNL     1      34.145  -7.802 -24.169  0.00  0.00    -0.204 F 
ATOM     26  C   UNL     1      32.683 -11.520 -23.178  0.00  0.00    -0.022 C 
ATOM     27  C   UNL     1      32.227 -10.401 -22.494  0.00  0.00    -0.002 C 
ATOM     28  C   UNL     1      33.624 -11.403 -24.192  0.00  0.00    -0.002 C 
ATOM     29  C   UNL     1      32.723  -9.141 -22.830  0.00  0.00    +0.029 C 
ATOM     30  C   UNL     1      34.121 -10.143 -24.528  0.00  0.00    +0.029 C 
ATOM     31  C   UNL     1      33.670  -9.012 -23.846  0.00  0.00    +0.140 C 
ENDBRANCH  24  26
ENDBRANCH   3  24
TORSDOF 4
ENDMDL
