MODEL 1
REMARK VINA RESULT:     -11.9      0.000      0.000
REMARK  Name = 4369498
REMARK  8 active torsions:
REMARK  status: ('A' for Active; 'I' for Inactive)
REMARK    1  A    between atoms: N_2  and  C_11
REMARK    2  A    between atoms: C_5  and  C_25
REMARK    3  A    between atoms: C_8  and  S_14
REMARK    4  A    between atoms: C_13  and  O_23
REMARK    5  A    between atoms: S_14  and  N_17
REMARK    6  A    between atoms: N_17  and  C_19
REMARK    7  A    between atoms: C_19  and  C_20
REMARK    8  A    between atoms: C_26  and  C_32
REMARK                            x       y       z     vdW  Elec       q    Type
REMARK                         _______ _______ _______ _____ _____    ______ ____
ROOT
ATOM      1  O   UNL     1      32.781 -20.409 -19.485  0.00  0.00    -0.424 OA
ATOM      2  N   UNL     1      31.996 -21.628 -17.704  0.00  0.00    -0.265 N 
ATOM      3  N   UNL     1      34.343 -21.385 -18.173  0.00  0.00    -0.193 NA
ATOM      4  C   UNL     1      33.065 -21.180 -18.400  0.00  0.00    +0.293 C 
ATOM      5  C   UNL     1      34.009 -20.101 -19.988  0.00  0.00    +0.168 C 
ATOM      6  C   UNL     1      34.953 -20.696 -19.189  0.00  0.00    +0.141 C 
ATOM      7  H   UNL     1      31.122 -21.347 -18.060  0.00  0.00    +0.157 HD
ENDROOT
BRANCH   2  11
ATOM      8  C   UNL     1      33.056 -23.814 -14.897  0.00  0.00    +0.123 C 
ATOM      9  C   UNL     1      33.104 -23.010 -16.036  0.00  0.00    +0.038 C 
ATOM     10  C   UNL     1      31.838 -24.050 -14.260  0.00  0.00    +0.023 C 
ATOM     11  C   UNL     1      31.933 -22.444 -16.539  0.00  0.00    +0.087 C 
ATOM     12  C   UNL     1      30.666 -23.483 -14.763  0.00  0.00    +0.040 C 
ATOM     13  C   UNL     1      30.714 -22.680 -15.902  0.00  0.00    +0.152 C 
BRANCH   8  14
ATOM     14  S   UNL     1      34.521 -24.528 -14.268  0.00  0.00    +0.060 S 
ATOM     15  O   UNL     1      34.545 -24.353 -12.822  0.00  0.00    -0.153 OA
ATOM     16  O   UNL     1      34.638 -25.868 -14.828  0.00  0.00    -0.153 OA
BRANCH  14  17
ATOM     17  N   UNL     1      35.736 -23.542 -14.958  0.00  0.00    -0.179 NA
ATOM     18  H   UNL     1      35.359 -22.595 -14.999  0.00  0.00    +0.149 HD
BRANCH  17  19
ATOM     19  C   UNL     1      37.054 -23.447 -14.314  0.00  0.00    +0.091 C 
BRANCH  19  20
ATOM     20  C   UNL     1      37.648 -24.802 -14.122  0.00  0.00    +0.017 C 
ATOM     21  C   UNL     1      39.141 -24.957 -14.136  0.00  0.00    +0.001 C 
ATOM     22  C   UNL     1      38.384 -25.107 -12.850  0.00  0.00    +0.001 C 
ENDBRANCH  19  20
ENDBRANCH  17  19
ENDBRANCH  14  17
ENDBRANCH   8  14
BRANCH  13  23
ATOM     23  O   UNL     1      29.559 -22.136 -16.378  0.00  0.00    -0.470 OA
ATOM     24  C   UNL     1      28.355 -22.471 -15.691  0.00  0.00    +0.253 C 
ENDBRANCH  13  23
ENDBRANCH   2  11
BRANCH   5  25
ATOM     25  C   UNL     1      34.029 -19.275 -21.170  0.00  0.00    +0.036 C 
ATOM     26  C   UNL     1      33.915 -17.093 -22.201  0.00  0.00    +0.002 C 
ATOM     27  C   UNL     1      33.896 -17.891 -21.058  0.00  0.00    +0.003 C 
ATOM     28  C   UNL     1      34.183 -19.860 -22.427  0.00  0.00    +0.003 C 
ATOM     29  C   UNL     1      34.069 -17.679 -23.458  0.00  0.00    +0.000 C 
ATOM     30  C   UNL     1      34.203 -19.063 -23.571  0.00  0.00    +0.000 C 
BRANCH  26  32
ATOM     31  N   UNL     1      33.585 -13.506 -23.172  0.00  0.00    -0.242 NA
ATOM     32  C   UNL     1      33.776 -15.658 -22.085  0.00  0.00    +0.019 C 
ATOM     33  C   UNL     1      33.699 -15.043 -20.840  0.00  0.00    +0.003 C 
ATOM     34  C   UNL     1      33.715 -14.851 -23.211  0.00  0.00    +0.099 C 
ATOM     35  C   UNL     1      33.566 -13.662 -20.760  0.00  0.00    +0.021 C 
ATOM     36  C   UNL     1      33.514 -12.945 -21.945  0.00  0.00    +0.099 C 
ENDBRANCH  26  32
ENDBRANCH   5  25
TORSDOF 8
ENDMDL
MODEL 2
REMARK VINA RESULT:     -11.6      1.320      1.528
REMARK  Name = 4369498
REMARK  8 active torsions:
REMARK  status: ('A' for Active; 'I' for Inactive)
REMARK    1  A    between atoms: N_2  and  C_11
REMARK    2  A    between atoms: C_5  and  C_25
REMARK    3  A    between atoms: C_8  and  S_14
REMARK    4  A    between atoms: C_13  and  O_23
REMARK    5  A    between atoms: S_14  and  N_17
REMARK    6  A    between atoms: N_17  and  C_19
REMARK    7  A    between atoms: C_19  and  C_20
REMARK    8  A    between atoms: C_26  and  C_32
REMARK                            x       y       z     vdW  Elec       q    Type
REMARK                         _______ _______ _______ _____ _____    ______ ____
ROOT
ATOM      1  O   UNL     1      32.898 -20.477 -19.462  0.00  0.00    -0.424 OA
ATOM      2  N   UNL     1      32.208 -21.734 -17.667  0.00  0.00    -0.265 N 
ATOM      3  N   UNL     1      34.531 -21.339 -18.156  0.00  0.00    -0.193 NA
ATOM      4  C   UNL     1      33.241 -21.220 -18.374  0.00  0.00    +0.293 C 
ATOM      5  C   UNL     1      34.100 -20.093 -19.977  0.00  0.00    +0.168 C 
ATOM      6  C   UNL     1      35.087 -20.619 -19.181  0.00  0.00    +0.141 C 
ATOM      7  H   UNL     1      31.315 -21.512 -18.018  0.00  0.00    +0.157 HD
ENDROOT
BRANCH   2  11
ATOM      8  C   UNL     1      33.416 -23.915 -14.917  0.00  0.00    +0.123 C 
ATOM      9  C   UNL     1      33.403 -23.117 -16.061  0.00  0.00    +0.038 C 
ATOM     10  C   UNL     1      32.235 -24.139 -14.209  0.00  0.00    +0.023 C 
ATOM     11  C   UNL     1      32.208 -22.544 -16.496  0.00  0.00    +0.087 C 
ATOM     12  C   UNL     1      31.041 -23.566 -14.645  0.00  0.00    +0.040 C 
ATOM     13  C   UNL     1      31.027 -22.767 -15.789  0.00  0.00    +0.152 C 
BRANCH   8  14
ATOM     14  S   UNL     1      34.910 -24.637 -14.372  0.00  0.00    +0.060 S 
ATOM     15  O   UNL     1      35.029 -25.967 -14.956  0.00  0.00    -0.153 OA
ATOM     16  O   UNL     1      35.975 -23.666 -14.584  0.00  0.00    -0.153 OA
BRANCH  14  17
ATOM     17  N   UNL     1      34.649 -24.799 -12.690  0.00  0.00    -0.179 NA
ATOM     18  H   UNL     1      33.889 -25.469 -12.573  0.00  0.00    +0.149 HD
BRANCH  17  19
ATOM     19  C   UNL     1      35.746 -25.245 -11.819  0.00  0.00    +0.091 C 
BRANCH  19  20
ATOM     20  C   UNL     1      36.065 -24.206 -10.797  0.00  0.00    +0.017 C 
ATOM     21  C   UNL     1      37.257 -23.316 -11.003  0.00  0.00    +0.001 C 
ATOM     22  C   UNL     1      35.871 -22.757 -11.139  0.00  0.00    +0.001 C 
ENDBRANCH  19  20
ENDBRANCH  17  19
ENDBRANCH  14  17
ENDBRANCH   8  14
BRANCH  13  23
ATOM     23  O   UNL     1      29.850 -22.217 -16.199  0.00  0.00    -0.470 OA
ATOM     24  C   UNL     1      28.668 -22.641 -15.523  0.00  0.00    +0.253 C 
ENDBRANCH  13  23
ENDBRANCH   2  11
BRANCH   5  25
ATOM     25  C   UNL     1      34.057 -19.275 -21.164  0.00  0.00    +0.036 C 
ATOM     26  C   UNL     1      33.893 -17.099 -22.203  0.00  0.00    +0.002 C 
ATOM     27  C   UNL     1      33.934 -17.890 -21.055  0.00  0.00    +0.003 C 
ATOM     28  C   UNL     1      34.138 -19.870 -22.423  0.00  0.00    +0.003 C 
ATOM     29  C   UNL     1      33.974 -17.695 -23.462  0.00  0.00    +0.000 C 
ATOM     30  C   UNL     1      34.097 -19.080 -23.572  0.00  0.00    +0.000 C 
BRANCH  26  32
ATOM     31  N   UNL     1      33.610 -13.511 -23.180  0.00  0.00    -0.242 NA
ATOM     32  C   UNL     1      33.765 -15.663 -22.089  0.00  0.00    +0.019 C 
ATOM     33  C   UNL     1      33.676 -15.047 -20.846  0.00  0.00    +0.003 C 
ATOM     34  C   UNL     1      33.728 -14.857 -23.216  0.00  0.00    +0.099 C 
ATOM     35  C   UNL     1      33.554 -13.664 -20.769  0.00  0.00    +0.021 C 
ATOM     36  C   UNL     1      33.526 -12.948 -21.955  0.00  0.00    +0.099 C 
ENDBRANCH  26  32
ENDBRANCH   5  25
TORSDOF 8
ENDMDL
MODEL 3
REMARK VINA RESULT:     -11.5      2.276      5.254
REMARK  Name = 4369498
REMARK  8 active torsions:
REMARK  status: ('A' for Active; 'I' for Inactive)
REMARK    1  A    between atoms: N_2  and  C_11
REMARK    2  A    between atoms: C_5  and  C_25
REMARK    3  A    between atoms: C_8  and  S_14
REMARK    4  A    between atoms: C_13  and  O_23
REMARK    5  A    between atoms: S_14  and  N_17
REMARK    6  A    between atoms: N_17  and  C_19
REMARK    7  A    between atoms: C_19  and  C_20
REMARK    8  A    between atoms: C_26  and  C_32
REMARK                            x       y       z     vdW  Elec       q    Type
REMARK                         _______ _______ _______ _____ _____    ______ ____
ROOT
ATOM      1  O   UNL     1      35.213 -20.787 -17.848  0.00  0.00    -0.424 OA
ATOM      2  N   UNL     1      35.028 -21.998 -15.905  0.00  0.00    -0.265 N 
ATOM      3  N   UNL     1      33.481 -22.237 -17.732  0.00  0.00    -0.193 NA
ATOM      4  C   UNL     1      34.532 -21.724 -17.133  0.00  0.00    +0.293 C 
ATOM      5  C   UNL     1      34.515 -20.708 -19.016  0.00  0.00    +0.168 C 
ATOM      6  C   UNL     1      33.465 -21.589 -18.940  0.00  0.00    +0.141 C 
ATOM      7  H   UNL     1      35.833 -21.488 -15.660  0.00  0.00    +0.157 HD
ENDROOT
BRANCH   2  11
ATOM      8  C   UNL     1      32.749 -23.836 -13.621  0.00  0.00    +0.123 C 
ATOM      9  C   UNL     1      33.212 -22.952 -14.597  0.00  0.00    +0.038 C 
ATOM     10  C   UNL     1      33.646 -24.676 -12.960  0.00  0.00    +0.023 C 
ATOM     11  C   UNL     1      34.570 -22.908 -14.910  0.00  0.00    +0.087 C 
ATOM     12  C   UNL     1      35.005 -24.631 -13.274  0.00  0.00    +0.040 C 
ATOM     13  C   UNL     1      35.466 -23.747 -14.249  0.00  0.00    +0.152 C 
BRANCH   8  14
ATOM     14  S   UNL     1      31.049 -23.890 -13.225  0.00  0.00    +0.060 S 
ATOM     15  O   UNL     1      30.634 -25.284 -13.132  0.00  0.00    -0.153 OA
ATOM     16  O   UNL     1      30.829 -23.002 -12.092  0.00  0.00    -0.153 OA
BRANCH  14  17
ATOM     17  N   UNL     1      30.327 -23.196 -14.610  0.00  0.00    -0.179 NA
ATOM     18  H   UNL     1      30.059 -23.967 -15.221  0.00  0.00    +0.149 HD
BRANCH  17  19
ATOM     19  C   UNL     1      29.142 -22.338 -14.464  0.00  0.00    +0.091 C 
BRANCH  19  20
ATOM     20  C   UNL     1      27.897 -23.095 -14.789  0.00  0.00    +0.017 C 
ATOM     21  C   UNL     1      26.642 -22.339 -15.112  0.00  0.00    +0.001 C 
ATOM     22  C   UNL     1      27.373 -23.076 -16.195  0.00  0.00    +0.001 C 
ENDBRANCH  19  20
ENDBRANCH  17  19
ENDBRANCH  14  17
ENDBRANCH   8  14
BRANCH  13  23
ATOM     23  O   UNL     1      36.798 -23.718 -14.540  0.00  0.00    -0.470 OA
ATOM     24  C   UNL     1      37.603 -24.758 -13.989  0.00  0.00    +0.253 C 
ENDBRANCH  13  23
ENDBRANCH   2  11
BRANCH   5  25
ATOM     25  C   UNL     1      35.010 -19.774 -19.996  0.00  0.00    +0.036 C 
ATOM     26  C   UNL     1      34.628 -18.341 -21.903  0.00  0.00    +0.002 C 
ATOM     27  C   UNL     1      34.148 -19.244 -20.956  0.00  0.00    +0.003 C 
ATOM     28  C   UNL     1      36.354 -19.399 -19.985  0.00  0.00    +0.003 C 
ATOM     29  C   UNL     1      35.972 -17.967 -21.891  0.00  0.00    +0.000 C 
ATOM     30  C   UNL     1      36.835 -18.495 -20.932  0.00  0.00    +0.000 C 
BRANCH  26  32
ATOM     31  N   UNL     1      31.949 -18.148 -24.492  0.00  0.00    -0.242 NA
ATOM     32  C   UNL     1      33.733 -17.792 -22.899  0.00  0.00    +0.019 C 
ATOM     33  C   UNL     1      33.769 -16.443 -23.230  0.00  0.00    +0.003 C 
ATOM     34  C   UNL     1      32.812 -18.596 -23.554  0.00  0.00    +0.099 C 
ATOM     35  C   UNL     1      32.896 -15.945 -24.191  0.00  0.00    +0.021 C 
ATOM     36  C   UNL     1      32.014 -16.831 -24.788  0.00  0.00    +0.099 C 
ENDBRANCH  26  32
ENDBRANCH   5  25
TORSDOF 8
ENDMDL
MODEL 4
REMARK VINA RESULT:     -11.4      1.171      1.412
REMARK  Name = 4369498
REMARK  8 active torsions:
REMARK  status: ('A' for Active; 'I' for Inactive)
REMARK    1  A    between atoms: N_2  and  C_11
REMARK    2  A    between atoms: C_5  and  C_25
REMARK    3  A    between atoms: C_8  and  S_14
REMARK    4  A    between atoms: C_13  and  O_23
REMARK    5  A    between atoms: S_14  and  N_17
REMARK    6  A    between atoms: N_17  and  C_19
REMARK    7  A    between atoms: C_19  and  C_20
REMARK    8  A    between atoms: C_26  and  C_32
REMARK                            x       y       z     vdW  Elec       q    Type
REMARK                         _______ _______ _______ _____ _____    ______ ____
ROOT
ATOM      1  O   UNL     1      33.177 -20.277 -19.814  0.00  0.00    -0.424 OA
ATOM      2  N   UNL     1      32.747 -21.522 -17.931  0.00  0.00    -0.265 N 
ATOM      3  N   UNL     1      34.957 -20.767 -18.508  0.00  0.00    -0.193 NA
ATOM      4  C   UNL     1      33.662 -20.883 -18.696  0.00  0.00    +0.293 C 
ATOM      5  C   UNL     1      34.285 -19.726 -20.383  0.00  0.00    +0.168 C 
ATOM      6  C   UNL     1      35.362 -20.025 -19.587  0.00  0.00    +0.141 C 
ATOM      7  H   UNL     1      31.823 -21.478 -18.269  0.00  0.00    +0.157 HD
ENDROOT
BRANCH   2  11
ATOM      8  C   UNL     1      34.357 -23.124 -14.994  0.00  0.00    +0.123 C 
ATOM      9  C   UNL     1      34.185 -22.413 -16.183  0.00  0.00    +0.038 C 
ATOM     10  C   UNL     1      33.250 -23.667 -14.341  0.00  0.00    +0.023 C 
ATOM     11  C   UNL     1      32.907 -22.247 -16.717  0.00  0.00    +0.087 C 
ATOM     12  C   UNL     1      31.973 -23.501 -14.876  0.00  0.00    +0.040 C 
ATOM     13  C   UNL     1      31.801 -22.790 -16.064  0.00  0.00    +0.152 C 
BRANCH   8  14
ATOM     14  S   UNL     1      35.956 -23.336 -14.326  0.00  0.00    +0.060 S 
ATOM     15  O   UNL     1      36.898 -22.540 -15.103  0.00  0.00    -0.153 OA
ATOM     16  O   UNL     1      35.867 -23.131 -12.887  0.00  0.00    -0.153 OA
BRANCH  14  17
ATOM     17  N   UNL     1      36.262 -24.991 -14.623  0.00  0.00    -0.179 NA
ATOM     18  H   UNL     1      36.813 -25.040 -15.480  0.00  0.00    +0.149 HD
BRANCH  17  19
ATOM     19  C   UNL     1      36.971 -25.796 -13.617  0.00  0.00    +0.091 C 
BRANCH  19  20
ATOM     20  C   UNL     1      38.302 -25.198 -13.303  0.00  0.00    +0.017 C 
ATOM     21  C   UNL     1      39.524 -26.069 -13.342  0.00  0.00    +0.001 C 
ATOM     22  C   UNL     1      39.309 -25.031 -14.403  0.00  0.00    +0.001 C 
ENDBRANCH  19  20
ENDBRANCH  17  19
ENDBRANCH  14  17
ENDBRANCH   8  14
BRANCH  13  23
ATOM     23  O   UNL     1      30.545 -22.640 -16.570  0.00  0.00    -0.470 OA
ATOM     24  C   UNL     1      29.459 -22.753 -15.652  0.00  0.00    +0.253 C 
ENDBRANCH  13  23
ENDBRANCH   2  11
BRANCH   5  25
ATOM     25  C   UNL     1      34.080 -19.001 -21.613  0.00  0.00    +0.036 C 
ATOM     26  C   UNL     1      33.714 -16.917 -22.780  0.00  0.00    +0.002 C 
ATOM     27  C   UNL     1      33.912 -17.617 -21.590  0.00  0.00    +0.003 C 
ATOM     28  C   UNL     1      34.052 -19.686 -22.829  0.00  0.00    +0.003 C 
ATOM     29  C   UNL     1      33.685 -17.603 -23.995  0.00  0.00    +0.000 C 
ATOM     30  C   UNL     1      33.855 -18.987 -24.019  0.00  0.00    +0.000 C 
BRANCH  26  32
ATOM     31  N   UNL     1      32.962 -13.451 -23.935  0.00  0.00    -0.242 NA
ATOM     32  C   UNL     1      33.538 -15.482 -22.755  0.00  0.00    +0.019 C 
ATOM     33  C   UNL     1      33.758 -14.752 -21.593  0.00  0.00    +0.003 C 
ATOM     34  C   UNL     1      33.145 -14.790 -23.890  0.00  0.00    +0.099 C 
ATOM     35  C   UNL     1      33.580 -13.373 -21.600  0.00  0.00    +0.021 C 
ATOM     36  C   UNL     1      33.185 -12.776 -22.786  0.00  0.00    +0.099 C 
ENDBRANCH  26  32
ENDBRANCH   5  25
TORSDOF 8
ENDMDL
MODEL 5
REMARK VINA RESULT:     -11.3      3.100      6.134
REMARK  Name = 4369498
REMARK  8 active torsions:
REMARK  status: ('A' for Active; 'I' for Inactive)
REMARK    1  A    between atoms: N_2  and  C_11
REMARK    2  A    between atoms: C_5  and  C_25
REMARK    3  A    between atoms: C_8  and  S_14
REMARK    4  A    between atoms: C_13  and  O_23
REMARK    5  A    between atoms: S_14  and  N_17
REMARK    6  A    between atoms: N_17  and  C_19
REMARK    7  A    between atoms: C_19  and  C_20
REMARK    8  A    between atoms: C_26  and  C_32
REMARK                            x       y       z     vdW  Elec       q    Type
REMARK                         _______ _______ _______ _____ _____    ______ ____
ROOT
ATOM      1  O   UNL     1      33.735 -16.482 -22.372  0.00  0.00    -0.424 OA
ATOM      2  N   UNL     1      34.262 -18.426 -21.266  0.00  0.00    -0.265 N 
ATOM      3  N   UNL     1      34.145 -16.295 -20.155  0.00  0.00    -0.193 NA
ATOM      4  C   UNL     1      34.064 -17.089 -21.198  0.00  0.00    +0.293 C 
ATOM      5  C   UNL     1      33.597 -15.172 -22.024  0.00  0.00    +0.168 C 
ATOM      6  C   UNL     1      33.846 -15.063 -20.679  0.00  0.00    +0.141 C 
ATOM      7  H   UNL     1      34.146 -18.817 -22.162  0.00  0.00    +0.157 HD
ENDROOT
BRANCH   2  11
ATOM      8  C   UNL     1      33.982 -21.170 -18.782  0.00  0.00    +0.123 C 
ATOM      9  C   UNL     1      33.653 -20.254 -19.782  0.00  0.00    +0.038 C 
ATOM     10  C   UNL     1      35.271 -21.187 -18.248  0.00  0.00    +0.023 C 
ATOM     11  C   UNL     1      34.613 -19.356 -20.247  0.00  0.00    +0.087 C 
ATOM     12  C   UNL     1      36.231 -20.288 -18.714  0.00  0.00    +0.040 C 
ATOM     13  C   UNL     1      35.902 -19.373 -19.714  0.00  0.00    +0.152 C 
BRANCH   8  14
ATOM     14  S   UNL     1      32.780 -22.293 -18.195  0.00  0.00    +0.060 S 
ATOM     15  O   UNL     1      31.493 -21.613 -18.134  0.00  0.00    -0.153 OA
ATOM     16  O   UNL     1      32.903 -23.520 -18.970  0.00  0.00    -0.153 OA
BRANCH  14  17
ATOM     17  N   UNL     1      33.312 -22.602 -16.600  0.00  0.00    -0.179 NA
ATOM     18  H   UNL     1      33.444 -21.695 -16.152  0.00  0.00    +0.149 HD
BRANCH  17  19
ATOM     19  C   UNL     1      32.480 -23.406 -15.694  0.00  0.00    +0.091 C 
BRANCH  19  20
ATOM     20  C   UNL     1      31.739 -22.531 -14.739  0.00  0.00    +0.017 C 
ATOM     21  C   UNL     1      30.262 -22.732 -14.554  0.00  0.00    +0.001 C 
ATOM     22  C   UNL     1      31.215 -23.118 -13.461  0.00  0.00    +0.001 C 
ENDBRANCH  19  20
ENDBRANCH  17  19
ENDBRANCH  14  17
ENDBRANCH   8  14
BRANCH  13  23
ATOM     23  O   UNL     1      36.853 -18.503 -20.155  0.00  0.00    -0.470 OA
ATOM     24  C   UNL     1      37.116 -18.486 -21.556  0.00  0.00    +0.253 C 
ENDBRANCH  13  23
ENDBRANCH   2  11
BRANCH   5  25
ATOM     25  C   UNL     1      33.243 -14.261 -23.085  0.00  0.00    +0.036 C 
ATOM     26  C   UNL     1      33.053 -12.007 -23.933  0.00  0.00    +0.002 C 
ATOM     27  C   UNL     1      33.395 -12.886 -22.907  0.00  0.00    +0.003 C 
ATOM     28  C   UNL     1      32.750 -14.757 -24.293  0.00  0.00    +0.003 C 
ATOM     29  C   UNL     1      32.559 -12.503 -25.140  0.00  0.00    +0.000 C 
ATOM     30  C   UNL     1      32.408 -13.878 -25.320  0.00  0.00    +0.000 C 
BRANCH  26  32
ATOM     31  N   UNL     1      32.485  -8.549 -22.654  0.00  0.00    -0.242 NA
ATOM     32  C   UNL     1      33.210 -10.581 -23.747  0.00  0.00    +0.019 C 
ATOM     33  C   UNL     1      34.184  -9.870 -24.438  0.00  0.00    +0.003 C 
ATOM     34  C   UNL     1      32.392  -9.880 -22.874  0.00  0.00    +0.099 C 
ATOM     35  C   UNL     1      34.310  -8.500 -24.238  0.00  0.00    +0.021 C 
ATOM     36  C   UNL     1      33.444  -7.893 -23.344  0.00  0.00    +0.099 C 
ENDBRANCH  26  32
ENDBRANCH   5  25
TORSDOF 8
ENDMDL
MODEL 6
REMARK VINA RESULT:     -11.2      6.565     13.008
REMARK  Name = 4369498
REMARK  8 active torsions:
REMARK  status: ('A' for Active; 'I' for Inactive)
REMARK    1  A    between atoms: N_2  and  C_11
REMARK    2  A    between atoms: C_5  and  C_25
REMARK    3  A    between atoms: C_8  and  S_14
REMARK    4  A    between atoms: C_13  and  O_23
REMARK    5  A    between atoms: S_14  and  N_17
REMARK    6  A    between atoms: N_17  and  C_19
REMARK    7  A    between atoms: C_19  and  C_20
REMARK    8  A    between atoms: C_26  and  C_32
REMARK                            x       y       z     vdW  Elec       q    Type
REMARK                         _______ _______ _______ _____ _____    ______ ____
ROOT
ATOM      1  O   UNL     1      33.499 -13.702 -23.349  0.00  0.00    -0.424 OA
ATOM      2  N   UNL     1      33.319 -11.435 -23.679  0.00  0.00    -0.265 N 
ATOM      3  N   UNL     1      33.451 -12.419 -21.487  0.00  0.00    -0.193 NA
ATOM      4  C   UNL     1      33.419 -12.458 -22.800  0.00  0.00    +0.293 C 
ATOM      5  C   UNL     1      33.590 -14.523 -22.266  0.00  0.00    +0.168 C 
ATOM      6  C   UNL     1      33.560 -13.741 -21.139  0.00  0.00    +0.141 C 
ATOM      7  H   UNL     1      33.314 -11.702 -24.627  0.00  0.00    +0.157 HD
ENDROOT
BRANCH   2  11
ATOM      8  C   UNL     1      31.954  -8.147 -22.626  0.00  0.00    +0.123 C 
ATOM      9  C   UNL     1      32.068  -9.519 -22.852  0.00  0.00    +0.038 C 
ATOM     10  C   UNL     1      32.991  -7.291 -22.997  0.00  0.00    +0.023 C 
ATOM     11  C   UNL     1      33.217 -10.034 -23.451  0.00  0.00    +0.087 C 
ATOM     12  C   UNL     1      34.141  -7.806 -23.596  0.00  0.00    +0.040 C 
ATOM     13  C   UNL     1      34.254  -9.177 -23.822  0.00  0.00    +0.152 C 
BRANCH   8  14
ATOM     14  S   UNL     1      30.513  -7.500 -21.880  0.00  0.00    +0.060 S 
ATOM     15  O   UNL     1      30.157  -6.256 -22.549  0.00  0.00    -0.153 OA
ATOM     16  O   UNL     1      29.533  -8.575 -21.803  0.00  0.00    -0.153 OA
BRANCH  14  17
ATOM     17  N   UNL     1      31.049  -7.137 -20.298  0.00  0.00    -0.179 NA
ATOM     18  H   UNL     1      30.240  -6.787 -19.785  0.00  0.00    +0.149 HD
BRANCH  17  19
ATOM     19  C   UNL     1      31.653  -8.192 -19.470  0.00  0.00    +0.091 C 
BRANCH  19  20
ATOM     20  C   UNL     1      30.617  -9.163 -19.013  0.00  0.00    +0.017 C 
ATOM     21  C   UNL     1      30.866 -10.634 -19.181  0.00  0.00    +0.001 C 
ATOM     22  C   UNL     1      30.895 -10.021 -17.813  0.00  0.00    +0.001 C 
ENDBRANCH  19  20
ENDBRANCH  17  19
ENDBRANCH  14  17
ENDBRANCH   8  14
BRANCH  13  23
ATOM     23  O   UNL     1      35.385  -9.660 -24.409  0.00  0.00    -0.470 OA
ATOM     24  C   UNL     1      35.422  -9.667 -25.835  0.00  0.00    +0.253 C 
ENDBRANCH  13  23
ENDBRANCH   2  11
BRANCH   5  25
ATOM     25  C   UNL     1      33.689 -15.936 -22.540  0.00  0.00    +0.036 C 
ATOM     26  C   UNL     1      34.079 -18.194 -21.776  0.00  0.00    +0.002 C 
ATOM     27  C   UNL     1      33.984 -16.829 -21.510  0.00  0.00    +0.003 C 
ATOM     28  C   UNL     1      33.488 -16.410 -23.837  0.00  0.00    +0.003 C 
ATOM     29  C   UNL     1      33.878 -18.667 -23.073  0.00  0.00    +0.000 C 
ATOM     30  C   UNL     1      33.582 -17.775 -24.103  0.00  0.00    +0.000 C 
BRANCH  26  32
ATOM     31  N   UNL     1      36.014 -20.028 -19.166  0.00  0.00    -0.242 NA
ATOM     32  C   UNL     1      34.387 -19.120 -20.708  0.00  0.00    +0.019 C 
ATOM     33  C   UNL     1      33.415 -19.970 -20.193  0.00  0.00    +0.003 C 
ATOM     34  C   UNL     1      35.660 -19.188 -20.164  0.00  0.00    +0.099 C 
ATOM     35  C   UNL     1      33.741 -20.849 -19.167  0.00  0.00    +0.021 C 
ATOM     36  C   UNL     1      35.043 -20.839 -18.693  0.00  0.00    +0.099 C 
ENDBRANCH  26  32
ENDBRANCH   5  25
TORSDOF 8
ENDMDL
MODEL 7
REMARK VINA RESULT:     -11.2      5.248     10.135
REMARK  Name = 4369498
REMARK  8 active torsions:
REMARK  status: ('A' for Active; 'I' for Inactive)
REMARK    1  A    between atoms: N_2  and  C_11
REMARK    2  A    between atoms: C_5  and  C_25
REMARK    3  A    between atoms: C_8  and  S_14
REMARK    4  A    between atoms: C_13  and  O_23
REMARK    5  A    between atoms: S_14  and  N_17
REMARK    6  A    between atoms: N_17  and  C_19
REMARK    7  A    between atoms: C_19  and  C_20
REMARK    8  A    between atoms: C_26  and  C_32
REMARK                            x       y       z     vdW  Elec       q    Type
REMARK                         _______ _______ _______ _____ _____    ______ ____
ROOT
ATOM      1  O   UNL     1      32.442 -11.240 -22.141  0.00  0.00    -0.424 OA
ATOM      2  N   UNL     1      33.085 -13.274 -22.994  0.00  0.00    -0.265 N 
ATOM      3  N   UNL     1      31.444 -13.063 -21.247  0.00  0.00    -0.193 NA
ATOM      4  C   UNL     1      32.310 -12.595 -22.118  0.00  0.00    +0.293 C 
ATOM      5  C   UNL     1      31.568 -10.819 -21.184  0.00  0.00    +0.168 C 
ATOM      6  C   UNL     1      30.966 -11.929 -20.645  0.00  0.00    +0.141 C 
ATOM      7  H   UNL     1      33.665 -12.711 -23.557  0.00  0.00    +0.157 HD
ENDROOT
BRANCH   2  11
ATOM      8  C   UNL     1      33.972 -16.848 -22.518  0.00  0.00    +0.123 C 
ATOM      9  C   UNL     1      33.852 -15.475 -22.296  0.00  0.00    +0.038 C 
ATOM     10  C   UNL     1      33.436 -17.417 -23.673  0.00  0.00    +0.023 C 
ATOM     11  C   UNL     1      33.197 -14.673 -23.231  0.00  0.00    +0.087 C 
ATOM     12  C   UNL     1      32.781 -16.614 -24.608  0.00  0.00    +0.040 C 
ATOM     13  C   UNL     1      32.662 -15.242 -24.386  0.00  0.00    +0.152 C 
BRANCH   8  14
ATOM     14  S   UNL     1      34.794 -17.853 -21.350  0.00  0.00    +0.060 S 
ATOM     15  O   UNL     1      36.083 -18.253 -21.901  0.00  0.00    -0.153 OA
ATOM     16  O   UNL     1      34.749 -17.168 -20.065  0.00  0.00    -0.153 OA
BRANCH  14  17
ATOM     17  N   UNL     1      33.782 -19.228 -21.271  0.00  0.00    -0.179 NA
ATOM     18  H   UNL     1      34.241 -19.964 -21.808  0.00  0.00    +0.149 HD
BRANCH  17  19
ATOM     19  C   UNL     1      33.437 -19.808 -19.965  0.00  0.00    +0.091 C 
BRANCH  19  20
ATOM     20  C   UNL     1      34.312 -20.977 -19.657  0.00  0.00    +0.017 C 
ATOM     21  C   UNL     1      35.259 -20.898 -18.495  0.00  0.00    +0.001 C 
ATOM     22  C   UNL     1      34.050 -21.783 -18.418  0.00  0.00    +0.001 C 
ENDBRANCH  19  20
ENDBRANCH  17  19
ENDBRANCH  14  17
ENDBRANCH   8  14
BRANCH  13  23
ATOM     23  O   UNL     1      32.020 -14.476 -25.312  0.00  0.00    -0.470 OA
ATOM     24  C   UNL     1      32.746 -13.377 -25.858  0.00  0.00    +0.253 C 
ENDBRANCH  13  23
ENDBRANCH   2  11
BRANCH   5  25
ATOM     25  C   UNL     1      31.486  -9.395 -20.973  0.00  0.00    +0.036 C 
ATOM     26  C   UNL     1      31.855  -7.138 -21.754  0.00  0.00    +0.002 C 
ATOM     27  C   UNL     1      31.936  -8.515 -21.958  0.00  0.00    +0.003 C 
ATOM     28  C   UNL     1      30.954  -8.896 -19.784  0.00  0.00    +0.003 C 
ATOM     29  C   UNL     1      31.324  -6.640 -20.564  0.00  0.00    +0.000 C 
ATOM     30  C   UNL     1      30.873  -7.519 -19.579  0.00  0.00    +0.000 C 
BRANCH  26  32
ATOM     31  N   UNL     1      31.878  -4.340 -24.220  0.00  0.00    -0.242 NA
ATOM     32  C   UNL     1      32.323  -6.227 -22.775  0.00  0.00    +0.019 C 
ATOM     33  C   UNL     1      33.610  -6.328 -23.292  0.00  0.00    +0.003 C 
ATOM     34  C   UNL     1      31.503  -5.224 -23.269  0.00  0.00    +0.099 C 
ATOM     35  C   UNL     1      34.031  -5.437 -24.272  0.00  0.00    +0.021 C 
ATOM     36  C   UNL     1      33.134  -4.470 -24.699  0.00  0.00    +0.099 C 
ENDBRANCH  26  32
ENDBRANCH   5  25
TORSDOF 8
ENDMDL
MODEL 8
REMARK VINA RESULT:     -11.1      8.320     14.712
REMARK  Name = 4369498
REMARK  8 active torsions:
REMARK  status: ('A' for Active; 'I' for Inactive)
REMARK    1  A    between atoms: N_2  and  C_11
REMARK    2  A    between atoms: C_5  and  C_25
REMARK    3  A    between atoms: C_8  and  S_14
REMARK    4  A    between atoms: C_13  and  O_23
REMARK    5  A    between atoms: S_14  and  N_17
REMARK    6  A    between atoms: N_17  and  C_19
REMARK    7  A    between atoms: C_19  and  C_20
REMARK    8  A    between atoms: C_26  and  C_32
REMARK                            x       y       z     vdW  Elec       q    Type
REMARK                         _______ _______ _______ _____ _____    ______ ____
ROOT
ATOM      1  O   UNL     1      31.877 -11.324 -22.469  0.00  0.00    -0.424 OA
ATOM      2  N   UNL     1      31.215  -9.415 -21.375  0.00  0.00    -0.265 N 
ATOM      3  N   UNL     1      33.000  -9.431 -22.988  0.00  0.00    -0.193 NA
ATOM      4  C   UNL     1      32.048  -9.987 -22.274  0.00  0.00    +0.293 C 
ATOM      5  C   UNL     1      32.821 -11.633 -23.401  0.00  0.00    +0.168 C 
ATOM      6  C   UNL     1      33.500 -10.482 -23.712  0.00  0.00    +0.141 C 
ATOM      7  H   UNL     1      30.572 -10.031 -20.955  0.00  0.00    +0.157 HD
ENDROOT
BRANCH   2  11
ATOM      8  C   UNL     1      30.611  -5.752 -21.419  0.00  0.00    +0.123 C 
ATOM      9  C   UNL     1      30.703  -7.081 -21.834  0.00  0.00    +0.038 C 
ATOM     10  C   UNL     1      30.937  -5.406 -20.108  0.00  0.00    +0.023 C 
ATOM     11  C   UNL     1      31.123  -8.063 -20.937  0.00  0.00    +0.087 C 
ATOM     12  C   UNL     1      31.357  -6.389 -19.211  0.00  0.00    +0.040 C 
ATOM     13  C   UNL     1      31.449  -7.718 -19.626  0.00  0.00    +0.152 C 
BRANCH   8  14
ATOM     14  S   UNL     1      30.089  -4.520 -22.542  0.00  0.00    +0.060 S 
ATOM     15  O   UNL     1      29.540  -5.168 -23.727  0.00  0.00    -0.153 OA
ATOM     16  O   UNL     1      29.271  -3.566 -21.806  0.00  0.00    -0.153 OA
BRANCH  14  17
ATOM     17  N   UNL     1      31.561  -3.762 -22.966  0.00  0.00    -0.179 NA
ATOM     18  H   UNL     1      32.284  -4.167 -22.372  0.00  0.00    +0.149 HD
BRANCH  17  19
ATOM     19  C   UNL     1      32.053  -3.842 -24.349  0.00  0.00    +0.091 C 
BRANCH  19  20
ATOM     20  C   UNL     1      32.732  -5.149 -24.594  0.00  0.00    +0.017 C 
ATOM     21  C   UNL     1      34.186  -5.162 -24.966  0.00  0.00    +0.001 C 
ATOM     22  C   UNL     1      33.754  -5.640 -23.612  0.00  0.00    +0.001 C 
ENDBRANCH  19  20
ENDBRANCH  17  19
ENDBRANCH  14  17
ENDBRANCH   8  14
BRANCH  13  23
ATOM     23  O   UNL     1      31.862  -8.662 -18.735  0.00  0.00    -0.470 OA
ATOM     24  C   UNL     1      30.853  -9.478 -18.142  0.00  0.00    +0.253 C 
ENDBRANCH  13  23
ENDBRANCH   2  11
BRANCH   5  25
ATOM     25  C   UNL     1      32.883 -13.013 -23.815  0.00  0.00    +0.036 C 
ATOM     26  C   UNL     1      33.434 -15.318 -23.345  0.00  0.00    +0.002 C 
ATOM     27  C   UNL     1      33.375 -13.984 -22.943  0.00  0.00    +0.003 C 
ATOM     28  C   UNL     1      32.450 -13.378 -25.091  0.00  0.00    +0.003 C 
ATOM     29  C   UNL     1      33.001 -15.681 -24.621  0.00  0.00    +0.000 C 
ATOM     30  C   UNL     1      32.509 -14.711 -25.494  0.00  0.00    +0.000 C 
BRANCH  26  32
ATOM     31  N   UNL     1      34.551 -16.960 -20.187  0.00  0.00    -0.242 NA
ATOM     32  C   UNL     1      33.945 -16.324 -22.440  0.00  0.00    +0.019 C 
ATOM     33  C   UNL     1      34.314 -17.583 -22.901  0.00  0.00    +0.003 C 
ATOM     34  C   UNL     1      34.081 -16.065 -21.085  0.00  0.00    +0.099 C 
ATOM     35  C   UNL     1      34.802 -18.529 -22.008  0.00  0.00    +0.021 C 
ATOM     36  C   UNL     1      34.900 -18.171 -20.673  0.00  0.00    +0.099 C 
ENDBRANCH  26  32
ENDBRANCH   5  25
TORSDOF 8
ENDMDL
MODEL 9
REMARK VINA RESULT:     -10.9      5.150      9.698
REMARK  Name = 4369498
REMARK  8 active torsions:
REMARK  status: ('A' for Active; 'I' for Inactive)
REMARK    1  A    between atoms: N_2  and  C_11
REMARK    2  A    between atoms: C_5  and  C_25
REMARK    3  A    between atoms: C_8  and  S_14
REMARK    4  A    between atoms: C_13  and  O_23
REMARK    5  A    between atoms: S_14  and  N_17
REMARK    6  A    between atoms: N_17  and  C_19
REMARK    7  A    between atoms: C_19  and  C_20
REMARK    8  A    between atoms: C_26  and  C_32
REMARK                            x       y       z     vdW  Elec       q    Type
REMARK                         _______ _______ _______ _____ _____    ______ ____
ROOT
ATOM      1  O   UNL     1      33.329 -11.866 -23.698  0.00  0.00    -0.424 OA
ATOM      2  N   UNL     1      33.622 -14.137 -23.895  0.00  0.00    -0.265 N 
ATOM      3  N   UNL     1      32.321 -13.147 -22.130  0.00  0.00    -0.193 NA
ATOM      4  C   UNL     1      33.071 -13.110 -23.207  0.00  0.00    +0.293 C 
ATOM      5  C   UNL     1      32.671 -11.042 -22.836  0.00  0.00    +0.168 C 
ATOM      6  C   UNL     1      32.061 -11.823 -21.887  0.00  0.00    +0.141 C 
ATOM      7  H   UNL     1      34.153 -13.871 -24.681  0.00  0.00    +0.157 HD
ENDROOT
BRANCH   2  11
ATOM      8  C   UNL     1      34.273 -17.475 -22.407  0.00  0.00    +0.123 C 
ATOM      9  C   UNL     1      34.325 -16.101 -22.644  0.00  0.00    +0.038 C 
ATOM     10  C   UNL     1      33.451 -18.286 -23.190  0.00  0.00    +0.023 C 
ATOM     11  C   UNL     1      33.556 -15.540 -23.663  0.00  0.00    +0.087 C 
ATOM     12  C   UNL     1      32.682 -17.724 -24.209  0.00  0.00    +0.040 C 
ATOM     13  C   UNL     1      32.734 -16.351 -24.445  0.00  0.00    +0.152 C 
BRANCH   8  14
ATOM     14  S   UNL     1      35.238 -18.180 -21.134  0.00  0.00    +0.060 S 
ATOM     15  O   UNL     1      36.601 -18.354 -21.620  0.00  0.00    -0.153 OA
ATOM     16  O   UNL     1      35.005 -17.408 -19.921  0.00  0.00    -0.153 OA
BRANCH  14  17
ATOM     17  N   UNL     1      34.525 -19.722 -20.943  0.00  0.00    -0.179 NA
ATOM     18  H   UNL     1      35.249 -20.410 -21.153  0.00  0.00    +0.149 HD
BRANCH  17  19
ATOM     19  C   UNL     1      33.940 -20.103 -19.649  0.00  0.00    +0.091 C 
BRANCH  19  20
ATOM     20  C   UNL     1      34.572 -21.351 -19.130  0.00  0.00    +0.017 C 
ATOM     21  C   UNL     1      35.424 -21.284 -17.895  0.00  0.00    +0.001 C 
ATOM     22  C   UNL     1      34.077 -21.942 -17.842  0.00  0.00    +0.001 C 
ENDBRANCH  19  20
ENDBRANCH  17  19
ENDBRANCH  14  17
ENDBRANCH   8  14
BRANCH  13  23
ATOM     23  O   UNL     1      31.977 -15.822 -25.447  0.00  0.00    -0.470 OA
ATOM     24  C   UNL     1      30.800 -16.538 -25.816  0.00  0.00    +0.253 C 
ENDBRANCH  13  23
ENDBRANCH   2  11
BRANCH   5  25
ATOM     25  C   UNL     1      32.764  -9.628 -23.105  0.00  0.00    +0.036 C 
ATOM     26  C   UNL     1      32.068  -7.360 -22.649  0.00  0.00    +0.002 C 
ATOM     27  C   UNL     1      31.977  -8.726 -22.388  0.00  0.00    +0.003 C 
ATOM     28  C   UNL     1      33.643  -9.161 -24.083  0.00  0.00    +0.003 C 
ATOM     29  C   UNL     1      32.947  -6.894 -23.627  0.00  0.00    +0.000 C 
ATOM     30  C   UNL     1      33.735  -7.794 -24.344  0.00  0.00    +0.000 C 
BRANCH  26  32
ATOM     31  N   UNL     1      29.611  -4.649 -21.923  0.00  0.00    -0.242 NA
ATOM     32  C   UNL     1      31.251  -6.425 -21.906  0.00  0.00    +0.019 C 
ATOM     33  C   UNL     1      31.295  -6.380 -20.517  0.00  0.00    +0.003 C 
ATOM     34  C   UNL     1      30.399  -5.545 -22.556  0.00  0.00    +0.099 C 
ATOM     35  C   UNL     1      30.498  -5.470 -19.831  0.00  0.00    +0.021 C 
ATOM     36  C   UNL     1      29.681  -4.634 -20.574  0.00  0.00    +0.099 C 
ENDBRANCH  26  32
ENDBRANCH   5  25
TORSDOF 8
ENDMDL
