MODEL 1
REMARK VINA RESULT:     -11.8      0.000      0.000
REMARK  Name = 15985904
REMARK  7 active torsions:
REMARK  status: ('A' for Active; 'I' for Inactive)
REMARK    1  A    between atoms: N_1  and  S_6
REMARK    2  A    between atoms: C_4  and  C_21
REMARK    3  A    between atoms: S_6  and  C_9
REMARK    4  A    between atoms: C_10  and  C_17
REMARK    5  A    between atoms: C_22  and  C_25
REMARK    6  A    between atoms: N_24  and  C_27
REMARK    7  A    between atoms: C_28  and  N_33
REMARK                            x       y       z     vdW  Elec       q    Type
REMARK                         _______ _______ _______ _____ _____    ______ ____
ROOT
ATOM      1  N   UNL     1      34.260 -16.918 -21.636  0.00  0.00    -0.167 N 
ATOM      2  C   UNL     1      34.132 -15.933 -22.526  0.00  0.00    +0.089 C 
ATOM      3  C   UNL     1      34.040 -16.548 -20.374  0.00  0.00    +0.089 C 
ATOM      4  C   UNL     1      33.798 -14.816 -21.792  0.00  0.00    +0.018 C 
ATOM      5  C   UNL     1      33.740 -15.205 -20.431  0.00  0.00    +0.019 C 
ENDROOT
BRANCH   1   6
ATOM      6  S   UNL     1      34.677 -18.536 -22.080  0.00  0.00    +0.080 S 
ATOM      7  O   UNL     1      36.124 -18.480 -22.185  0.00  0.00    -0.149 OA
ATOM      8  O   UNL     1      33.827 -18.869 -23.209  0.00  0.00    -0.149 OA
BRANCH   6   9
ATOM      9  C   UNL     1      34.203 -19.532 -20.727  0.00  0.00    +0.126 C 
ATOM     10  C   UNL     1      33.445 -21.124 -18.565  0.00  0.00    +0.003 C 
ATOM     11  C   UNL     1      35.176 -20.125 -19.924  0.00  0.00    +0.020 C 
ATOM     12  C   UNL     1      32.851 -19.734 -20.449  0.00  0.00    +0.020 C 
ATOM     13  C   UNL     1      34.797 -20.922 -18.843  0.00  0.00    +0.001 C 
ATOM     14  C   UNL     1      32.472 -20.530 -19.369  0.00  0.00    +0.001 C 
BRANCH  10  17
ATOM     15  N   UNL     1      33.171 -23.154 -15.645  0.00  0.00    -0.208 N 
ATOM     16  N   UNL     1      31.860 -23.163 -15.944  0.00  0.00    -0.176 NA
ATOM     17  C   UNL     1      33.056 -21.944 -17.453  0.00  0.00    +0.037 C 
ATOM     18  C   UNL     1      33.932 -22.436 -16.520  0.00  0.00    +0.086 C 
ATOM     19  C   UNL     1      31.798 -22.420 -17.051  0.00  0.00    +0.119 C 
ATOM     20  C   UNL     1      33.645 -23.867 -14.482  0.00  0.00    +0.140 C 
ENDBRANCH  10  17
ENDBRANCH   6   9
ENDBRANCH   1   6
BRANCH   4  21
ATOM     21  C   UNL     1      33.563 -13.534 -22.331  0.00  0.00    +0.006 C 
ATOM     22  C   UNL     1      33.275 -13.198 -23.621  0.00  0.00    +0.058 C 
BRANCH  22  25
ATOM     23  O   UNL     1      32.657 -11.485 -25.150  0.00  0.00    -0.270 OA
ATOM     24  N   UNL     1      33.348 -10.907 -22.983  0.00  0.00    -0.279 N 
ATOM     25  C   UNL     1      33.052 -11.774 -24.026  0.00  0.00    +0.250 C 
ATOM     26  H   UNL     1      33.656 -11.323 -22.144  0.00  0.00    +0.155 HD
BRANCH  24  27
ATOM     27  C   UNL     1      33.260  -9.493 -22.989  0.00  0.00    +0.064 C 
ATOM     28  C   UNL     1      32.227  -8.854 -22.323  0.00  0.00    +0.055 C 
ATOM     29  C   UNL     1      34.228  -8.777 -23.674  0.00  0.00    +0.016 C 
ATOM     30  C   UNL     1      32.161  -7.461 -22.343  0.00  0.00    +0.015 C 
ATOM     31  C   UNL     1      34.162  -7.384 -23.694  0.00  0.00    +0.001 C 
ATOM     32  C   UNL     1      33.128  -6.726 -23.028  0.00  0.00    +0.001 C 
BRANCH  28  33
ATOM     33  N   UNL     1      31.237  -9.577 -21.621  0.00  0.00    -0.356 N 
ATOM     34  H   UNL     1      31.373 -10.533 -21.425  0.00  0.00    +0.142 HD
ATOM     35  H   UNL     1      30.413  -9.126 -21.327  0.00  0.00    +0.142 HD
ENDBRANCH  28  33
ENDBRANCH  24  27
ENDBRANCH  22  25
ENDBRANCH   4  21
TORSDOF 7
ENDMDL
MODEL 2
REMARK VINA RESULT:     -11.6      2.783     12.087
REMARK  Name = 15985904
REMARK  7 active torsions:
REMARK  status: ('A' for Active; 'I' for Inactive)
REMARK    1  A    between atoms: N_1  and  S_6
REMARK    2  A    between atoms: C_4  and  C_21
REMARK    3  A    between atoms: S_6  and  C_9
REMARK    4  A    between atoms: C_10  and  C_17
REMARK    5  A    between atoms: C_22  and  C_25
REMARK    6  A    between atoms: N_24  and  C_27
REMARK    7  A    between atoms: C_28  and  N_33
REMARK                            x       y       z     vdW  Elec       q    Type
REMARK                         _______ _______ _______ _____ _____    ______ ____
ROOT
ATOM      1  N   UNL     1      34.365 -19.540 -20.462  0.00  0.00    -0.167 N 
ATOM      2  C   UNL     1      34.926 -20.268 -19.496  0.00  0.00    +0.089 C 
ATOM      3  C   UNL     1      33.035 -19.623 -20.509  0.00  0.00    +0.089 C 
ATOM      4  C   UNL     1      33.879 -20.886 -18.847  0.00  0.00    +0.018 C 
ATOM      5  C   UNL     1      32.683 -20.478 -19.488  0.00  0.00    +0.019 C 
ENDROOT
BRANCH   1   6
ATOM      6  S   UNL     1      35.283 -18.571 -21.560  0.00  0.00    +0.080 S 
ATOM      7  O   UNL     1      35.082 -19.244 -22.831  0.00  0.00    -0.149 OA
ATOM      8  O   UNL     1      36.595 -18.424 -20.957  0.00  0.00    -0.149 OA
BRANCH   6   9
ATOM      9  C   UNL     1      34.507 -17.008 -21.570  0.00  0.00    +0.126 C 
ATOM     10  C   UNL     1      33.265 -14.510 -21.585  0.00  0.00    +0.003 C 
ATOM     11  C   UNL     1      34.180 -16.384 -20.366  0.00  0.00    +0.020 C 
ATOM     12  C   UNL     1      34.214 -16.382 -22.781  0.00  0.00    +0.020 C 
ATOM     13  C   UNL     1      33.559 -15.136 -20.373  0.00  0.00    +0.001 C 
ATOM     14  C   UNL     1      33.593 -15.133 -22.789  0.00  0.00    +0.001 C 
BRANCH  10  17
ATOM     15  N   UNL     1      31.335 -11.561 -21.030  0.00  0.00    -0.208 N 
ATOM     16  N   UNL     1      31.985 -11.101 -22.113  0.00  0.00    -0.176 NA
ATOM     17  C   UNL     1      32.626 -13.224 -21.593  0.00  0.00    +0.037 C 
ATOM     18  C   UNL     1      31.685 -12.831 -20.676  0.00  0.00    +0.086 C 
ATOM     19  C   UNL     1      32.773 -12.124 -22.451  0.00  0.00    +0.119 C 
ATOM     20  C   UNL     1      30.371 -10.720 -20.362  0.00  0.00    +0.140 C 
ENDBRANCH  10  17
ENDBRANCH   6   9
ENDBRANCH   1   6
BRANCH   4  21
ATOM     21  C   UNL     1      34.011 -21.759 -17.747  0.00  0.00    +0.006 C 
ATOM     22  C   UNL     1      34.904 -21.696 -16.719  0.00  0.00    +0.058 C 
BRANCH  22  25
ATOM     23  O   UNL     1      34.064 -23.604 -15.575  0.00  0.00    -0.270 OA
ATOM     24  N   UNL     1      35.950 -22.489 -14.734  0.00  0.00    -0.279 N 
ATOM     25  C   UNL     1      34.906 -22.715 -15.621  0.00  0.00    +0.250 C 
ATOM     26  H   UNL     1      36.533 -21.719 -14.933  0.00  0.00    +0.155 HD
BRANCH  24  27
ATOM     27  C   UNL     1      36.273 -23.239 -13.577  0.00  0.00    +0.064 C 
ATOM     28  C   UNL     1      37.344 -24.118 -13.589  0.00  0.00    +0.055 C 
ATOM     29  C   UNL     1      35.493 -23.069 -12.445  0.00  0.00    +0.016 C 
ATOM     30  C   UNL     1      37.642 -24.847 -12.437  0.00  0.00    +0.015 C 
ATOM     31  C   UNL     1      35.791 -23.797 -11.293  0.00  0.00    +0.001 C 
ATOM     32  C   UNL     1      36.865 -24.686 -11.290  0.00  0.00    +0.001 C 
BRANCH  28  33
ATOM     33  N   UNL     1      38.145 -24.296 -14.738  0.00  0.00    -0.356 N 
ATOM     34  H   UNL     1      37.799 -24.037 -15.623  0.00  0.00    +0.142 HD
ATOM     35  H   UNL     1      39.048 -24.678 -14.656  0.00  0.00    +0.142 HD
ENDBRANCH  28  33
ENDBRANCH  24  27
ENDBRANCH  22  25
ENDBRANCH   4  21
TORSDOF 7
ENDMDL
MODEL 3
REMARK VINA RESULT:     -11.6      2.807     12.073
REMARK  Name = 15985904
REMARK  7 active torsions:
REMARK  status: ('A' for Active; 'I' for Inactive)
REMARK    1  A    between atoms: N_1  and  S_6
REMARK    2  A    between atoms: C_4  and  C_21
REMARK    3  A    between atoms: S_6  and  C_9
REMARK    4  A    between atoms: C_10  and  C_17
REMARK    5  A    between atoms: C_22  and  C_25
REMARK    6  A    between atoms: N_24  and  C_27
REMARK    7  A    between atoms: C_28  and  N_33
REMARK                            x       y       z     vdW  Elec       q    Type
REMARK                         _______ _______ _______ _____ _____    ______ ____
ROOT
ATOM      1  N   UNL     1      34.451 -19.472 -20.506  0.00  0.00    -0.167 N 
ATOM      2  C   UNL     1      35.051 -20.240 -19.596  0.00  0.00    +0.089 C 
ATOM      3  C   UNL     1      33.120 -19.546 -20.493  0.00  0.00    +0.089 C 
ATOM      4  C   UNL     1      34.032 -20.877 -18.922  0.00  0.00    +0.018 C 
ATOM      5  C   UNL     1      32.810 -20.438 -19.490  0.00  0.00    +0.019 C 
ENDROOT
BRANCH   1   6
ATOM      6  S   UNL     1      35.324 -18.466 -21.608  0.00  0.00    +0.080 S 
ATOM      7  O   UNL     1      35.114 -19.126 -22.884  0.00  0.00    -0.149 OA
ATOM      8  O   UNL     1      36.643 -18.294 -21.028  0.00  0.00    -0.149 OA
BRANCH   6   9
ATOM      9  C   UNL     1      34.509 -16.922 -21.580  0.00  0.00    +0.126 C 
ATOM     10  C   UNL     1      33.210 -14.454 -21.537  0.00  0.00    +0.003 C 
ATOM     11  C   UNL     1      34.165 -16.294 -22.777  0.00  0.00    +0.020 C 
ATOM     12  C   UNL     1      34.203 -16.316 -20.362  0.00  0.00    +0.020 C 
ATOM     13  C   UNL     1      33.516 -15.060 -22.755  0.00  0.00    +0.001 C 
ATOM     14  C   UNL     1      33.554 -15.082 -20.340  0.00  0.00    +0.001 C 
BRANCH  10  17
ATOM     15  N   UNL     1      31.209 -11.566 -20.918  0.00  0.00    -0.208 N 
ATOM     16  N   UNL     1      31.855 -11.062 -21.983  0.00  0.00    -0.176 NA
ATOM     17  C   UNL     1      32.541 -13.184 -21.514  0.00  0.00    +0.037 C 
ATOM     18  C   UNL     1      31.585 -12.837 -20.595  0.00  0.00    +0.086 C 
ATOM     19  C   UNL     1      32.668 -12.058 -22.342  0.00  0.00    +0.119 C 
ATOM     20  C   UNL     1      30.221 -10.766 -20.234  0.00  0.00    +0.140 C 
ENDBRANCH  10  17
ENDBRANCH   6   9
ENDBRANCH   1   6
BRANCH   4  21
ATOM     21  C   UNL     1      34.209 -21.793 -17.865  0.00  0.00    +0.006 C 
ATOM     22  C   UNL     1      35.011 -21.675 -16.768  0.00  0.00    +0.058 C 
BRANCH  22  25
ATOM     23  O   UNL     1      34.131 -23.500 -15.523  0.00  0.00    -0.270 OA
ATOM     24  N   UNL     1      36.314 -22.751 -15.094  0.00  0.00    -0.279 N 
ATOM     25  C   UNL     1      35.080 -22.752 -15.730  0.00  0.00    +0.250 C 
ATOM     26  H   UNL     1      36.960 -22.070 -15.395  0.00  0.00    +0.155 HD
BRANCH  24  27
ATOM     27  C   UNL     1      36.750 -23.618 -14.062  0.00  0.00    +0.064 C 
ATOM     28  C   UNL     1      36.101 -23.630 -12.838  0.00  0.00    +0.055 C 
ATOM     29  C   UNL     1      37.832 -24.446 -14.313  0.00  0.00    +0.016 C 
ATOM     30  C   UNL     1      36.548 -24.493 -11.837  0.00  0.00    +0.015 C 
ATOM     31  C   UNL     1      38.279 -25.308 -13.312  0.00  0.00    +0.001 C 
ATOM     32  C   UNL     1      37.638 -25.331 -12.074  0.00  0.00    +0.001 C 
BRANCH  28  33
ATOM     33  N   UNL     1      34.996 -22.791 -12.576  0.00  0.00    -0.356 N 
ATOM     34  H   UNL     1      35.010 -21.853 -12.874  0.00  0.00    +0.142 HD
ATOM     35  H   UNL     1      34.212 -23.144 -12.096  0.00  0.00    +0.142 HD
ENDBRANCH  28  33
ENDBRANCH  24  27
ENDBRANCH  22  25
ENDBRANCH   4  21
TORSDOF 7
ENDMDL
MODEL 4
REMARK VINA RESULT:     -11.4      2.553     12.006
REMARK  Name = 15985904
REMARK  7 active torsions:
REMARK  status: ('A' for Active; 'I' for Inactive)
REMARK    1  A    between atoms: N_1  and  S_6
REMARK    2  A    between atoms: C_4  and  C_21
REMARK    3  A    between atoms: S_6  and  C_9
REMARK    4  A    between atoms: C_10  and  C_17
REMARK    5  A    between atoms: C_22  and  C_25
REMARK    6  A    between atoms: N_24  and  C_27
REMARK    7  A    between atoms: C_28  and  N_33
REMARK                            x       y       z     vdW  Elec       q    Type
REMARK                         _______ _______ _______ _____ _____    ______ ____
ROOT
ATOM      1  N   UNL     1      33.821 -19.415 -20.440  0.00  0.00    -0.167 N 
ATOM      2  C   UNL     1      33.992 -20.229 -19.398  0.00  0.00    +0.089 C 
ATOM      3  C   UNL     1      32.564 -19.344 -20.879  0.00  0.00    +0.089 C 
ATOM      4  C   UNL     1      32.743 -20.741 -19.122  0.00  0.00    +0.018 C 
ATOM      5  C   UNL     1      31.840 -20.181 -20.059  0.00  0.00    +0.019 C 
ENDROOT
BRANCH   1   6
ATOM      6  S   UNL     1      35.117 -18.528 -21.161  0.00  0.00    +0.080 S 
ATOM      7  O   UNL     1      35.321 -19.219 -22.421  0.00  0.00    -0.149 OA
ATOM      8  O   UNL     1      36.150 -18.440 -20.145  0.00  0.00    -0.149 OA
BRANCH   6   9
ATOM      9  C   UNL     1      34.490 -16.923 -21.441  0.00  0.00    +0.126 C 
ATOM     10  C   UNL     1      33.488 -14.358 -21.890  0.00  0.00    +0.003 C 
ATOM     11  C   UNL     1      34.363 -16.442 -22.744  0.00  0.00    +0.020 C 
ATOM     12  C   UNL     1      34.115 -16.122 -20.363  0.00  0.00    +0.020 C 
ATOM     13  C   UNL     1      33.862 -15.160 -22.969  0.00  0.00    +0.001 C 
ATOM     14  C   UNL     1      33.614 -14.839 -20.587  0.00  0.00    +0.001 C 
BRANCH  10  17
ATOM     15  N   UNL     1      32.703 -11.051 -22.973  0.00  0.00    -0.208 N 
ATOM     16  N   UNL     1      31.765 -11.109 -22.012  0.00  0.00    -0.176 NA
ATOM     17  C   UNL     1      32.972 -13.038 -22.121  0.00  0.00    +0.037 C 
ATOM     18  C   UNL     1      33.454 -12.184 -23.079  0.00  0.00    +0.086 C 
ATOM     19  C   UNL     1      31.936 -12.328 -21.495  0.00  0.00    +0.119 C 
ATOM     20  C   UNL     1      32.835  -9.858 -23.775  0.00  0.00    +0.140 C 
ENDBRANCH  10  17
ENDBRANCH   6   9
ENDBRANCH   1   6
BRANCH   4  21
ATOM     21  C   UNL     1      32.453 -21.654 -18.087  0.00  0.00    +0.006 C 
ATOM     22  C   UNL     1      33.304 -22.186 -17.165  0.00  0.00    +0.058 C 
BRANCH  22  25
ATOM     23  O   UNL     1      33.537 -24.069 -15.730  0.00  0.00    -0.270 OA
ATOM     24  N   UNL     1      31.535 -22.843 -15.717  0.00  0.00    -0.279 N 
ATOM     25  C   UNL     1      32.826 -23.151 -16.124  0.00  0.00    +0.250 C 
ATOM     26  H   UNL     1      31.116 -22.062 -16.147  0.00  0.00    +0.155 HD
BRANCH  24  27
ATOM     27  C   UNL     1      30.752 -23.525 -14.753  0.00  0.00    +0.064 C 
ATOM     28  C   UNL     1      31.193 -23.638 -13.445  0.00  0.00    +0.055 C 
ATOM     29  C   UNL     1      29.543 -24.070 -15.155  0.00  0.00    +0.016 C 
ATOM     30  C   UNL     1      30.405 -24.315 -12.514  0.00  0.00    +0.015 C 
ATOM     31  C   UNL     1      28.755 -24.746 -14.225  0.00  0.00    +0.001 C 
ATOM     32  C   UNL     1      29.186 -24.869 -12.904  0.00  0.00    +0.001 C 
BRANCH  28  33
ATOM     33  N   UNL     1      32.423 -23.083 -13.027  0.00  0.00    -0.356 N 
ATOM     34  H   UNL     1      32.641 -22.149 -13.247  0.00  0.00    +0.142 HD
ATOM     35  H   UNL     1      33.062 -23.630 -12.516  0.00  0.00    +0.142 HD
ENDBRANCH  28  33
ENDBRANCH  24  27
ENDBRANCH  22  25
ENDBRANCH   4  21
TORSDOF 7
ENDMDL
MODEL 5
REMARK VINA RESULT:     -11.0      3.048      5.422
REMARK  Name = 15985904
REMARK  7 active torsions:
REMARK  status: ('A' for Active; 'I' for Inactive)
REMARK    1  A    between atoms: N_1  and  S_6
REMARK    2  A    between atoms: C_4  and  C_21
REMARK    3  A    between atoms: S_6  and  C_9
REMARK    4  A    between atoms: C_10  and  C_17
REMARK    5  A    between atoms: C_22  and  C_25
REMARK    6  A    between atoms: N_24  and  C_27
REMARK    7  A    between atoms: C_28  and  N_33
REMARK                            x       y       z     vdW  Elec       q    Type
REMARK                         _______ _______ _______ _____ _____    ______ ____
ROOT
ATOM      1  N   UNL     1      33.748 -21.118 -19.036  0.00  0.00    -0.167 N 
ATOM      2  C   UNL     1      33.257 -20.235 -19.906  0.00  0.00    +0.089 C 
ATOM      3  C   UNL     1      35.057 -20.997 -18.813  0.00  0.00    +0.089 C 
ATOM      4  C   UNL     1      34.330 -19.463 -20.293  0.00  0.00    +0.018 C 
ATOM      5  C   UNL     1      35.469 -19.946 -19.602  0.00  0.00    +0.019 C 
ENDROOT
BRANCH   1   6
ATOM      6  S   UNL     1      32.772 -22.316 -18.262  0.00  0.00    +0.080 S 
ATOM      7  O   UNL     1      33.006 -23.497 -19.074  0.00  0.00    -0.149 OA
ATOM      8  O   UNL     1      31.456 -21.722 -18.115  0.00  0.00    -0.149 OA
BRANCH   6   9
ATOM      9  C   UNL     1      33.458 -22.526 -16.671  0.00  0.00    +0.126 C 
ATOM     10  C   UNL     1      34.555 -22.862 -14.128  0.00  0.00    +0.003 C 
ATOM     11  C   UNL     1      34.757 -22.090 -16.408  0.00  0.00    +0.020 C 
ATOM     12  C   UNL     1      32.708 -23.129 -15.661  0.00  0.00    +0.020 C 
ATOM     13  C   UNL     1      35.305 -22.258 -15.137  0.00  0.00    +0.001 C 
ATOM     14  C   UNL     1      33.256 -23.297 -14.390  0.00  0.00    +0.001 C 
BRANCH  10  17
ATOM     15  N   UNL     1      35.310 -23.526 -10.705  0.00  0.00    -0.208 N 
ATOM     16  N   UNL     1      36.535 -23.083 -11.034  0.00  0.00    -0.176 NA
ATOM     17  C   UNL     1      35.120 -23.034 -12.819  0.00  0.00    +0.037 C 
ATOM     18  C   UNL     1      34.423 -23.518 -11.741  0.00  0.00    +0.086 C 
ATOM     19  C   UNL     1      36.411 -22.784 -12.329  0.00  0.00    +0.119 C 
ATOM     20  C   UNL     1      35.042 -23.955  -9.353  0.00  0.00    +0.140 C 
ENDBRANCH  10  17
ENDBRANCH   6   9
ENDBRANCH   1   6
BRANCH   4  21
ATOM     21  C   UNL     1      34.270 -18.395 -21.212  0.00  0.00    +0.006 C 
ATOM     22  C   UNL     1      33.746 -18.390 -22.471  0.00  0.00    +0.058 C 
BRANCH  22  25
ATOM     23  O   UNL     1      34.142 -17.191 -24.486  0.00  0.00    -0.270 OA
ATOM     24  N   UNL     1      33.312 -16.055 -22.607  0.00  0.00    -0.279 N 
ATOM     25  C   UNL     1      33.764 -17.157 -23.320  0.00  0.00    +0.250 C 
ATOM     26  H   UNL     1      33.049 -16.218 -21.672  0.00  0.00    +0.155 HD
BRANCH  24  27
ATOM     27  C   UNL     1      33.188 -14.723 -23.072  0.00  0.00    +0.064 C 
ATOM     28  C   UNL     1      33.427 -13.658 -22.218  0.00  0.00    +0.055 C 
ATOM     29  C   UNL     1      32.825 -14.519 -24.393  0.00  0.00    +0.016 C 
ATOM     30  C   UNL     1      33.298 -12.355 -22.698  0.00  0.00    +0.015 C 
ATOM     31  C   UNL     1      32.696 -13.216 -24.874  0.00  0.00    +0.001 C 
ATOM     32  C   UNL     1      32.932 -12.134 -24.026  0.00  0.00    +0.001 C 
BRANCH  28  33
ATOM     33  N   UNL     1      33.800 -13.858 -20.870  0.00  0.00    -0.356 N 
ATOM     34  H   UNL     1      33.314 -14.513 -20.317  0.00  0.00    +0.142 HD
ATOM     35  H   UNL     1      34.545 -13.344 -20.483  0.00  0.00    +0.142 HD
ENDBRANCH  28  33
ENDBRANCH  24  27
ENDBRANCH  22  25
ENDBRANCH   4  21
TORSDOF 7
ENDMDL
MODEL 6
REMARK VINA RESULT:     -10.8      2.018     11.842
REMARK  Name = 15985904
REMARK  7 active torsions:
REMARK  status: ('A' for Active; 'I' for Inactive)
REMARK    1  A    between atoms: N_1  and  S_6
REMARK    2  A    between atoms: C_4  and  C_21
REMARK    3  A    between atoms: S_6  and  C_9
REMARK    4  A    between atoms: C_10  and  C_17
REMARK    5  A    between atoms: C_22  and  C_25
REMARK    6  A    between atoms: N_24  and  C_27
REMARK    7  A    between atoms: C_28  and  N_33
REMARK                            x       y       z     vdW  Elec       q    Type
REMARK                         _______ _______ _______ _____ _____    ______ ____
ROOT
ATOM      1  N   UNL     1      33.883 -17.852 -22.474  0.00  0.00    -0.167 N 
ATOM      2  C   UNL     1      33.336 -18.917 -21.889  0.00  0.00    +0.089 C 
ATOM      3  C   UNL     1      34.885 -17.304 -21.787  0.00  0.00    +0.089 C 
ATOM      4  C   UNL     1      34.034 -19.091 -20.714  0.00  0.00    +0.018 C 
ATOM      5  C   UNL     1      35.014 -18.070 -20.649  0.00  0.00    +0.019 C 
ENDROOT
BRANCH   1   6
ATOM      6  S   UNL     1      33.340 -17.234 -23.994  0.00  0.00    +0.080 S 
ATOM      7  O   UNL     1      32.018 -17.820 -24.128  0.00  0.00    -0.149 OA
ATOM      8  O   UNL     1      34.409 -17.502 -24.937  0.00  0.00    -0.149 OA
BRANCH   6   9
ATOM      9  C   UNL     1      33.219 -15.505 -23.782  0.00  0.00    +0.126 C 
ATOM     10  C   UNL     1      33.027 -12.742 -23.443  0.00  0.00    +0.003 C 
ATOM     11  C   UNL     1      32.746 -14.706 -24.823  0.00  0.00    +0.020 C 
ATOM     12  C   UNL     1      33.595 -14.922 -22.571  0.00  0.00    +0.020 C 
ATOM     13  C   UNL     1      32.651 -13.325 -24.654  0.00  0.00    +0.001 C 
ATOM     14  C   UNL     1      33.500 -13.542 -22.402  0.00  0.00    +0.001 C 
BRANCH  10  17
ATOM     15  N   UNL     1      33.251  -9.184 -23.544  0.00  0.00    -0.208 N 
ATOM     16  N   UNL     1      32.363  -9.238 -22.537  0.00  0.00    -0.176 NA
ATOM     17  C   UNL     1      32.928 -11.320 -23.269  0.00  0.00    +0.037 C 
ATOM     18  C   UNL     1      33.623 -10.407 -24.020  0.00  0.00    +0.086 C 
ATOM     19  C   UNL     1      32.170 -10.549 -22.375  0.00  0.00    +0.119 C 
ATOM     20  C   UNL     1      33.717  -7.903 -24.020  0.00  0.00    +0.140 C 
ENDBRANCH  10  17
ENDBRANCH   6   9
ENDBRANCH   1   6
BRANCH   4  21
ATOM     21  C   UNL     1      33.791 -20.111 -19.771  0.00  0.00    +0.006 C 
ATOM     22  C   UNL     1      34.698 -20.880 -19.104  0.00  0.00    +0.058 C 
BRANCH  22  25
ATOM     23  O   UNL     1      33.524 -22.845 -18.460  0.00  0.00    -0.270 OA
ATOM     24  N   UNL     1      34.813 -21.694 -16.871  0.00  0.00    -0.279 N 
ATOM     25  C   UNL     1      34.266 -21.929 -18.126  0.00  0.00    +0.250 C 
ATOM     26  H   UNL     1      35.391 -20.901 -16.789  0.00  0.00    +0.155 HD
BRANCH  24  27
ATOM     27  C   UNL     1      34.632 -22.466 -15.698  0.00  0.00    +0.064 C 
ATOM     28  C   UNL     1      35.729 -22.926 -14.987  0.00  0.00    +0.055 C 
ATOM     29  C   UNL     1      33.338 -22.743 -15.286  0.00  0.00    +0.016 C 
ATOM     30  C   UNL     1      35.526 -23.685 -13.834  0.00  0.00    +0.015 C 
ATOM     31  C   UNL     1      33.136 -23.502 -14.133  0.00  0.00    +0.001 C 
ATOM     32  C   UNL     1      34.229 -23.973 -13.407  0.00  0.00    +0.001 C 
BRANCH  28  33
ATOM     33  N   UNL     1      37.050 -22.646 -15.399  0.00  0.00    -0.356 N 
ATOM     34  H   UNL     1      37.763 -23.310 -15.251  0.00  0.00    +0.142 HD
ATOM     35  H   UNL     1      37.259 -21.789 -15.834  0.00  0.00    +0.142 HD
ENDBRANCH  28  33
ENDBRANCH  24  27
ENDBRANCH  22  25
ENDBRANCH   4  21
TORSDOF 7
ENDMDL
MODEL 7
REMARK VINA RESULT:     -10.7      2.260      3.387
REMARK  Name = 15985904
REMARK  7 active torsions:
REMARK  status: ('A' for Active; 'I' for Inactive)
REMARK    1  A    between atoms: N_1  and  S_6
REMARK    2  A    between atoms: C_4  and  C_21
REMARK    3  A    between atoms: S_6  and  C_9
REMARK    4  A    between atoms: C_10  and  C_17
REMARK    5  A    between atoms: C_22  and  C_25
REMARK    6  A    between atoms: N_24  and  C_27
REMARK    7  A    between atoms: C_28  and  N_33
REMARK                            x       y       z     vdW  Elec       q    Type
REMARK                         _______ _______ _______ _____ _____    ______ ____
ROOT
ATOM      1  N   UNL     1      33.225 -14.509 -23.300  0.00  0.00    -0.167 N 
ATOM      2  C   UNL     1      33.171 -13.338 -23.935  0.00  0.00    +0.089 C 
ATOM      3  C   UNL     1      33.077 -14.423 -21.978  0.00  0.00    +0.089 C 
ATOM      4  C   UNL     1      32.969 -12.395 -22.951  0.00  0.00    +0.018 C 
ATOM      5  C   UNL     1      32.910 -13.082 -21.713  0.00  0.00    +0.019 C 
ENDROOT
BRANCH   1   6
ATOM      6  S   UNL     1      33.467 -16.011 -24.121  0.00  0.00    +0.080 S 
ATOM      7  O   UNL     1      34.711 -15.792 -24.837  0.00  0.00    -0.149 OA
ATOM      8  O   UNL     1      32.218 -16.297 -24.801  0.00  0.00    -0.149 OA
BRANCH   6   9
ATOM      9  C   UNL     1      33.690 -17.202 -22.864  0.00  0.00    +0.126 C 
ATOM     10  C   UNL     1      34.046 -19.105 -20.856  0.00  0.00    +0.003 C 
ATOM     11  C   UNL     1      33.070 -18.447 -22.966  0.00  0.00    +0.020 C 
ATOM     12  C   UNL     1      34.488 -16.909 -21.758  0.00  0.00    +0.020 C 
ATOM     13  C   UNL     1      33.248 -19.399 -21.961  0.00  0.00    +0.001 C 
ATOM     14  C   UNL     1      34.666 -17.860 -20.754  0.00  0.00    +0.001 C 
BRANCH  10  17
ATOM     15  N   UNL     1      33.790 -21.568 -18.288  0.00  0.00    -0.208 N 
ATOM     16  N   UNL     1      35.133 -21.511 -18.292  0.00  0.00    -0.176 NA
ATOM     17  C   UNL     1      34.229 -20.085 -19.822  0.00  0.00    +0.037 C 
ATOM     18  C   UNL     1      33.199 -20.732 -19.189  0.00  0.00    +0.086 C 
ATOM     19  C   UNL     1      35.394 -20.601 -19.233  0.00  0.00    +0.119 C 
ATOM     20  C   UNL     1      33.114 -22.464 -17.380  0.00  0.00    +0.140 C 
ENDBRANCH  10  17
ENDBRANCH   6   9
ENDBRANCH   1   6
BRANCH   4  21
ATOM     21  C   UNL     1      32.848 -11.007 -23.172  0.00  0.00    +0.006 C 
ATOM     22  C   UNL     1      33.544 -10.225 -24.046  0.00  0.00    +0.058 C 
BRANCH  22  25
ATOM     23  O   UNL     1      34.034  -8.021 -24.792  0.00  0.00    -0.270 OA
ATOM     24  N   UNL     1      32.139  -8.397 -23.458  0.00  0.00    -0.279 N 
ATOM     25  C   UNL     1      33.286  -8.754 -24.154  0.00  0.00    +0.250 C 
ATOM     26  H   UNL     1      31.661  -9.127 -23.001  0.00  0.00    +0.155 HD
BRANCH  24  27
ATOM     27  C   UNL     1      31.579  -7.102 -23.331  0.00  0.00    +0.064 C 
ATOM     28  C   UNL     1      31.753  -6.376 -22.164  0.00  0.00    +0.055 C 
ATOM     29  C   UNL     1      30.860  -6.590 -24.399  0.00  0.00    +0.016 C 
ATOM     30  C   UNL     1      31.192  -5.103 -22.063  0.00  0.00    +0.015 C 
ATOM     31  C   UNL     1      30.299  -5.317 -24.298  0.00  0.00    +0.001 C 
ATOM     32  C   UNL     1      30.464  -4.574 -23.129  0.00  0.00    +0.001 C 
BRANCH  28  33
ATOM     33  N   UNL     1      32.486  -6.891 -21.072  0.00  0.00    -0.356 N 
ATOM     34  H   UNL     1      33.469  -6.838 -21.072  0.00  0.00    +0.142 HD
ATOM     35  H   UNL     1      32.014  -7.301 -20.312  0.00  0.00    +0.142 HD
ENDBRANCH  28  33
ENDBRANCH  24  27
ENDBRANCH  22  25
ENDBRANCH   4  21
TORSDOF 7
ENDMDL
MODEL 8
REMARK VINA RESULT:     -10.7      1.972     11.613
REMARK  Name = 15985904
REMARK  7 active torsions:
REMARK  status: ('A' for Active; 'I' for Inactive)
REMARK    1  A    between atoms: N_1  and  S_6
REMARK    2  A    between atoms: C_4  and  C_21
REMARK    3  A    between atoms: S_6  and  C_9
REMARK    4  A    between atoms: C_10  and  C_17
REMARK    5  A    between atoms: C_22  and  C_25
REMARK    6  A    between atoms: N_24  and  C_27
REMARK    7  A    between atoms: C_28  and  N_33
REMARK                            x       y       z     vdW  Elec       q    Type
REMARK                         _______ _______ _______ _____ _____    ______ ____
ROOT
ATOM      1  N   UNL     1      33.808 -17.944 -22.423  0.00  0.00    -0.167 N 
ATOM      2  C   UNL     1      33.303 -19.050 -21.875  0.00  0.00    +0.089 C 
ATOM      3  C   UNL     1      34.743 -17.344 -21.685  0.00  0.00    +0.089 C 
ATOM      4  C   UNL     1      33.958 -19.196 -20.672  0.00  0.00    +0.018 C 
ATOM      5  C   UNL     1      34.869 -18.117 -20.552  0.00  0.00    +0.019 C 
ENDROOT
BRANCH   1   6
ATOM      6  S   UNL     1      33.295 -17.340 -23.960  0.00  0.00    +0.080 S 
ATOM      7  O   UNL     1      31.968 -17.911 -24.105  0.00  0.00    -0.149 OA
ATOM      8  O   UNL     1      34.375 -17.635 -24.883  0.00  0.00    -0.149 OA
BRANCH   6   9
ATOM      9  C   UNL     1      33.195 -15.607 -23.773  0.00  0.00    +0.126 C 
ATOM     10  C   UNL     1      33.032 -12.838 -23.474  0.00  0.00    +0.003 C 
ATOM     11  C   UNL     1      33.624 -15.007 -22.589  0.00  0.00    +0.020 C 
ATOM     12  C   UNL     1      32.685 -14.822 -24.807  0.00  0.00    +0.020 C 
ATOM     13  C   UNL     1      33.543 -13.623 -22.439  0.00  0.00    +0.001 C 
ATOM     14  C   UNL     1      32.603 -13.438 -24.657  0.00  0.00    +0.001 C 
BRANCH  10  17
ATOM     15  N   UNL     1      32.385  -9.453 -22.553  0.00  0.00    -0.208 N 
ATOM     16  N   UNL     1      33.219  -9.164 -23.568  0.00  0.00    -0.176 NA
ATOM     17  C   UNL     1      32.949 -11.413 -23.319  0.00  0.00    +0.037 C 
ATOM     18  C   UNL     1      32.190 -10.789 -22.362  0.00  0.00    +0.086 C 
ATOM     19  C   UNL     1      33.559 -10.369 -24.031  0.00  0.00    +0.119 C 
ATOM     20  C   UNL     1      31.794  -8.383 -21.785  0.00  0.00    +0.140 C 
ENDBRANCH  10  17
ENDBRANCH   6   9
ENDBRANCH   1   6
BRANCH   4  21
ATOM     21  C   UNL     1      33.738 -20.242 -19.752  0.00  0.00    +0.006 C 
ATOM     22  C   UNL     1      32.580 -20.916 -19.498  0.00  0.00    +0.058 C 
BRANCH  22  25
ATOM     23  O   UNL     1      33.079 -23.087 -18.665  0.00  0.00    -0.270 OA
ATOM     24  N   UNL     1      31.778 -21.622 -17.373  0.00  0.00    -0.279 N 
ATOM     25  C   UNL     1      32.521 -22.012 -18.479  0.00  0.00    +0.250 C 
ATOM     26  H   UNL     1      31.401 -20.712 -17.399  0.00  0.00    +0.155 HD
BRANCH  24  27
ATOM     27  C   UNL     1      31.501 -22.384 -16.212  0.00  0.00    +0.064 C 
ATOM     28  C   UNL     1      32.535 -22.838 -15.409  0.00  0.00    +0.055 C 
ATOM     29  C   UNL     1      30.178 -22.658 -15.906  0.00  0.00    +0.016 C 
ATOM     30  C   UNL     1      32.238 -23.587 -14.271  0.00  0.00    +0.015 C 
ATOM     31  C   UNL     1      29.880 -23.407 -14.767  0.00  0.00    +0.001 C 
ATOM     32  C   UNL     1      30.910 -23.872 -13.950  0.00  0.00    +0.001 C 
BRANCH  28  33
ATOM     33  N   UNL     1      33.886 -22.561 -15.713  0.00  0.00    -0.356 N 
ATOM     34  H   UNL     1      34.316 -21.752 -15.352  0.00  0.00    +0.142 HD
ATOM     35  H   UNL     1      34.399 -23.176 -16.285  0.00  0.00    +0.142 HD
ENDBRANCH  28  33
ENDBRANCH  24  27
ENDBRANCH  22  25
ENDBRANCH   4  21
TORSDOF 7
ENDMDL
MODEL 9
REMARK VINA RESULT:     -10.6      2.445     11.327
REMARK  Name = 15985904
REMARK  7 active torsions:
REMARK  status: ('A' for Active; 'I' for Inactive)
REMARK    1  A    between atoms: N_1  and  S_6
REMARK    2  A    between atoms: C_4  and  C_21
REMARK    3  A    between atoms: S_6  and  C_9
REMARK    4  A    between atoms: C_10  and  C_17
REMARK    5  A    between atoms: C_22  and  C_25
REMARK    6  A    between atoms: N_24  and  C_27
REMARK    7  A    between atoms: C_28  and  N_33
REMARK                            x       y       z     vdW  Elec       q    Type
REMARK                         _______ _______ _______ _____ _____    ______ ____
ROOT
ATOM      1  N   UNL     1      34.249 -17.570 -22.488  0.00  0.00    -0.167 N 
ATOM      2  C   UNL     1      33.523 -18.449 -21.797  0.00  0.00    +0.089 C 
ATOM      3  C   UNL     1      35.530 -17.509 -22.125  0.00  0.00    +0.089 C 
ATOM      4  C   UNL     1      34.397 -19.021 -20.898  0.00  0.00    +0.018 C 
ATOM      5  C   UNL     1      35.667 -18.426 -21.106  0.00  0.00    +0.019 C 
ENDROOT
BRANCH   1   6
ATOM      6  S   UNL     1      33.584 -16.591 -23.749  0.00  0.00    +0.080 S 
ATOM      7  O   UNL     1      32.465 -17.387 -24.221  0.00  0.00    -0.149 OA
ATOM      8  O   UNL     1      34.701 -16.235 -24.605  0.00  0.00    -0.149 OA
BRANCH   6   9
ATOM      9  C   UNL     1      33.011 -15.140 -22.965  0.00  0.00    +0.126 C 
ATOM     10  C   UNL     1      32.097 -12.821 -21.712  0.00  0.00    +0.003 C 
ATOM     11  C   UNL     1      32.303 -14.186 -23.695  0.00  0.00    +0.020 C 
ATOM     12  C   UNL     1      33.262 -14.935 -21.608  0.00  0.00    +0.020 C 
ATOM     13  C   UNL     1      31.846 -13.027 -23.069  0.00  0.00    +0.001 C 
ATOM     14  C   UNL     1      32.806 -13.775 -20.982  0.00  0.00    +0.001 C 
BRANCH  10  17
ATOM     15  N   UNL     1      30.794 -10.289 -19.564  0.00  0.00    -0.208 N 
ATOM     16  N   UNL     1      31.052  -9.473 -20.601  0.00  0.00    -0.176 NA
ATOM     17  C   UNL     1      31.627 -11.627 -21.068  0.00  0.00    +0.037 C 
ATOM     18  C   UNL     1      31.122 -11.592 -19.794  0.00  0.00    +0.086 C 
ATOM     19  C   UNL     1      31.561 -10.300 -21.517  0.00  0.00    +0.119 C 
ATOM     20  C   UNL     1      30.223  -9.749 -18.353  0.00  0.00    +0.140 C 
ENDBRANCH  10  17
ENDBRANCH   6   9
ENDBRANCH   1   6
BRANCH   4  21
ATOM     21  C   UNL     1      34.057 -20.015 -19.957  0.00  0.00    +0.006 C 
ATOM     22  C   UNL     1      34.890 -20.802 -19.219  0.00  0.00    +0.058 C 
BRANCH  22  25
ATOM     23  O   UNL     1      33.526 -22.650 -18.602  0.00  0.00    -0.270 OA
ATOM     24  N   UNL     1      34.928 -21.659 -17.000  0.00  0.00    -0.279 N 
ATOM     25  C   UNL     1      34.357 -21.817 -18.256  0.00  0.00    +0.250 C 
ATOM     26  H   UNL     1      35.583 -20.929 -16.907  0.00  0.00    +0.155 HD
BRANCH  24  27
ATOM     27  C   UNL     1      34.674 -22.428 -15.838  0.00  0.00    +0.064 C 
ATOM     28  C   UNL     1      35.723 -22.887 -15.059  0.00  0.00    +0.055 C 
ATOM     29  C   UNL     1      33.357 -22.703 -15.508  0.00  0.00    +0.016 C 
ATOM     30  C   UNL     1      35.449 -23.643 -13.919  0.00  0.00    +0.015 C 
ATOM     31  C   UNL     1      33.082 -23.459 -14.368  0.00  0.00    +0.001 C 
ATOM     32  C   UNL     1      34.128 -23.929 -13.574  0.00  0.00    +0.001 C 
BRANCH  28  33
ATOM     33  N   UNL     1      37.068 -22.609 -15.389  0.00  0.00    -0.356 N 
ATOM     34  H   UNL     1      37.285 -21.833 -15.955  0.00  0.00    +0.142 HD
ATOM     35  H   UNL     1      37.788 -23.189 -15.052  0.00  0.00    +0.142 HD
ENDBRANCH  28  33
ENDBRANCH  24  27
ENDBRANCH  22  25
ENDBRANCH   4  21
TORSDOF 7
ENDMDL
