MODEL 1
REMARK VINA RESULT:     -12.6      0.000      0.000
REMARK  Name = 6419766
REMARK  1 active torsions:
REMARK  status: ('A' for Active; 'I' for Inactive)
REMARK    1  A    between atoms: C_9  and  C_20
REMARK                            x       y       z     vdW  Elec       q    Type
REMARK                         _______ _______ _______ _____ _____    ______ ____
ROOT
ATOM      1  N   UNL     1      33.293 -23.760 -13.755  0.00  0.00    -0.274 N 
ATOM      2  N   UNL     1      33.055 -22.668 -15.826  0.00  0.00    -0.328 NA
ATOM      3  N   UNL     1      30.878 -22.356 -16.808  0.00  0.00    -0.343 NA
ATOM      4  N   UNL     1      36.518 -24.787 -14.288  0.00  0.00    -0.239 N 
ATOM      5  N   UNL     1      35.380 -24.301 -14.810  0.00  0.00    -0.166 NA
ATOM      6  C   UNL     1      31.077 -23.474 -14.697  0.00  0.00    +0.143 C 
ATOM      7  C   UNL     1      32.452 -23.285 -14.793  0.00  0.00    +0.185 C 
ATOM      8  C   UNL     1      30.307 -22.977 -15.762  0.00  0.00    +0.133 C 
ATOM      9  C   UNL     1      32.221 -22.235 -16.785  0.00  0.00    +0.138 C 
ATOM     10  C   UNL     1      34.619 -24.223 -13.747  0.00  0.00    +0.152 C 
ATOM     11  C   UNL     1      30.469 -24.122 -13.606  0.00  0.00    -0.011 C 
ATOM     12  C   UNL     1      28.927 -23.147 -15.700  0.00  0.00    +0.029 C 
ATOM     13  C   UNL     1      35.195 -24.631 -12.556  0.00  0.00    +0.048 C 
ATOM     14  C   UNL     1      36.460 -25.003 -12.942  0.00  0.00    +0.046 C 
ATOM     15  C   UNL     1      29.088 -24.278 -13.572  0.00  0.00    -0.004 C 
ATOM     16  C   UNL     1      28.315 -23.791 -14.620  0.00  0.00    +0.002 C 
ATOM     17  C   UNL     1      37.604 -25.533 -12.182  0.00  0.00    +0.049 C 
ATOM     18  H   UNL     1      32.864 -23.767 -12.869  0.00  0.00    +0.156 HD
ATOM     19  H   UNL     1      37.321 -24.971 -14.827  0.00  0.00    +0.174 HD
ENDROOT
BRANCH   9  20
ATOM     20  C   UNL     1      32.823 -21.569 -17.909  0.00  0.00    +0.086 C 
ATOM     21  C   UNL     1      32.038 -20.816 -18.786  0.00  0.00    +0.012 C 
ATOM     22  C   UNL     1      34.200 -21.670 -18.132  0.00  0.00    +0.012 C 
ATOM     23  C   UNL     1      32.622 -20.169 -19.875  0.00  0.00    +0.001 C 
ATOM     24  C   UNL     1      34.785 -21.023 -19.219  0.00  0.00    +0.001 C 
ATOM     25  C   UNL     1      33.997 -20.271 -20.092  0.00  0.00    +0.000 C 
ENDBRANCH   9  20
TORSDOF 1
ENDMDL
MODEL 2
REMARK VINA RESULT:     -11.9      1.212      4.936
REMARK  Name = 6419766
REMARK  1 active torsions:
REMARK  status: ('A' for Active; 'I' for Inactive)
REMARK    1  A    between atoms: C_9  and  C_20
REMARK                            x       y       z     vdW  Elec       q    Type
REMARK                         _______ _______ _______ _____ _____    ______ ____
ROOT
ATOM      1  N   UNL     1      34.881 -23.011 -15.363  0.00  0.00    -0.274 N 
ATOM      2  N   UNL     1      32.530 -23.080 -15.444  0.00  0.00    -0.328 NA
ATOM      3  N   UNL     1      31.333 -22.064 -17.270  0.00  0.00    -0.343 NA
ATOM      4  N   UNL     1      35.107 -23.338 -11.959  0.00  0.00    -0.239 N 
ATOM      5  N   UNL     1      34.336 -23.073 -13.027  0.00  0.00    -0.166 NA
ATOM      6  C   UNL     1      33.728 -21.972 -17.226  0.00  0.00    +0.143 C 
ATOM      7  C   UNL     1      33.674 -22.679 -16.028  0.00  0.00    +0.185 C 
ATOM      8  C   UNL     1      32.493 -21.678 -17.827  0.00  0.00    +0.133 C 
ATOM      9  C   UNL     1      31.413 -22.743 -16.108  0.00  0.00    +0.138 C 
ATOM     10  C   UNL     1      35.196 -23.193 -14.007  0.00  0.00    +0.152 C 
ATOM     11  C   UNL     1      34.937 -21.564 -17.817  0.00  0.00    -0.011 C 
ATOM     12  C   UNL     1      32.507 -20.972 -19.027  0.00  0.00    +0.029 C 
ATOM     13  C   UNL     1      36.490 -23.523 -13.641  0.00  0.00    +0.048 C 
ATOM     14  C   UNL     1      36.406 -23.614 -12.273  0.00  0.00    +0.046 C 
ATOM     15  C   UNL     1      34.920 -20.858 -19.016  0.00  0.00    -0.004 C 
ATOM     16  C   UNL     1      33.704 -20.561 -19.622  0.00  0.00    +0.002 C 
ATOM     17  C   UNL     1      37.411 -23.930 -11.245  0.00  0.00    +0.049 C 
ATOM     18  H   UNL     1      35.646 -23.139 -15.969  0.00  0.00    +0.156 HD
ATOM     19  H   UNL     1      34.767 -23.334 -11.036  0.00  0.00    +0.174 HD
ENDROOT
BRANCH   9  20
ATOM     20  C   UNL     1      30.166 -23.153 -15.518  0.00  0.00    +0.086 C 
ATOM     21  C   UNL     1      28.984 -22.471 -15.823  0.00  0.00    +0.012 C 
ATOM     22  C   UNL     1      30.127 -24.238 -14.636  0.00  0.00    +0.012 C 
ATOM     23  C   UNL     1      27.776 -22.869 -15.252  0.00  0.00    +0.001 C 
ATOM     24  C   UNL     1      28.919 -24.636 -14.066  0.00  0.00    +0.001 C 
ATOM     25  C   UNL     1      27.742 -23.952 -14.374  0.00  0.00    +0.000 C 
ENDBRANCH   9  20
TORSDOF 1
ENDMDL
MODEL 3
REMARK VINA RESULT:     -11.7      1.455      5.790
REMARK  Name = 6419766
REMARK  1 active torsions:
REMARK  status: ('A' for Active; 'I' for Inactive)
REMARK    1  A    between atoms: C_9  and  C_20
REMARK                            x       y       z     vdW  Elec       q    Type
REMARK                         _______ _______ _______ _____ _____    ______ ____
ROOT
ATOM      1  N   UNL     1      32.761 -22.394 -17.115  0.00  0.00    -0.274 N 
ATOM      2  N   UNL     1      34.026 -23.508 -15.473  0.00  0.00    -0.328 NA
ATOM      3  N   UNL     1      32.992 -24.282 -13.440  0.00  0.00    -0.343 NA
ATOM      4  N   UNL     1      35.406 -20.693 -18.476  0.00  0.00    -0.239 N 
ATOM      5  N   UNL     1      34.925 -21.413 -17.449  0.00  0.00    -0.166 NA
ATOM      6  C   UNL     1      31.667 -23.152 -15.088  0.00  0.00    +0.143 C 
ATOM      7  C   UNL     1      32.823 -23.038 -15.854  0.00  0.00    +0.185 C 
ATOM      8  C   UNL     1      31.805 -23.801 -13.850  0.00  0.00    +0.133 C 
ATOM      9  C   UNL     1      34.038 -24.109 -14.273  0.00  0.00    +0.138 C 
ATOM     10  C   UNL     1      33.703 -21.656 -17.850  0.00  0.00    +0.152 C 
ATOM     11  C   UNL     1      30.421 -22.652 -15.508  0.00  0.00    -0.011 C 
ATOM     12  C   UNL     1      30.670 -23.934 -13.056  0.00  0.00    +0.029 C 
ATOM     13  C   UNL     1      33.354 -21.134 -19.084  0.00  0.00    +0.048 C 
ATOM     14  C   UNL     1      34.504 -20.497 -19.481  0.00  0.00    +0.046 C 
ATOM     15  C   UNL     1      29.304 -22.799 -14.693  0.00  0.00    -0.004 C 
ATOM     16  C   UNL     1      29.427 -23.440 -13.466  0.00  0.00    +0.002 C 
ATOM     17  C   UNL     1      34.836 -19.733 -20.695  0.00  0.00    +0.049 C 
ATOM     18  H   UNL     1      31.889 -22.482 -17.562  0.00  0.00    +0.156 HD
ATOM     19  H   UNL     1      36.323 -20.338 -18.501  0.00  0.00    +0.174 HD
ENDROOT
BRANCH   9  20
ATOM     20  C   UNL     1      35.304 -24.627 -13.826  0.00  0.00    +0.086 C 
ATOM     21  C   UNL     1      35.751 -25.876 -14.268  0.00  0.00    +0.012 C 
ATOM     22  C   UNL     1      36.098 -23.884 -12.946  0.00  0.00    +0.012 C 
ATOM     23  C   UNL     1      36.978 -26.377 -13.836  0.00  0.00    +0.001 C 
ATOM     24  C   UNL     1      37.325 -24.384 -12.514  0.00  0.00    +0.001 C 
ATOM     25  C   UNL     1      37.767 -25.631 -12.959  0.00  0.00    +0.000 C 
ENDBRANCH   9  20
TORSDOF 1
ENDMDL
MODEL 4
REMARK VINA RESULT:     -11.0      1.956      6.113
REMARK  Name = 6419766
REMARK  1 active torsions:
REMARK  status: ('A' for Active; 'I' for Inactive)
REMARK    1  A    between atoms: C_9  and  C_20
REMARK                            x       y       z     vdW  Elec       q    Type
REMARK                         _______ _______ _______ _____ _____    ______ ____
ROOT
ATOM      1  N   UNL     1      34.947 -21.985 -15.192  0.00  0.00    -0.274 N 
ATOM      2  N   UNL     1      32.859 -22.834 -14.515  0.00  0.00    -0.328 NA
ATOM      3  N   UNL     1      32.642 -24.064 -12.456  0.00  0.00    -0.343 NA
ATOM      4  N   UNL     1      34.207 -21.911 -18.537  0.00  0.00    -0.239 N 
ATOM      5  N   UNL     1      33.885 -22.357 -17.312  0.00  0.00    -0.166 NA
ATOM      6  C   UNL     1      34.787 -23.216 -13.109  0.00  0.00    +0.143 C 
ATOM      7  C   UNL     1      34.171 -22.700 -14.245  0.00  0.00    +0.185 C 
ATOM      8  C   UNL     1      33.956 -23.912 -12.216  0.00  0.00    +0.133 C 
ATOM      9  C   UNL     1      32.164 -23.518 -13.592  0.00  0.00    +0.138 C 
ATOM     10  C   UNL     1      34.830 -21.821 -16.582  0.00  0.00    +0.152 C 
ATOM     11  C   UNL     1      36.160 -23.063 -12.849  0.00  0.00    -0.011 C 
ATOM     12  C   UNL     1      34.537 -24.443 -11.068  0.00  0.00    +0.029 C 
ATOM     13  C   UNL     1      35.755 -21.046 -17.260  0.00  0.00    +0.048 C 
ATOM     14  C   UNL     1      35.320 -21.122 -18.562  0.00  0.00    +0.046 C 
ATOM     15  C   UNL     1      36.713 -23.604 -11.693  0.00  0.00    -0.004 C 
ATOM     16  C   UNL     1      35.902 -24.296 -10.802  0.00  0.00    +0.002 C 
ATOM     17  C   UNL     1      35.838 -20.534 -19.808  0.00  0.00    +0.049 C 
ATOM     18  H   UNL     1      35.715 -21.513 -14.799  0.00  0.00    +0.156 HD
ATOM     19  H   UNL     1      33.689 -22.133 -19.343  0.00  0.00    +0.174 HD
ENDROOT
BRANCH   9  20
ATOM     20  C   UNL     1      30.756 -23.685 -13.840  0.00  0.00    +0.086 C 
ATOM     21  C   UNL     1      30.021 -22.663 -14.448  0.00  0.00    +0.012 C 
ATOM     22  C   UNL     1      30.113 -24.872 -13.476  0.00  0.00    +0.012 C 
ATOM     23  C   UNL     1      28.658 -22.826 -14.690  0.00  0.00    +0.001 C 
ATOM     24  C   UNL     1      28.750 -25.036 -13.718  0.00  0.00    +0.001 C 
ATOM     25  C   UNL     1      28.021 -24.013 -14.326  0.00  0.00    +0.000 C 
ENDBRANCH   9  20
TORSDOF 1
ENDMDL
MODEL 5
REMARK VINA RESULT:     -11.0      1.605      5.221
REMARK  Name = 6419766
REMARK  1 active torsions:
REMARK  status: ('A' for Active; 'I' for Inactive)
REMARK    1  A    between atoms: C_9  and  C_20
REMARK                            x       y       z     vdW  Elec       q    Type
REMARK                         _______ _______ _______ _____ _____    ______ ____
ROOT
ATOM      1  N   UNL     1      31.953 -23.614 -15.371  0.00  0.00    -0.274 N 
ATOM      2  N   UNL     1      33.101 -22.295 -16.945  0.00  0.00    -0.328 NA
ATOM      3  N   UNL     1      35.457 -21.859 -16.699  0.00  0.00    -0.343 NA
ATOM      4  N   UNL     1      28.870 -22.248 -15.977  0.00  0.00    -0.239 N 
ATOM      5  N   UNL     1      30.202 -22.156 -16.123  0.00  0.00    -0.166 NA
ATOM      6  C   UNL     1      34.325 -23.209 -15.073  0.00  0.00    +0.143 C 
ATOM      7  C   UNL     1      33.161 -23.020 -15.813  0.00  0.00    +0.185 C 
ATOM      8  C   UNL     1      35.483 -22.590 -15.571  0.00  0.00    +0.133 C 
ATOM      9  C   UNL     1      34.268 -21.751 -17.325  0.00  0.00    +0.138 C 
ATOM     10  C   UNL     1      30.607 -23.236 -15.504  0.00  0.00    +0.152 C 
ATOM     11  C   UNL     1      34.363 -23.972 -13.892  0.00  0.00    -0.011 C 
ATOM     12  C   UNL     1      36.667 -22.757 -14.857  0.00  0.00    +0.029 C 
ATOM     13  C   UNL     1      29.614 -24.032 -14.959  0.00  0.00    +0.048 C 
ATOM     14  C   UNL     1      28.465 -23.353 -15.286  0.00  0.00    +0.046 C 
ATOM     15  C   UNL     1      35.560 -24.121 -13.200  0.00  0.00    -0.004 C 
ATOM     16  C   UNL     1      36.713 -23.513 -13.682  0.00  0.00    +0.002 C 
ATOM     17  C   UNL     1      27.046 -23.636 -15.019  0.00  0.00    +0.049 C 
ATOM     18  H   UNL     1      32.082 -24.455 -14.876  0.00  0.00    +0.156 HD
ATOM     19  H   UNL     1      28.242 -21.579 -16.334  0.00  0.00    +0.174 HD
ENDROOT
BRANCH   9  20
ATOM     20  C   UNL     1      34.250 -20.967 -18.532  0.00  0.00    +0.086 C 
ATOM     21  C   UNL     1      33.037 -20.665 -19.158  0.00  0.00    +0.012 C 
ATOM     22  C   UNL     1      35.445 -20.500 -19.087  0.00  0.00    +0.012 C 
ATOM     23  C   UNL     1      33.019 -19.904 -20.327  0.00  0.00    +0.001 C 
ATOM     24  C   UNL     1      35.428 -19.739 -20.255  0.00  0.00    +0.001 C 
ATOM     25  C   UNL     1      34.215 -19.440 -20.876  0.00  0.00    +0.000 C 
ENDBRANCH   9  20
TORSDOF 1
ENDMDL
MODEL 6
REMARK VINA RESULT:     -10.0      1.613      6.499
REMARK  Name = 6419766
REMARK  1 active torsions:
REMARK  status: ('A' for Active; 'I' for Inactive)
REMARK    1  A    between atoms: C_9  and  C_20
REMARK                            x       y       z     vdW  Elec       q    Type
REMARK                         _______ _______ _______ _____ _____    ______ ____
ROOT
ATOM      1  N   UNL     1      31.733 -22.754 -15.456  0.00  0.00    -0.274 N 
ATOM      2  N   UNL     1      33.845 -23.014 -14.452  0.00  0.00    -0.328 NA
ATOM      3  N   UNL     1      35.851 -22.396 -15.633  0.00  0.00    -0.343 NA
ATOM      4  N   UNL     1      30.177 -25.170 -13.591  0.00  0.00    -0.239 N 
ATOM      5  N   UNL     1      31.331 -24.621 -14.003  0.00  0.00    -0.166 NA
ATOM      6  C   UNL     1      33.719 -22.114 -16.691  0.00  0.00    +0.143 C 
ATOM      7  C   UNL     1      33.142 -22.625 -15.532  0.00  0.00    +0.185 C 
ATOM      8  C   UNL     1      35.120 -22.015 -16.694  0.00  0.00    +0.133 C 
ATOM      9  C   UNL     1      35.175 -22.875 -14.569  0.00  0.00    +0.138 C 
ATOM     10  C   UNL     1      30.899 -23.651 -14.769  0.00  0.00    +0.152 C 
ATOM     11  C   UNL     1      32.963 -21.713 -17.807  0.00  0.00    -0.011 C 
ATOM     12  C   UNL     1      35.733 -21.509 -17.837  0.00  0.00    +0.029 C 
ATOM     13  C   UNL     1      29.524 -23.534 -14.882  0.00  0.00    +0.048 C 
ATOM     14  C   UNL     1      29.064 -24.557 -14.089  0.00  0.00    +0.046 C 
ATOM     15  C   UNL     1      33.602 -21.211 -18.936  0.00  0.00    -0.004 C 
ATOM     16  C   UNL     1      34.988 -21.108 -18.952  0.00  0.00    +0.002 C 
ATOM     17  C   UNL     1      27.703 -25.009 -13.757  0.00  0.00    +0.049 C 
ATOM     18  H   UNL     1      31.244 -22.085 -15.988  0.00  0.00    +0.156 HD
ATOM     19  H   UNL     1      30.137 -25.945 -12.985  0.00  0.00    +0.174 HD
ENDROOT
BRANCH   9  20
ATOM     20  C   UNL     1      35.966 -23.279 -13.437  0.00  0.00    +0.086 C 
ATOM     21  C   UNL     1      35.705 -22.750 -12.170  0.00  0.00    +0.012 C 
ATOM     22  C   UNL     1      37.001 -24.206 -13.596  0.00  0.00    +0.012 C 
ATOM     23  C   UNL     1      36.470 -23.143 -11.072  0.00  0.00    +0.001 C 
ATOM     24  C   UNL     1      37.766 -24.600 -12.499  0.00  0.00    +0.001 C 
ATOM     25  C   UNL     1      37.501 -24.069 -11.236  0.00  0.00    +0.000 C 
ENDBRANCH   9  20
TORSDOF 1
ENDMDL
MODEL 7
REMARK VINA RESULT:     -10.0      1.730      5.312
REMARK  Name = 6419766
REMARK  1 active torsions:
REMARK  status: ('A' for Active; 'I' for Inactive)
REMARK    1  A    between atoms: C_9  and  C_20
REMARK                            x       y       z     vdW  Elec       q    Type
REMARK                         _______ _______ _______ _____ _____    ______ ____
ROOT
ATOM      1  N   UNL     1      32.313 -24.411 -13.348  0.00  0.00    -0.274 N 
ATOM      2  N   UNL     1      33.564 -23.200 -14.931  0.00  0.00    -0.328 NA
ATOM      3  N   UNL     1      35.757 -22.366 -14.387  0.00  0.00    -0.343 NA
ATOM      4  N   UNL     1      29.254 -23.661 -14.697  0.00  0.00    -0.239 N 
ATOM      5  N   UNL     1      30.567 -23.386 -14.637  0.00  0.00    -0.166 NA
ATOM      6  C   UNL     1      34.516 -23.596 -12.746  0.00  0.00    +0.143 C 
ATOM      7  C   UNL     1      33.499 -23.713 -13.689  0.00  0.00    +0.185 C 
ATOM      8  C   UNL     1      35.661 -22.892 -13.154  0.00  0.00    +0.133 C 
ATOM      9  C   UNL     1      34.704 -22.548 -15.209  0.00  0.00    +0.138 C 
ATOM     10  C   UNL     1      30.980 -24.275 -13.769  0.00  0.00    +0.152 C 
ATOM     11  C   UNL     1      34.425 -24.142 -11.453  0.00  0.00    -0.011 C 
ATOM     12  C   UNL     1      36.699 -22.754 -12.237  0.00  0.00    +0.029 C 
ATOM     13  C   UNL     1      30.010 -25.118 -13.255  0.00  0.00    +0.048 C 
ATOM     14  C   UNL     1      28.867 -24.689 -13.888  0.00  0.00    +0.046 C 
ATOM     15  C   UNL     1      35.478 -23.988 -10.558  0.00  0.00    -0.004 C 
ATOM     16  C   UNL     1      36.617 -23.293 -10.949  0.00  0.00    +0.002 C 
ATOM     17  C   UNL     1      27.470 -25.144 -13.809  0.00  0.00    +0.049 C 
ATOM     18  H   UNL     1      32.450 -25.130 -12.690  0.00  0.00    +0.156 HD
ATOM     19  H   UNL     1      28.627 -23.165 -15.271  0.00  0.00    +0.174 HD
ENDROOT
BRANCH   9  20
ATOM     20  C   UNL     1      34.817 -21.982 -16.528  0.00  0.00    +0.086 C 
ATOM     21  C   UNL     1      35.984 -21.317 -16.913  0.00  0.00    +0.012 C 
ATOM     22  C   UNL     1      33.758 -22.096 -17.435  0.00  0.00    +0.012 C 
ATOM     23  C   UNL     1      36.093 -20.771 -18.191  0.00  0.00    +0.001 C 
ATOM     24  C   UNL     1      33.867 -21.550 -18.713  0.00  0.00    +0.001 C 
ATOM     25  C   UNL     1      35.035 -20.887 -19.092  0.00  0.00    +0.000 C 
ENDBRANCH   9  20
TORSDOF 1
ENDMDL
