MODEL 1
REMARK VINA RESULT:     -11.4      0.000      0.000
REMARK  Name = 4565
REMARK  4 active torsions:
REMARK  status: ('A' for Active; 'I' for Inactive)
REMARK    1  A    between atoms: N_5  and  C_15
REMARK    2  A    between atoms: C_6  and  O_21
REMARK    3  A    between atoms: O_21  and  C_22
REMARK    4  A    between atoms: C_22  and  C_23
REMARK                            x       y       z     vdW  Elec       q    Type
REMARK                         _______ _______ _______ _____ _____    ______ ____
ROOT
ATOM      1  N   UNL     1      31.958 -23.147 -15.042  0.00  0.00    -0.293 NA
ATOM      2  N   UNL     1      28.590 -22.379 -16.304  0.00  0.00    -0.266 NA
ATOM      3  N   UNL     1      30.151 -23.867 -13.568  0.00  0.00    -0.316 NA
ATOM      4  N   UNL     1      27.930 -23.353 -14.410  0.00  0.00    -0.296 N 
ATOM      5  N   UNL     1      32.395 -24.229 -13.012  0.00  0.00    -0.238 N 
ATOM      6  C   UNL     1      31.082 -22.647 -15.940  0.00  0.00    +0.288 C 
ATOM      7  C   UNL     1      29.735 -22.752 -15.660  0.00  0.00    +0.215 C 
ATOM      8  C   UNL     1      29.300 -23.355 -14.488  0.00  0.00    +0.196 C 
ATOM      9  C   UNL     1      31.445 -23.719 -13.926  0.00  0.00    +0.207 C 
ATOM     10  C   UNL     1      27.535 -22.760 -15.517  0.00  0.00    +0.164 C 
ATOM     11  H   UNL     1      28.532 -21.919 -17.173  0.00  0.00    +0.126 HD
ATOM     12  H   UNL     1      27.368 -23.716 -13.688  0.00  0.00    +0.150 HD
ATOM     13  H   UNL     1      31.995 -24.639 -12.210  0.00  0.00    +0.166 HD
ENDROOT
BRANCH   5  15
ATOM     14 CL   UNL     1      36.819 -22.658 -10.941  0.00  0.00    -0.082 Cl
ATOM     15  C   UNL     1      33.801 -24.266 -13.023  0.00  0.00    +0.059 C 
ATOM     16  C   UNL     1      34.530 -23.529 -12.086  0.00  0.00    +0.027 C 
ATOM     17  C   UNL     1      34.475 -25.040 -13.971  0.00  0.00    +0.015 C 
ATOM     18  C   UNL     1      35.924 -23.567 -12.097  0.00  0.00    +0.059 C 
ATOM     19  C   UNL     1      35.869 -25.078 -13.981  0.00  0.00    +0.002 C 
ATOM     20  C   UNL     1      36.594 -24.341 -13.044  0.00  0.00    +0.011 C 
ENDBRANCH   5  15
BRANCH   6  21
ATOM     21  O   UNL     1      31.568 -22.060 -17.083  0.00  0.00    -0.453 OA
BRANCH  21  22
ATOM     22  C   UNL     1      32.881 -22.412 -17.478  0.00  0.00    +0.208 C 
BRANCH  22  23
ATOM     23  C   UNL     1      33.211 -21.673 -18.774  0.00  0.00    +0.044 C 
ATOM     24  C   UNL     1      32.153 -20.601 -19.071  0.00  0.00    +0.004 C 
ATOM     25  C   UNL     1      34.612 -21.052 -18.701  0.00  0.00    +0.004 C 
ATOM     26  C   UNL     1      32.489 -19.812 -20.334  0.00  0.00    +0.000 C 
ATOM     27  C   UNL     1      34.944 -20.261 -19.965  0.00  0.00    +0.000 C 
ATOM     28  C   UNL     1      33.886 -19.203 -20.263  0.00  0.00    +0.000 C 
ENDBRANCH  22  23
ENDBRANCH  21  22
ENDBRANCH   6  21
TORSDOF 4
ENDMDL
MODEL 2
REMARK VINA RESULT:     -11.2      1.403      1.808
REMARK  Name = 4565
REMARK  4 active torsions:
REMARK  status: ('A' for Active; 'I' for Inactive)
REMARK    1  A    between atoms: N_5  and  C_15
REMARK    2  A    between atoms: C_6  and  O_21
REMARK    3  A    between atoms: O_21  and  C_22
REMARK    4  A    between atoms: C_22  and  C_23
REMARK                            x       y       z     vdW  Elec       q    Type
REMARK                         _______ _______ _______ _____ _____    ______ ____
ROOT
ATOM      1  N   UNL     1      32.414 -23.578 -13.996  0.00  0.00    -0.293 NA
ATOM      2  N   UNL     1      29.014 -23.707 -15.393  0.00  0.00    -0.266 NA
ATOM      3  N   UNL     1      30.797 -24.737 -12.583  0.00  0.00    -0.316 NA
ATOM      4  N   UNL     1      28.554 -24.815 -13.515  0.00  0.00    -0.296 N 
ATOM      5  N   UNL     1      33.034 -24.507 -11.938  0.00  0.00    -0.238 N 
ATOM      6  C   UNL     1      31.475 -23.323 -14.933  0.00  0.00    +0.288 C 
ATOM      7  C   UNL     1      30.191 -23.771 -14.703  0.00  0.00    +0.215 C 
ATOM      8  C   UNL     1      29.879 -24.464 -13.541  0.00  0.00    +0.196 C 
ATOM      9  C   UNL     1      32.022 -24.261 -12.893  0.00  0.00    +0.207 C 
ATOM     10  C   UNL     1      28.063 -24.346 -14.642  0.00  0.00    +0.164 C 
ATOM     11  H   UNL     1      28.874 -23.280 -16.270  0.00  0.00    +0.126 HD
ATOM     12  H   UNL     1      28.075 -25.309 -12.810  0.00  0.00    +0.150 HD
ATOM     13  H   UNL     1      32.721 -25.005 -11.147  0.00  0.00    +0.166 HD
ENDROOT
BRANCH   5  15
ATOM     14 CL   UNL     1      37.718 -25.054 -13.960  0.00  0.00    -0.082 Cl
ATOM     15  C   UNL     1      34.401 -24.180 -11.895  0.00  0.00    +0.059 C 
ATOM     16  C   UNL     1      35.281 -24.717 -12.839  0.00  0.00    +0.027 C 
ATOM     17  C   UNL     1      34.886 -23.317 -10.909  0.00  0.00    +0.015 C 
ATOM     18  C   UNL     1      36.636 -24.392 -12.796  0.00  0.00    +0.059 C 
ATOM     19  C   UNL     1      36.242 -22.992 -10.867  0.00  0.00    +0.002 C 
ATOM     20  C   UNL     1      37.117 -23.529 -11.811  0.00  0.00    +0.011 C 
ENDBRANCH   5  15
BRANCH   6  21
ATOM     21  O   UNL     1      31.838 -22.633 -16.064  0.00  0.00    -0.453 OA
BRANCH  21  22
ATOM     22  C   UNL     1      33.107 -22.928 -16.617  0.00  0.00    +0.208 C 
BRANCH  22  23
ATOM     23  C   UNL     1      33.198 -22.275 -17.995  0.00  0.00    +0.044 C 
ATOM     24  C   UNL     1      32.045 -21.283 -18.202  0.00  0.00    +0.004 C 
ATOM     25  C   UNL     1      34.555 -21.581 -18.177  0.00  0.00    +0.004 C 
ATOM     26  C   UNL     1      32.144 -20.577 -19.552  0.00  0.00    +0.000 C 
ATOM     27  C   UNL     1      34.649 -20.874 -19.527  0.00  0.00    +0.000 C 
ATOM     28  C   UNL     1      33.496 -19.896 -19.733  0.00  0.00    +0.000 C 
ENDBRANCH  22  23
ENDBRANCH  21  22
ENDBRANCH   6  21
TORSDOF 4
ENDMDL
MODEL 3
REMARK VINA RESULT:     -11.0      2.766      6.442
REMARK  Name = 4565
REMARK  4 active torsions:
REMARK  status: ('A' for Active; 'I' for Inactive)
REMARK    1  A    between atoms: N_5  and  C_15
REMARK    2  A    between atoms: C_6  and  O_21
REMARK    3  A    between atoms: O_21  and  C_22
REMARK    4  A    between atoms: C_22  and  C_23
REMARK                            x       y       z     vdW  Elec       q    Type
REMARK                         _______ _______ _______ _____ _____    ______ ____
ROOT
ATOM      1  N   UNL     1      32.602 -22.657 -15.758  0.00  0.00    -0.293 NA
ATOM      2  N   UNL     1      30.772 -24.275 -13.009  0.00  0.00    -0.266 NA
ATOM      3  N   UNL     1      30.197 -22.841 -16.131  0.00  0.00    -0.316 NA
ATOM      4  N   UNL     1      28.998 -23.912 -14.309  0.00  0.00    -0.296 N 
ATOM      5  N   UNL     1      31.605 -21.854 -17.719  0.00  0.00    -0.238 N 
ATOM      6  C   UNL     1      32.503 -23.259 -14.553  0.00  0.00    +0.288 C 
ATOM      7  C   UNL     1      31.253 -23.657 -14.128  0.00  0.00    +0.215 C 
ATOM      8  C   UNL     1      30.133 -23.442 -14.919  0.00  0.00    +0.196 C 
ATOM      9  C   UNL     1      31.458 -22.487 -16.464  0.00  0.00    +0.207 C 
ATOM     10  C   UNL     1      29.417 -24.406 -13.163  0.00  0.00    +0.164 C 
ATOM     11  H   UNL     1      31.301 -24.572 -12.233  0.00  0.00    +0.126 HD
ATOM     12  H   UNL     1      28.076 -23.886 -14.651  0.00  0.00    +0.150 HD
ATOM     13  H   UNL     1      30.758 -21.743 -18.209  0.00  0.00    +0.166 HD
ENDROOT
BRANCH   5  15
ATOM     14 CL   UNL     1      33.454 -18.843 -21.440  0.00  0.00    -0.082 Cl
ATOM     15  C   UNL     1      32.725 -21.350 -18.405  0.00  0.00    +0.059 C 
ATOM     16  C   UNL     1      32.555 -20.451 -19.461  0.00  0.00    +0.027 C 
ATOM     17  C   UNL     1      34.012 -21.747 -18.034  0.00  0.00    +0.015 C 
ATOM     18  C   UNL     1      33.666 -19.952 -20.140  0.00  0.00    +0.059 C 
ATOM     19  C   UNL     1      35.122 -21.247 -18.713  0.00  0.00    +0.002 C 
ATOM     20  C   UNL     1      34.949 -20.349 -19.767  0.00  0.00    +0.011 C 
ENDBRANCH   5  15
BRANCH   6  21
ATOM     21  O   UNL     1      33.644 -23.447 -13.812  0.00  0.00    -0.453 OA
BRANCH  21  22
ATOM     22  C   UNL     1      34.793 -22.718 -14.202  0.00  0.00    +0.208 C 
BRANCH  22  23
ATOM     23  C   UNL     1      36.024 -23.401 -13.610  0.00  0.00    +0.044 C 
ATOM     24  C   UNL     1      36.027 -23.280 -12.080  0.00  0.00    +0.004 C 
ATOM     25  C   UNL     1      36.089 -24.872 -14.042  0.00  0.00    +0.004 C 
ATOM     26  C   UNL     1      37.222 -24.001 -11.460  0.00  0.00    +0.000 C 
ATOM     27  C   UNL     1      37.284 -25.590 -13.418  0.00  0.00    +0.000 C 
ATOM     28  C   UNL     1      37.288 -25.460 -11.898  0.00  0.00    +0.000 C 
ENDBRANCH  22  23
ENDBRANCH  21  22
ENDBRANCH   6  21
TORSDOF 4
ENDMDL
MODEL 4
REMARK VINA RESULT:     -10.9      3.213      7.061
REMARK  Name = 4565
REMARK  4 active torsions:
REMARK  status: ('A' for Active; 'I' for Inactive)
REMARK    1  A    between atoms: N_5  and  C_15
REMARK    2  A    between atoms: C_6  and  O_21
REMARK    3  A    between atoms: O_21  and  C_22
REMARK    4  A    between atoms: C_22  and  C_23
REMARK                            x       y       z     vdW  Elec       q    Type
REMARK                         _______ _______ _______ _____ _____    ______ ____
ROOT
ATOM      1  N   UNL     1      34.164 -23.235 -15.107  0.00  0.00    -0.293 NA
ATOM      2  N   UNL     1      35.191 -24.984 -12.039  0.00  0.00    -0.266 NA
ATOM      3  N   UNL     1      36.555 -23.103 -14.635  0.00  0.00    -0.316 NA
ATOM      4  N   UNL     1      37.222 -24.260 -12.605  0.00  0.00    -0.296 N 
ATOM      5  N   UNL     1      35.627 -22.079 -16.524  0.00  0.00    -0.238 N 
ATOM      6  C   UNL     1      33.944 -23.974 -13.998  0.00  0.00    +0.288 C 
ATOM      7  C   UNL     1      35.025 -24.282 -13.199  0.00  0.00    +0.215 C 
ATOM      8  C   UNL     1      36.300 -23.844 -13.531  0.00  0.00    +0.196 C 
ATOM      9  C   UNL     1      35.440 -22.850 -15.354  0.00  0.00    +0.207 C 
ATOM     10  C   UNL     1      36.524 -24.943 -11.723  0.00  0.00    +0.164 C 
ATOM     11  H   UNL     1      34.484 -25.436 -11.524  0.00  0.00    +0.126 HD
ATOM     12  H   UNL     1      38.192 -24.088 -12.602  0.00  0.00    +0.150 HD
ATOM     13  H   UNL     1      36.563 -21.814 -16.679  0.00  0.00    +0.166 HD
ENDROOT
BRANCH   5  15
ATOM     14 CL   UNL     1      34.889 -19.318 -20.785  0.00  0.00    -0.082 Cl
ATOM     15  C   UNL     1      34.738 -21.616 -17.511  0.00  0.00    +0.059 C 
ATOM     16  C   UNL     1      35.199 -20.791 -18.540  0.00  0.00    +0.027 C 
ATOM     17  C   UNL     1      33.389 -21.980 -17.466  0.00  0.00    +0.015 C 
ATOM     18  C   UNL     1      34.317 -20.334 -19.518  0.00  0.00    +0.059 C 
ATOM     19  C   UNL     1      32.508 -21.522 -18.445  0.00  0.00    +0.002 C 
ATOM     20  C   UNL     1      32.972 -20.698 -19.471  0.00  0.00    +0.011 C 
ENDBRANCH   5  15
BRANCH   6  21
ATOM     21  O   UNL     1      32.662 -24.381 -13.717  0.00  0.00    -0.453 OA
BRANCH  21  22
ATOM     22  C   UNL     1      31.929 -23.605 -12.788  0.00  0.00    +0.208 C 
BRANCH  22  23
ATOM     23  C   UNL     1      30.492 -23.478 -13.289  0.00  0.00    +0.044 C 
ATOM     24  C   UNL     1      30.455 -22.783 -14.657  0.00  0.00    +0.004 C 
ATOM     25  C   UNL     1      29.818 -24.855 -13.357  0.00  0.00    +0.004 C 
ATOM     26  C   UNL     1      29.032 -22.692 -15.204  0.00  0.00    +0.000 C 
ATOM     27  C   UNL     1      28.397 -24.760 -13.907  0.00  0.00    +0.000 C 
ATOM     28  C   UNL     1      28.363 -24.061 -15.262  0.00  0.00    +0.000 C 
ENDBRANCH  22  23
ENDBRANCH  21  22
ENDBRANCH   6  21
TORSDOF 4
ENDMDL
MODEL 5
REMARK VINA RESULT:     -10.7      8.186     11.406
REMARK  Name = 4565
REMARK  4 active torsions:
REMARK  status: ('A' for Active; 'I' for Inactive)
REMARK    1  A    between atoms: N_5  and  C_15
REMARK    2  A    between atoms: C_6  and  O_21
REMARK    3  A    between atoms: O_21  and  C_22
REMARK    4  A    between atoms: C_22  and  C_23
REMARK                            x       y       z     vdW  Elec       q    Type
REMARK                         _______ _______ _______ _____ _____    ______ ____
ROOT
ATOM      1  N   UNL     1      33.588 -15.337 -22.357  0.00  0.00    -0.293 NA
ATOM      2  N   UNL     1      32.509 -12.439 -24.346  0.00  0.00    -0.266 NA
ATOM      3  N   UNL     1      33.404 -15.782 -24.749  0.00  0.00    -0.316 NA
ATOM      4  N   UNL     1      32.689 -13.860 -26.054  0.00  0.00    -0.296 N 
ATOM      5  N   UNL     1      34.071 -17.448 -23.248  0.00  0.00    -0.238 N 
ATOM      6  C   UNL     1      33.203 -14.053 -22.523  0.00  0.00    +0.288 C 
ATOM      7  C   UNL     1      32.915 -13.623 -23.802  0.00  0.00    +0.215 C 
ATOM      8  C   UNL     1      33.020 -14.490 -24.881  0.00  0.00    +0.196 C 
ATOM      9  C   UNL     1      33.664 -16.112 -23.466  0.00  0.00    +0.207 C 
ATOM     10  C   UNL     1      32.387 -12.630 -25.698  0.00  0.00    +0.164 C 
ATOM     11  H   UNL     1      32.335 -11.601 -23.859  0.00  0.00    +0.126 HD
ATOM     12  H   UNL     1      32.679 -14.243 -26.961  0.00  0.00    +0.150 HD
ATOM     13  H   UNL     1      34.117 -17.988 -24.071  0.00  0.00    +0.166 HD
ENDROOT
BRANCH   5  15
ATOM     14 CL   UNL     1      32.620 -20.530 -19.410  0.00  0.00    -0.082 Cl
ATOM     15  C   UNL     1      34.422 -18.158 -22.086  0.00  0.00    +0.059 C 
ATOM     16  C   UNL     1      33.459 -18.905 -21.402  0.00  0.00    +0.027 C 
ATOM     17  C   UNL     1      35.735 -18.120 -21.610  0.00  0.00    +0.015 C 
ATOM     18  C   UNL     1      33.809 -19.610 -20.250  0.00  0.00    +0.059 C 
ATOM     19  C   UNL     1      36.084 -18.825 -20.458  0.00  0.00    +0.002 C 
ATOM     20  C   UNL     1      35.120 -19.570 -19.778  0.00  0.00    +0.011 C 
ENDBRANCH   5  15
BRANCH   6  21
ATOM     21  O   UNL     1      33.116 -13.240 -21.419  0.00  0.00    -0.453 OA
BRANCH  21  22
ATOM     22  C   UNL     1      31.995 -13.421 -20.574  0.00  0.00    +0.208 C 
BRANCH  22  23
ATOM     23  C   UNL     1      31.210 -12.112 -20.523  0.00  0.00    +0.044 C 
ATOM     24  C   UNL     1      31.127 -11.585 -19.083  0.00  0.00    +0.004 C 
ATOM     25  C   UNL     1      31.841 -11.065 -21.452  0.00  0.00    +0.004 C 
ATOM     26  C   UNL     1      30.392 -10.248 -19.014  0.00  0.00    +0.000 C 
ATOM     27  C   UNL     1      31.104  -9.729 -21.377  0.00  0.00    +0.000 C 
ATOM     28  C   UNL     1      31.016  -9.214 -19.944  0.00  0.00    +0.000 C 
ENDBRANCH  22  23
ENDBRANCH  21  22
ENDBRANCH   6  21
TORSDOF 4
ENDMDL
MODEL 6
REMARK VINA RESULT:     -10.6      2.591      5.663
REMARK  Name = 4565
REMARK  4 active torsions:
REMARK  status: ('A' for Active; 'I' for Inactive)
REMARK    1  A    between atoms: N_5  and  C_15
REMARK    2  A    between atoms: C_6  and  O_21
REMARK    3  A    between atoms: O_21  and  C_22
REMARK    4  A    between atoms: C_22  and  C_23
REMARK                            x       y       z     vdW  Elec       q    Type
REMARK                         _______ _______ _______ _____ _____    ______ ____
ROOT
ATOM      1  N   UNL     1      34.382 -22.713 -16.221  0.00  0.00    -0.293 NA
ATOM      2  N   UNL     1      33.246 -20.981 -19.260  0.00  0.00    -0.266 NA
ATOM      3  N   UNL     1      36.077 -21.293 -17.253  0.00  0.00    -0.316 NA
ATOM      4  N   UNL     1      35.316 -20.155 -19.261  0.00  0.00    -0.296 N 
ATOM      5  N   UNL     1      36.529 -22.512 -15.308  0.00  0.00    -0.238 N 
ATOM      6  C   UNL     1      33.476 -22.393 -17.170  0.00  0.00    +0.288 C 
ATOM      7  C   UNL     1      33.862 -21.521 -18.167  0.00  0.00    +0.215 C 
ATOM      8  C   UNL     1      35.146 -20.993 -18.190  0.00  0.00    +0.196 C 
ATOM      9  C   UNL     1      35.611 -22.150 -16.320  0.00  0.00    +0.207 C 
ATOM     10  C   UNL     1      34.157 -20.169 -19.884  0.00  0.00    +0.164 C 
ATOM     11  H   UNL     1      32.319 -21.145 -19.548  0.00  0.00    +0.126 HD
ATOM     12  H   UNL     1      36.126 -19.653 -19.510  0.00  0.00    +0.150 HD
ATOM     13  H   UNL     1      37.414 -22.089 -15.404  0.00  0.00    +0.166 HD
ENDROOT
BRANCH   5  15
ATOM     14 CL   UNL     1      34.284 -23.553 -10.813  0.00  0.00    -0.082 Cl
ATOM     15  C   UNL     1      36.427 -23.358 -14.189  0.00  0.00    +0.059 C 
ATOM     16  C   UNL     1      35.513 -23.070 -13.172  0.00  0.00    +0.027 C 
ATOM     17  C   UNL     1      37.240 -24.490 -14.089  0.00  0.00    +0.015 C 
ATOM     18  C   UNL     1      35.412 -23.910 -12.064  0.00  0.00    +0.059 C 
ATOM     19  C   UNL     1      37.138 -25.330 -12.981  0.00  0.00    +0.002 C 
ATOM     20  C   UNL     1      36.224 -25.040 -11.967  0.00  0.00    +0.011 C 
ENDBRANCH   5  15
BRANCH   6  21
ATOM     21  O   UNL     1      32.220 -22.945 -17.099  0.00  0.00    -0.453 OA
BRANCH  21  22
ATOM     22  C   UNL     1      31.325 -22.390 -16.154  0.00  0.00    +0.208 C 
BRANCH  22  23
ATOM     23  C   UNL     1      30.920 -23.485 -15.169  0.00  0.00    +0.044 C 
ATOM     24  C   UNL     1      31.775 -23.413 -13.896  0.00  0.00    +0.004 C 
ATOM     25  C   UNL     1      29.427 -23.383 -14.830  0.00  0.00    +0.004 C 
ATOM     26  C   UNL     1      31.353 -24.466 -12.874  0.00  0.00    +0.000 C 
ATOM     27  C   UNL     1      29.009 -24.435 -13.805  0.00  0.00    +0.000 C 
ATOM     28  C   UNL     1      29.867 -24.367 -12.546  0.00  0.00    +0.000 C 
ENDBRANCH  22  23
ENDBRANCH  21  22
ENDBRANCH   6  21
TORSDOF 4
ENDMDL
MODEL 7
REMARK VINA RESULT:     -10.4      3.184      6.977
REMARK  Name = 4565
REMARK  4 active torsions:
REMARK  status: ('A' for Active; 'I' for Inactive)
REMARK    1  A    between atoms: N_5  and  C_15
REMARK    2  A    between atoms: C_6  and  O_21
REMARK    3  A    between atoms: O_21  and  C_22
REMARK    4  A    between atoms: C_22  and  C_23
REMARK                            x       y       z     vdW  Elec       q    Type
REMARK                         _______ _______ _______ _____ _____    ______ ____
ROOT
ATOM      1  N   UNL     1      34.684 -23.468 -14.867  0.00  0.00    -0.293 NA
ATOM      2  N   UNL     1      35.459 -25.323 -11.788  0.00  0.00    -0.266 NA
ATOM      3  N   UNL     1      36.999 -23.252 -14.127  0.00  0.00    -0.316 NA
ATOM      4  N   UNL     1      37.500 -24.480 -12.091  0.00  0.00    -0.296 N 
ATOM      5  N   UNL     1      36.232 -22.176 -16.058  0.00  0.00    -0.238 N 
ATOM      6  C   UNL     1      34.382 -24.272 -13.825  0.00  0.00    +0.288 C 
ATOM      7  C   UNL     1      35.384 -24.572 -12.925  0.00  0.00    +0.215 C 
ATOM      8  C   UNL     1      36.664 -24.059 -13.093  0.00  0.00    +0.196 C 
ATOM      9  C   UNL     1      35.958 -23.014 -14.953  0.00  0.00    +0.207 C 
ATOM     10  C   UNL     1      36.745 -25.238 -11.324  0.00  0.00    +0.164 C 
ATOM     11  H   UNL     1      34.724 -25.833 -11.375  0.00  0.00    +0.126 HD
ATOM     12  H   UNL     1      38.453 -24.265 -11.972  0.00  0.00    +0.150 HD
ATOM     13  H   UNL     1      37.165 -21.861 -16.096  0.00  0.00    +0.166 HD
ENDROOT
BRANCH   5  15
ATOM     14 CL   UNL     1      31.555 -21.675 -18.107  0.00  0.00    -0.082 Cl
ATOM     15  C   UNL     1      35.434 -21.704 -17.115  0.00  0.00    +0.059 C 
ATOM     16  C   UNL     1      34.050 -21.901 -17.092  0.00  0.00    +0.027 C 
ATOM     17  C   UNL     1      36.020 -21.037 -18.194  0.00  0.00    +0.015 C 
ATOM     18  C   UNL     1      33.259 -21.432 -18.140  0.00  0.00    +0.059 C 
ATOM     19  C   UNL     1      35.228 -20.568 -19.242  0.00  0.00    +0.002 C 
ATOM     20  C   UNL     1      33.847 -20.765 -19.215  0.00  0.00    +0.011 C 
ENDBRANCH   5  15
BRANCH   6  21
ATOM     21  O   UNL     1      33.100 -24.751 -13.707  0.00  0.00    -0.453 OA
BRANCH  21  22
ATOM     22  C   UNL     1      32.123 -23.858 -13.205  0.00  0.00    +0.208 C 
BRANCH  22  23
ATOM     23  C   UNL     1      30.870 -23.973 -14.071  0.00  0.00    +0.044 C 
ATOM     24  C   UNL     1      29.710 -24.576 -13.267  0.00  0.00    +0.004 C 
ATOM     25  C   UNL     1      30.482 -22.604 -14.647  0.00  0.00    +0.004 C 
ATOM     26  C   UNL     1      28.430 -24.652 -14.096  0.00  0.00    +0.000 C 
ATOM     27  C   UNL     1      29.201 -22.684 -15.473  0.00  0.00    +0.000 C 
ATOM     28  C   UNL     1      28.052 -23.292 -14.674  0.00  0.00    +0.000 C 
ENDBRANCH  22  23
ENDBRANCH  21  22
ENDBRANCH   6  21
TORSDOF 4
ENDMDL
MODEL 8
REMARK VINA RESULT:     -10.1      2.997      5.803
REMARK  Name = 4565
REMARK  4 active torsions:
REMARK  status: ('A' for Active; 'I' for Inactive)
REMARK    1  A    between atoms: N_5  and  C_15
REMARK    2  A    between atoms: C_6  and  O_21
REMARK    3  A    between atoms: O_21  and  C_22
REMARK    4  A    between atoms: C_22  and  C_23
REMARK                            x       y       z     vdW  Elec       q    Type
REMARK                         _______ _______ _______ _____ _____    ______ ____
ROOT
ATOM      1  N   UNL     1      34.353 -23.854 -14.017  0.00  0.00    -0.293 NA
ATOM      2  N   UNL     1      37.958 -24.442 -13.584  0.00  0.00    -0.266 NA
ATOM      3  N   UNL     1      34.946 -24.904 -11.895  0.00  0.00    -0.316 NA
ATOM      4  N   UNL     1      37.330 -25.289 -11.620  0.00  0.00    -0.296 N 
ATOM      5  N   UNL     1      32.722 -24.415 -12.433  0.00  0.00    -0.238 N 
ATOM      6  C   UNL     1      35.646 -23.812 -14.405  0.00  0.00    +0.288 C 
ATOM      7  C   UNL     1      36.599 -24.315 -13.543  0.00  0.00    +0.215 C 
ATOM      8  C   UNL     1      36.232 -24.848 -12.315  0.00  0.00    +0.196 C 
ATOM      9  C   UNL     1      34.086 -24.390 -12.801  0.00  0.00    +0.207 C 
ATOM     10  C   UNL     1      38.350 -25.030 -12.410  0.00  0.00    +0.164 C 
ATOM     11  H   UNL     1      38.548 -24.163 -14.321  0.00  0.00    +0.126 HD
ATOM     12  H   UNL     1      37.350 -25.706 -10.729  0.00  0.00    +0.150 HD
ATOM     13  H   UNL     1      32.557 -24.810 -11.546  0.00  0.00    +0.166 HD
ENDROOT
BRANCH   5  15
ATOM     14 CL   UNL     1      27.857 -25.376 -13.751  0.00  0.00    -0.082 Cl
ATOM     15  C   UNL     1      31.552 -23.987 -13.087  0.00  0.00    +0.059 C 
ATOM     16  C   UNL     1      30.415 -24.799 -13.095  0.00  0.00    +0.027 C 
ATOM     17  C   UNL     1      31.522 -22.747 -13.730  0.00  0.00    +0.015 C 
ATOM     18  C   UNL     1      29.256 -24.373 -13.743  0.00  0.00    +0.059 C 
ATOM     19  C   UNL     1      30.363 -22.321 -14.377  0.00  0.00    +0.002 C 
ATOM     20  C   UNL     1      29.229 -23.135 -14.384  0.00  0.00    +0.011 C 
ENDBRANCH   5  15
BRANCH   6  21
ATOM     21  O   UNL     1      35.952 -23.275 -15.632  0.00  0.00    -0.453 OA
BRANCH  21  22
ATOM     22  C   UNL     1      35.481 -21.966 -15.896  0.00  0.00    +0.208 C 
BRANCH  22  23
ATOM     23  C   UNL     1      34.837 -21.954 -17.281  0.00  0.00    +0.044 C 
ATOM     24  C   UNL     1      33.308 -21.892 -17.167  0.00  0.00    +0.004 C 
ATOM     25  C   UNL     1      35.370 -20.782 -18.116  0.00  0.00    +0.004 C 
ATOM     26  C   UNL     1      32.642 -21.825 -18.540  0.00  0.00    +0.000 C 
ATOM     27  C   UNL     1      34.701 -20.717 -19.487  0.00  0.00    +0.000 C 
ATOM     28  C   UNL     1      33.181 -20.665 -19.370  0.00  0.00    +0.000 C 
ENDBRANCH  22  23
ENDBRANCH  21  22
ENDBRANCH   6  21
TORSDOF 4
ENDMDL
MODEL 9
REMARK VINA RESULT:     -10.0      2.791      5.663
REMARK  Name = 4565
REMARK  4 active torsions:
REMARK  status: ('A' for Active; 'I' for Inactive)
REMARK    1  A    between atoms: N_5  and  C_15
REMARK    2  A    between atoms: C_6  and  O_21
REMARK    3  A    between atoms: O_21  and  C_22
REMARK    4  A    between atoms: C_22  and  C_23
REMARK                            x       y       z     vdW  Elec       q    Type
REMARK                         _______ _______ _______ _____ _____    ______ ____
ROOT
ATOM      1  N   UNL     1      34.368 -22.162 -16.865  0.00  0.00    -0.293 NA
ATOM      2  N   UNL     1      32.954 -20.486 -19.817  0.00  0.00    -0.266 NA
ATOM      3  N   UNL     1      35.943 -20.717 -18.042  0.00  0.00    -0.316 NA
ATOM      4  N   UNL     1      34.998 -19.616 -19.992  0.00  0.00    -0.296 N 
ATOM      5  N   UNL     1      36.576 -21.906 -16.129  0.00  0.00    -0.238 N 
ATOM      6  C   UNL     1      33.381 -21.871 -17.740  0.00  0.00    +0.288 C 
ATOM      7  C   UNL     1      33.667 -21.002 -18.773  0.00  0.00    +0.215 C 
ATOM      8  C   UNL     1      34.933 -20.447 -18.903  0.00  0.00    +0.196 C 
ATOM      9  C   UNL     1      35.572 -21.574 -17.067  0.00  0.00    +0.207 C 
ATOM     10  C   UNL     1      33.793 -19.662 -20.519  0.00  0.00    +0.164 C 
ATOM     11  H   UNL     1      32.010 -20.672 -20.028  0.00  0.00    +0.126 HD
ATOM     12  H   UNL     1      35.774 -19.100 -20.309  0.00  0.00    +0.150 HD
ATOM     13  H   UNL     1      37.440 -21.465 -16.300  0.00  0.00    +0.166 HD
ENDROOT
BRANCH   5  15
ATOM     14 CL   UNL     1      38.944 -25.565 -13.421  0.00  0.00    -0.082 Cl
ATOM     15  C   UNL     1      36.583 -22.742 -14.998  0.00  0.00    +0.059 C 
ATOM     16  C   UNL     1      37.637 -23.636 -14.793  0.00  0.00    +0.027 C 
ATOM     17  C   UNL     1      35.536 -22.683 -14.075  0.00  0.00    +0.015 C 
ATOM     18  C   UNL     1      37.643 -24.465 -13.671  0.00  0.00    +0.059 C 
ATOM     19  C   UNL     1      35.543 -23.511 -12.954  0.00  0.00    +0.002 C 
ATOM     20  C   UNL     1      36.597 -24.403 -12.751  0.00  0.00    +0.011 C 
ENDBRANCH   5  15
BRANCH   6  21
ATOM     21  O   UNL     1      32.148 -22.449 -17.564  0.00  0.00    -0.453 OA
BRANCH  21  22
ATOM     22  C   UNL     1      32.056 -23.492 -16.612  0.00  0.00    +0.208 C 
BRANCH  22  23
ATOM     23  C   UNL     1      31.413 -22.935 -15.344  0.00  0.00    +0.044 C 
ATOM     24  C   UNL     1      29.888 -23.107 -15.389  0.00  0.00    +0.004 C 
ATOM     25  C   UNL     1      32.001 -23.608 -14.097  0.00  0.00    +0.004 C 
ATOM     26  C   UNL     1      29.226 -22.606 -14.108  0.00  0.00    +0.000 C 
ATOM     27  C   UNL     1      31.335 -23.106 -12.818  0.00  0.00    +0.000 C 
ATOM     28  C   UNL     1      29.819 -23.270 -12.870  0.00  0.00    +0.000 C 
ENDBRANCH  22  23
ENDBRANCH  21  22
ENDBRANCH   6  21
TORSDOF 4
ENDMDL
