MODEL 1
REMARK VINA RESULT:     -11.3      0.000      0.000
REMARK  Name = 6852168
REMARK  5 active torsions:
REMARK  status: ('A' for Active; 'I' for Inactive)
REMARK    1  A    between atoms: N_1  and  C_5
REMARK    2  A    between atoms: N_1  and  S_19
REMARK    3  A    between atoms: N_4  and  C_9
REMARK    4  A    between atoms: C_9  and  C_14
REMARK    5  A    between atoms: S_19  and  C_23
REMARK                            x       y       z     vdW  Elec       q    Type
REMARK                         _______ _______ _______ _____ _____    ______ ____
ROOT
ATOM      1  N   UNL     1      33.803 -17.089 -22.048  0.00  0.00    -0.172 NA
ATOM      2  H   UNL     1      33.530 -16.931 -21.078  0.00  0.00    +0.149 HD
ENDROOT
BRANCH   1   5
ATOM      3  O   UNL     1      34.046 -14.450 -20.568  0.00  0.00    -0.273 OA
ATOM      4  N   UNL     1      32.755 -14.130 -22.509  0.00  0.00    -0.272 N 
ATOM      5  C   UNL     1      34.367 -15.820 -22.542  0.00  0.00    +0.153 C 
ATOM      6  C   UNL     1      33.910 -15.527 -23.966  0.00  0.00    +0.048 C 
ATOM      7  C   UNL     1      32.603 -14.774 -23.793  0.00  0.00    +0.096 C 
ATOM      8  C   UNL     1      33.744 -14.717 -21.723  0.00  0.00    +0.242 C 
BRANCH   4   9
ATOM      9  C   UNL     1      31.844 -13.095 -22.071  0.00  0.00    +0.152 C 
ATOM     10  C   UNL     1      31.668 -13.081 -20.571  0.00  0.00    +0.031 C 
BRANCH   9  14
ATOM     11  O   UNL     1      30.607  -8.237 -21.471  0.00  0.00    -0.350 OA
ATOM     12  O   UNL     1      33.371 -11.857 -23.397  0.00  0.00    -0.273 OA
ATOM     13  N   UNL     1      31.998 -10.634 -21.981  0.00  0.00    -0.273 N 
ATOM     14  C   UNL     1      32.479 -11.812 -22.546  0.00  0.00    +0.244 C 
ATOM     15  C   UNL     1      31.032 -10.551 -20.880  0.00  0.00    +0.126 C 
ATOM     16  C   UNL     1      32.555  -9.344 -22.388  0.00  0.00    +0.126 C 
ATOM     17  C   UNL     1      29.982  -9.489 -21.179  0.00  0.00    +0.164 C 
ATOM     18  C   UNL     1      31.440  -8.337 -22.629  0.00  0.00    +0.164 C 
ENDBRANCH   9  14
ENDBRANCH   4   9
ENDBRANCH   1   5
BRANCH   1  19
ATOM     19  S   UNL     1      34.746 -18.507 -22.067  0.00  0.00    +0.061 S 
ATOM     20  O   UNL     1      36.098 -18.188 -21.649  0.00  0.00    -0.153 OA
ATOM     21  O   UNL     1      34.515 -19.212 -23.313  0.00  0.00    -0.153 OA
BRANCH  19  23
ATOM     22 CL   UNL     1      32.268 -23.325 -15.562  0.00  0.00    -0.082 Cl
ATOM     23  C   UNL     1      33.990 -19.461 -20.786  0.00  0.00    +0.122 C 
ATOM     24  C   UNL     1      34.793 -20.116 -19.868  0.00  0.00    +0.020 C 
ATOM     25  C   UNL     1      32.612 -19.538 -20.727  0.00  0.00    +0.020 C 
ATOM     26  C   UNL     1      34.207 -20.878 -18.844  0.00  0.00    +0.001 C 
ATOM     27  C   UNL     1      32.796 -20.967 -18.767  0.00  0.00    +0.001 C 
ATOM     28  C   UNL     1      32.013 -20.290 -19.717  0.00  0.00    +0.001 C 
ATOM     29  C   UNL     1      34.990 -21.554 -17.894  0.00  0.00    +0.001 C 
ATOM     30  C   UNL     1      32.211 -21.730 -17.744  0.00  0.00    +0.011 C 
ATOM     31  C   UNL     1      34.391 -22.308 -16.884  0.00  0.00    +0.011 C 
ATOM     32  C   UNL     1      33.004 -22.395 -16.810  0.00  0.00    +0.058 C 
ENDBRANCH  19  23
ENDBRANCH   1  19
TORSDOF 5
ENDMDL
MODEL 2
REMARK VINA RESULT:     -10.9      7.161     12.069
REMARK  Name = 6852168
REMARK  5 active torsions:
REMARK  status: ('A' for Active; 'I' for Inactive)
REMARK    1  A    between atoms: N_1  and  C_5
REMARK    2  A    between atoms: N_1  and  S_19
REMARK    3  A    between atoms: N_4  and  C_9
REMARK    4  A    between atoms: C_9  and  C_14
REMARK    5  A    between atoms: S_19  and  C_23
REMARK                            x       y       z     vdW  Elec       q    Type
REMARK                         _______ _______ _______ _____ _____    ______ ____
ROOT
ATOM      1  N   UNL     1      34.316 -22.618 -16.522  0.00  0.00    -0.172 NA
ATOM      2  H   UNL     1      34.780 -21.770 -16.845  0.00  0.00    +0.149 HD
ENDROOT
BRANCH   1   5
ATOM      3  O   UNL     1      36.656 -23.314 -14.719  0.00  0.00    -0.273 OA
ATOM      4  N   UNL     1      34.841 -24.720 -14.204  0.00  0.00    -0.272 N 
ATOM      5  C   UNL     1      34.365 -22.595 -15.050  0.00  0.00    +0.153 C 
ATOM      6  C   UNL     1      33.101 -23.195 -14.443  0.00  0.00    +0.048 C 
ATOM      7  C   UNL     1      33.403 -24.679 -14.339  0.00  0.00    +0.096 C 
ATOM      8  C   UNL     1      35.459 -23.547 -14.635  0.00  0.00    +0.242 C 
BRANCH   4   9
ATOM      9  C   UNL     1      35.528 -25.931 -13.812  0.00  0.00    +0.152 C 
ATOM     10  C   UNL     1      35.922 -26.779 -14.999  0.00  0.00    +0.031 C 
BRANCH   9  14
ATOM     11  O   UNL     1      36.154 -22.735  -9.954  0.00  0.00    -0.350 OA
ATOM     12  O   UNL     1      37.870 -25.676 -13.539  0.00  0.00    -0.273 OA
ATOM     13  N   UNL     1      36.526 -24.747 -11.890  0.00  0.00    -0.273 N 
ATOM     14  C   UNL     1      36.751 -25.445 -13.074  0.00  0.00    +0.244 C 
ATOM     15  C   UNL     1      35.221 -24.565 -11.245  0.00  0.00    +0.126 C 
ATOM     16  C   UNL     1      37.656 -24.237 -11.114  0.00  0.00    +0.126 C 
ATOM     17  C   UNL     1      35.057 -23.122 -10.786  0.00  0.00    +0.164 C 
ATOM     18  C   UNL     1      37.390 -22.806 -10.667  0.00  0.00    +0.164 C 
ENDBRANCH   9  14
ENDBRANCH   4   9
ENDBRANCH   1   5
BRANCH   1  19
ATOM     19  S   UNL     1      32.816 -22.693 -17.326  0.00  0.00    +0.061 S 
ATOM     20  O   UNL     1      31.764 -22.285 -16.415  0.00  0.00    -0.153 OA
ATOM     21  O   UNL     1      32.719 -23.958 -18.031  0.00  0.00    -0.153 OA
BRANCH  19  23
ATOM     22 CL   UNL     1      34.891 -16.729 -22.964  0.00  0.00    -0.082 Cl
ATOM     23  C   UNL     1      32.998 -21.432 -18.550  0.00  0.00    +0.122 C 
ATOM     24  C   UNL     1      34.265 -20.964 -18.855  0.00  0.00    +0.020 C 
ATOM     25  C   UNL     1      31.873 -20.936 -19.179  0.00  0.00    +0.020 C 
ATOM     26  C   UNL     1      34.426 -19.962 -19.826  0.00  0.00    +0.001 C 
ATOM     27  C   UNL     1      33.284 -19.443 -20.481  0.00  0.00    +0.001 C 
ATOM     28  C   UNL     1      32.014 -19.942 -20.146  0.00  0.00    +0.001 C 
ATOM     29  C   UNL     1      35.696 -19.465 -20.161  0.00  0.00    +0.001 C 
ATOM     30  C   UNL     1      33.445 -18.441 -21.451  0.00  0.00    +0.011 C 
ATOM     31  C   UNL     1      35.837 -18.469 -21.128  0.00  0.00    +0.011 C 
ATOM     32  C   UNL     1      34.714 -17.958 -21.772  0.00  0.00    +0.058 C 
ENDBRANCH  19  23
ENDBRANCH   1  19
TORSDOF 5
ENDMDL
MODEL 3
REMARK VINA RESULT:     -10.8      2.016      3.092
REMARK  Name = 6852168
REMARK  5 active torsions:
REMARK  status: ('A' for Active; 'I' for Inactive)
REMARK    1  A    between atoms: N_1  and  C_5
REMARK    2  A    between atoms: N_1  and  S_19
REMARK    3  A    between atoms: N_4  and  C_9
REMARK    4  A    between atoms: C_9  and  C_14
REMARK    5  A    between atoms: S_19  and  C_23
REMARK                            x       y       z     vdW  Elec       q    Type
REMARK                         _______ _______ _______ _____ _____    ______ ____
ROOT
ATOM      1  N   UNL     1      33.875 -15.613 -23.187  0.00  0.00    -0.172 NA
ATOM      2  H   UNL     1      34.264 -15.104 -23.980  0.00  0.00    +0.149 HD
ENDROOT
BRANCH   1   5
ATOM      3  O   UNL     1      32.137 -13.627 -24.685  0.00  0.00    -0.273 OA
ATOM      4  N   UNL     1      33.227 -12.519 -22.918  0.00  0.00    -0.272 N 
ATOM      5  C   UNL     1      32.769 -14.795 -22.658  0.00  0.00    +0.153 C 
ATOM      6  C   UNL     1      33.125 -14.190 -21.304  0.00  0.00    +0.048 C 
ATOM      7  C   UNL     1      33.810 -12.880 -21.647  0.00  0.00    +0.096 C 
ATOM      8  C   UNL     1      32.636 -13.601 -23.569  0.00  0.00    +0.242 C 
BRANCH   4   9
ATOM      9  C   UNL     1      33.405 -11.200 -23.484  0.00  0.00    +0.152 C 
ATOM     10  C   UNL     1      33.112 -11.164 -24.965  0.00  0.00    +0.031 C 
BRANCH   9  14
ATOM     11  O   UNL     1      33.438  -6.311 -22.222  0.00  0.00    -0.350 OA
ATOM     12  O   UNL     1      31.507 -10.862 -22.103  0.00  0.00    -0.273 OA
ATOM     13  N   UNL     1      32.651  -8.958 -22.779  0.00  0.00    -0.273 N 
ATOM     14  C   UNL     1      32.432 -10.332 -22.726  0.00  0.00    +0.244 C 
ATOM     15  C   UNL     1      33.658  -8.289 -23.610  0.00  0.00    +0.126 C 
ATOM     16  C   UNL     1      31.756  -8.045 -22.068  0.00  0.00    +0.126 C 
ATOM     17  C   UNL     1      34.379  -7.217 -22.802  0.00  0.00    +0.164 C 
ATOM     18  C   UNL     1      32.559  -6.989 -21.322  0.00  0.00    +0.164 C 
ENDBRANCH   9  14
ENDBRANCH   4   9
ENDBRANCH   1   5
BRANCH   1  19
ATOM     19  S   UNL     1      33.581 -17.203 -23.721  0.00  0.00    +0.061 S 
ATOM     20  O   UNL     1      34.459 -17.503 -24.835  0.00  0.00    -0.153 OA
ATOM     21  O   UNL     1      32.149 -17.404 -23.845  0.00  0.00    -0.153 OA
BRANCH  19  23
ATOM     22 CL   UNL     1      34.971 -22.104 -16.959  0.00  0.00    -0.082 Cl
ATOM     23  C   UNL     1      34.116 -18.156 -22.332  0.00  0.00    +0.122 C 
ATOM     24  C   UNL     1      33.187 -18.899 -21.624  0.00  0.00    +0.020 C 
ATOM     25  C   UNL     1      35.451 -18.140 -21.979  0.00  0.00    +0.020 C 
ATOM     26  C   UNL     1      33.597 -19.661 -20.518  0.00  0.00    +0.001 C 
ATOM     27  C   UNL     1      34.961 -19.659 -20.142  0.00  0.00    +0.001 C 
ATOM     28  C   UNL     1      35.876 -18.892 -20.884  0.00  0.00    +0.001 C 
ATOM     29  C   UNL     1      32.683 -20.428 -19.777  0.00  0.00    +0.001 C 
ATOM     30  C   UNL     1      35.371 -20.420 -19.036  0.00  0.00    +0.011 C 
ATOM     31  C   UNL     1      33.107 -21.179 -18.681  0.00  0.00    +0.011 C 
ATOM     32  C   UNL     1      34.449 -21.175 -18.311  0.00  0.00    +0.058 C 
ENDBRANCH  19  23
ENDBRANCH   1  19
TORSDOF 5
ENDMDL
MODEL 4
REMARK VINA RESULT:     -10.6      2.636      3.748
REMARK  Name = 6852168
REMARK  5 active torsions:
REMARK  status: ('A' for Active; 'I' for Inactive)
REMARK    1  A    between atoms: N_1  and  C_5
REMARK    2  A    between atoms: N_1  and  S_19
REMARK    3  A    between atoms: N_4  and  C_9
REMARK    4  A    between atoms: C_9  and  C_14
REMARK    5  A    between atoms: S_19  and  C_23
REMARK                            x       y       z     vdW  Elec       q    Type
REMARK                         _______ _______ _______ _____ _____    ______ ____
ROOT
ATOM      1  N   UNL     1      33.386 -14.340 -23.295  0.00  0.00    -0.172 NA
ATOM      2  H   UNL     1      34.242 -13.795 -23.399  0.00  0.00    +0.149 HD
ENDROOT
BRANCH   1   5
ATOM      3  O   UNL     1      33.026 -12.184 -25.400  0.00  0.00    -0.273 OA
ATOM      4  N   UNL     1      33.002 -11.191 -23.267  0.00  0.00    -0.272 N 
ATOM      5  C   UNL     1      32.263 -13.399 -23.447  0.00  0.00    +0.153 C 
ATOM      6  C   UNL     1      31.832 -12.828 -22.101  0.00  0.00    +0.048 C 
ATOM      7  C   UNL     1      32.711 -11.605 -21.914  0.00  0.00    +0.096 C 
ATOM      8  C   UNL     1      32.793 -12.205 -24.200  0.00  0.00    +0.242 C 
BRANCH   4   9
ATOM      9  C   UNL     1      33.599  -9.905 -23.551  0.00  0.00    +0.152 C 
ATOM     10  C   UNL     1      34.628  -9.979 -24.655  0.00  0.00    +0.031 C 
BRANCH   9  14
ATOM     11  O   UNL     1      30.626  -6.728 -20.990  0.00  0.00    -0.350 OA
ATOM     12  O   UNL     1      31.927  -9.193 -25.075  0.00  0.00    -0.273 OA
ATOM     13  N   UNL     1      32.006  -8.093 -23.032  0.00  0.00    -0.273 N 
ATOM     14  C   UNL     1      32.438  -9.035 -23.962  0.00  0.00    +0.244 C 
ATOM     15  C   UNL     1      32.667  -7.792 -21.757  0.00  0.00    +0.126 C 
ATOM     16  C   UNL     1      30.882  -7.212 -23.348  0.00  0.00    +0.126 C 
ATOM     17  C   UNL     1      31.634  -7.680 -20.642  0.00  0.00    +0.164 C 
ATOM     18  C   UNL     1      29.924  -7.130 -22.168  0.00  0.00    +0.164 C 
ENDBRANCH   9  14
ENDBRANCH   4   9
ENDBRANCH   1   5
BRANCH   1  19
ATOM     19  S   UNL     1      33.527 -15.679 -24.339  0.00  0.00    +0.061 S 
ATOM     20  O   UNL     1      34.746 -15.554 -25.114  0.00  0.00    -0.153 OA
ATOM     21  O   UNL     1      32.257 -15.894 -25.006  0.00  0.00    -0.153 OA
BRANCH  19  23
ATOM     22 CL   UNL     1      35.497 -21.402 -18.420  0.00  0.00    -0.082 Cl
ATOM     23  C   UNL     1      33.741 -17.009 -23.195  0.00  0.00    +0.122 C 
ATOM     24  C   UNL     1      34.765 -16.943 -22.266  0.00  0.00    +0.020 C 
ATOM     25  C   UNL     1      32.884 -18.090 -23.251  0.00  0.00    +0.020 C 
ATOM     26  C   UNL     1      34.949 -17.992 -21.351  0.00  0.00    +0.001 C 
ATOM     27  C   UNL     1      34.079 -19.107 -21.392  0.00  0.00    +0.001 C 
ATOM     28  C   UNL     1      33.050 -19.140 -22.350  0.00  0.00    +0.001 C 
ATOM     29  C   UNL     1      35.976 -17.958 -20.394  0.00  0.00    +0.001 C 
ATOM     30  C   UNL     1      34.262 -20.156 -20.478  0.00  0.00    +0.011 C 
ATOM     31  C   UNL     1      36.144 -19.009 -19.492  0.00  0.00    +0.011 C 
ATOM     32  C   UNL     1      35.288 -20.106 -19.534  0.00  0.00    +0.058 C 
ENDBRANCH  19  23
ENDBRANCH   1  19
TORSDOF 5
ENDMDL
MODEL 5
REMARK VINA RESULT:     -10.5      5.644      8.011
REMARK  Name = 6852168
REMARK  5 active torsions:
REMARK  status: ('A' for Active; 'I' for Inactive)
REMARK    1  A    between atoms: N_1  and  C_5
REMARK    2  A    between atoms: N_1  and  S_19
REMARK    3  A    between atoms: N_4  and  C_9
REMARK    4  A    between atoms: C_9  and  C_14
REMARK    5  A    between atoms: S_19  and  C_23
REMARK                            x       y       z     vdW  Elec       q    Type
REMARK                         _______ _______ _______ _____ _____    ______ ____
ROOT
ATOM      1  N   UNL     1      31.208  -9.307 -20.745  0.00  0.00    -0.172 NA
ATOM      2  H   UNL     1      30.846  -9.489 -21.681  0.00  0.00    +0.149 HD
ENDROOT
BRANCH   1   5
ATOM      3  O   UNL     1      29.453  -7.398 -22.322  0.00  0.00    -0.273 OA
ATOM      4  N   UNL     1      31.609  -6.475 -22.118  0.00  0.00    -0.272 N 
ATOM      5  C   UNL     1      30.874  -7.908 -20.426  0.00  0.00    +0.153 C 
ATOM      6  C   UNL     1      32.101  -7.140 -19.945  0.00  0.00    +0.048 C 
ATOM      7  C   UNL     1      32.731  -6.605 -21.218  0.00  0.00    +0.096 C 
ATOM      8  C   UNL     1      30.510  -7.238 -21.727  0.00  0.00    +0.242 C 
BRANCH   4   9
ATOM      9  C   UNL     1      31.720  -5.748 -23.364  0.00  0.00    +0.152 C 
ATOM     10  C   UNL     1      31.651  -4.252 -23.165  0.00  0.00    +0.031 C 
BRANCH   9  14
ATOM     11  O   UNL     1      33.659 -10.202 -24.739  0.00  0.00    -0.350 OA
ATOM     12  O   UNL     1      33.995  -5.341 -23.895  0.00  0.00    -0.273 OA
ATOM     13  N   UNL     1      33.168  -7.447 -24.416  0.00  0.00    -0.273 N 
ATOM     14  C   UNL     1      33.064  -6.151 -23.915  0.00  0.00    +0.244 C 
ATOM     15  C   UNL     1      32.055  -8.390 -24.572  0.00  0.00    +0.126 C 
ATOM     16  C   UNL     1      34.438  -7.921 -24.966  0.00  0.00    +0.126 C 
ATOM     17  C   UNL     1      32.465  -9.773 -24.082  0.00  0.00    +0.164 C 
ATOM     18  C   UNL     1      34.748  -9.320 -24.453  0.00  0.00    +0.164 C 
ENDBRANCH   9  14
ENDBRANCH   4   9
ENDBRANCH   1   5
BRANCH   1  19
ATOM     19  S   UNL     1      30.647 -10.568 -19.748  0.00  0.00    +0.061 S 
ATOM     20  O   UNL     1      29.225 -10.754 -19.967  0.00  0.00    -0.153 OA
ATOM     21  O   UNL     1      31.157 -10.372 -18.404  0.00  0.00    -0.153 OA
BRANCH  19  23
ATOM     22 CL   UNL     1      34.371 -16.819 -24.074  0.00  0.00    -0.082 Cl
ATOM     23  C   UNL     1      31.491 -11.966 -20.422  0.00  0.00    +0.122 C 
ATOM     24  C   UNL     1      31.539 -12.128 -21.796  0.00  0.00    +0.020 C 
ATOM     25  C   UNL     1      32.085 -12.872 -19.565  0.00  0.00    +0.020 C 
ATOM     26  C   UNL     1      32.207 -13.235 -22.347  0.00  0.00    +0.001 C 
ATOM     27  C   UNL     1      32.823 -14.172 -21.484  0.00  0.00    +0.001 C 
ATOM     28  C   UNL     1      32.753 -13.975 -20.095  0.00  0.00    +0.001 C 
ATOM     29  C   UNL     1      32.277 -13.430 -23.736  0.00  0.00    +0.001 C 
ATOM     30  C   UNL     1      33.489 -15.278 -22.035  0.00  0.00    +0.011 C 
ATOM     31  C   UNL     1      32.944 -14.535 -24.266  0.00  0.00    +0.011 C 
ATOM     32  C   UNL     1      33.548 -15.457 -23.417  0.00  0.00    +0.058 C 
ENDBRANCH  19  23
ENDBRANCH   1  19
TORSDOF 5
ENDMDL
MODEL 6
REMARK VINA RESULT:     -10.5      4.203      6.296
REMARK  Name = 6852168
REMARK  5 active torsions:
REMARK  status: ('A' for Active; 'I' for Inactive)
REMARK    1  A    between atoms: N_1  and  C_5
REMARK    2  A    between atoms: N_1  and  S_19
REMARK    3  A    between atoms: N_4  and  C_9
REMARK    4  A    between atoms: C_9  and  C_14
REMARK    5  A    between atoms: S_19  and  C_23
REMARK                            x       y       z     vdW  Elec       q    Type
REMARK                         _______ _______ _______ _____ _____    ______ ____
ROOT
ATOM      1  N   UNL     1      32.214 -11.393 -24.486  0.00  0.00    -0.172 NA
ATOM      2  H   UNL     1      31.424 -11.632 -23.887  0.00  0.00    +0.149 HD
ENDROOT
BRANCH   1   5
ATOM      3  O   UNL     1      31.860 -10.020 -21.802  0.00  0.00    -0.273 OA
ATOM      4  N   UNL     1      32.925  -8.541 -23.291  0.00  0.00    -0.272 N 
ATOM      5  C   UNL     1      33.257 -10.831 -23.609  0.00  0.00    +0.153 C 
ATOM      6  C   UNL     1      34.294 -10.051 -24.410  0.00  0.00    +0.048 C 
ATOM      7  C   UNL     1      33.729  -8.645 -24.486  0.00  0.00    +0.096 C 
ATOM      8  C   UNL     1      32.590  -9.783 -22.754  0.00  0.00    +0.242 C 
BRANCH   4   9
ATOM      9  C   UNL     1      32.414  -7.268 -22.833  0.00  0.00    +0.152 C 
ATOM     10  C   UNL     1      32.891  -6.922 -21.442  0.00  0.00    +0.031 C 
BRANCH   9  14
ATOM     11  O   UNL     1      30.905  -5.985 -27.477  0.00  0.00    -0.350 OA
ATOM     12  O   UNL     1      34.037  -5.749 -23.658  0.00  0.00    -0.273 OA
ATOM     13  N   UNL     1      32.114  -6.006 -24.933  0.00  0.00    -0.273 N 
ATOM     14  C   UNL     1      32.934  -6.272 -23.838  0.00  0.00    +0.244 C 
ATOM     15  C   UNL     1      30.748  -6.510 -25.114  0.00  0.00    +0.126 C 
ATOM     16  C   UNL     1      32.544  -5.056 -25.958  0.00  0.00    +0.126 C 
ATOM     17  C   UNL     1      30.555  -7.007 -26.541  0.00  0.00    +0.164 C 
ATOM     18  C   UNL     1      32.280  -5.618 -27.347  0.00  0.00    +0.164 C 
ENDBRANCH   9  14
ENDBRANCH   4   9
ENDBRANCH   1   5
BRANCH   1  19
ATOM     19  S   UNL     1      32.545 -12.768 -25.434  0.00  0.00    +0.061 S 
ATOM     20  O   UNL     1      33.685 -12.497 -26.288  0.00  0.00    -0.153 OA
ATOM     21  O   UNL     1      31.305 -13.258 -26.007  0.00  0.00    -0.153 OA
BRANCH  19  23
ATOM     22 CL   UNL     1      34.740 -19.233 -20.429  0.00  0.00    -0.082 Cl
ATOM     23  C   UNL     1      33.046 -13.940 -24.210  0.00  0.00    +0.122 C 
ATOM     24  C   UNL     1      33.060 -15.286 -24.530  0.00  0.00    +0.020 C 
ATOM     25  C   UNL     1      33.412 -13.489 -22.957  0.00  0.00    +0.020 C 
ATOM     26  C   UNL     1      33.456 -16.230 -23.567  0.00  0.00    +0.001 C 
ATOM     27  C   UNL     1      33.835 -15.787 -22.278  0.00  0.00    +0.001 C 
ATOM     28  C   UNL     1      33.808 -14.412 -21.989  0.00  0.00    +0.001 C 
ATOM     29  C   UNL     1      33.484 -17.604 -23.857  0.00  0.00    +0.001 C 
ATOM     30  C   UNL     1      34.230 -16.730 -21.316  0.00  0.00    +0.011 C 
ATOM     31  C   UNL     1      33.879 -18.528 -22.889  0.00  0.00    +0.011 C 
ATOM     32  C   UNL     1      34.252 -18.091 -21.621  0.00  0.00    +0.058 C 
ENDBRANCH  19  23
ENDBRANCH   1  19
TORSDOF 5
ENDMDL
MODEL 7
REMARK VINA RESULT:     -10.4      5.230      7.814
REMARK  Name = 6852168
REMARK  5 active torsions:
REMARK  status: ('A' for Active; 'I' for Inactive)
REMARK    1  A    between atoms: N_1  and  C_5
REMARK    2  A    between atoms: N_1  and  S_19
REMARK    3  A    between atoms: N_4  and  C_9
REMARK    4  A    between atoms: C_9  and  C_14
REMARK    5  A    between atoms: S_19  and  C_23
REMARK                            x       y       z     vdW  Elec       q    Type
REMARK                         _______ _______ _______ _____ _____    ______ ____
ROOT
ATOM      1  N   UNL     1      31.464  -9.215 -20.478  0.00  0.00    -0.172 NA
ATOM      2  H   UNL     1      32.194  -9.549 -21.108  0.00  0.00    +0.149 HD
ENDROOT
BRANCH   1   5
ATOM      3  O   UNL     1      31.683  -8.482 -23.415  0.00  0.00    -0.273 OA
ATOM      4  N   UNL     1      32.110  -6.572 -22.109  0.00  0.00    -0.272 N 
ATOM      5  C   UNL     1      30.693  -8.202 -21.220  0.00  0.00    +0.153 C 
ATOM      6  C   UNL     1      30.551  -6.914 -20.417  0.00  0.00    +0.048 C 
ATOM      7  C   UNL     1      31.786  -6.109 -20.779  0.00  0.00    +0.096 C 
ATOM      8  C   UNL     1      31.530  -7.803 -22.410  0.00  0.00    +0.242 C 
BRANCH   4   9
ATOM      9  C   UNL     1      33.068  -5.875 -22.938  0.00  0.00    +0.152 C 
ATOM     10  C   UNL     1      34.309  -6.696 -23.199  0.00  0.00    +0.031 C 
BRANCH   9  14
ATOM     11  O   UNL     1      29.005  -3.082 -24.029  0.00  0.00    -0.350 OA
ATOM     12  O   UNL     1      32.573  -6.294 -25.219  0.00  0.00    -0.273 OA
ATOM     13  N   UNL     1      31.386  -4.580 -24.197  0.00  0.00    -0.273 N 
ATOM     14  C   UNL     1      32.326  -5.607 -24.224  0.00  0.00    +0.244 C 
ATOM     15  C   UNL     1      31.159  -3.664 -23.074  0.00  0.00    +0.126 C 
ATOM     16  C   UNL     1      30.618  -4.257 -25.400  0.00  0.00    +0.126 C 
ATOM     17  C   UNL     1      29.665  -3.492 -22.828  0.00  0.00    +0.164 C 
ATOM     18  C   UNL     1      29.148  -4.067 -25.055  0.00  0.00    +0.164 C 
ENDBRANCH   9  14
ENDBRANCH   4   9
ENDBRANCH   1   5
BRANCH   1  19
ATOM     19  S   UNL     1      30.684 -10.596 -19.856  0.00  0.00    +0.061 S 
ATOM     20  O   UNL     1      29.315 -10.626 -20.332  0.00  0.00    -0.153 OA
ATOM     21  O   UNL     1      30.965 -10.699 -18.436  0.00  0.00    -0.153 OA
BRANCH  19  23
ATOM     22 CL   UNL     1      35.037 -17.336 -22.554  0.00  0.00    -0.082 Cl
ATOM     23  C   UNL     1      31.568 -11.901 -20.653  0.00  0.00    +0.122 C 
ATOM     24  C   UNL     1      32.065 -12.945 -19.891  0.00  0.00    +0.020 C 
ATOM     25  C   UNL     1      31.749 -11.855 -22.021  0.00  0.00    +0.020 C 
ATOM     26  C   UNL     1      32.770 -13.990 -20.510  0.00  0.00    +0.001 C 
ATOM     27  C   UNL     1      32.964 -13.960 -21.911  0.00  0.00    +0.001 C 
ATOM     28  C   UNL     1      32.446 -12.885 -22.653  0.00  0.00    +0.001 C 
ATOM     29  C   UNL     1      33.287 -15.065 -19.768  0.00  0.00    +0.001 C 
ATOM     30  C   UNL     1      33.669 -15.005 -22.530  0.00  0.00    +0.011 C 
ATOM     31  C   UNL     1      33.985 -16.095 -20.399  0.00  0.00    +0.011 C 
ATOM     32  C   UNL     1      34.176 -16.064 -21.778  0.00  0.00    +0.058 C 
ENDBRANCH  19  23
ENDBRANCH   1  19
TORSDOF 5
ENDMDL
MODEL 8
REMARK VINA RESULT:     -10.4      7.304     12.182
REMARK  Name = 6852168
REMARK  5 active torsions:
REMARK  status: ('A' for Active; 'I' for Inactive)
REMARK    1  A    between atoms: N_1  and  C_5
REMARK    2  A    between atoms: N_1  and  S_19
REMARK    3  A    between atoms: N_4  and  C_9
REMARK    4  A    between atoms: C_9  and  C_14
REMARK    5  A    between atoms: S_19  and  C_23
REMARK                            x       y       z     vdW  Elec       q    Type
REMARK                         _______ _______ _______ _____ _____    ______ ____
ROOT
ATOM      1  N   UNL     1      33.848 -22.931 -16.361  0.00  0.00    -0.172 NA
ATOM      2  H   UNL     1      34.619 -22.482 -16.854  0.00  0.00    +0.149 HD
ENDROOT
BRANCH   1   5
ATOM      3  O   UNL     1      36.009 -22.029 -14.430  0.00  0.00    -0.273 OA
ATOM      4  N   UNL     1      34.526 -23.471 -13.309  0.00  0.00    -0.272 N 
ATOM      5  C   UNL     1      33.683 -22.211 -15.085  0.00  0.00    +0.153 C 
ATOM      6  C   UNL     1      32.526 -22.780 -14.273  0.00  0.00    +0.048 C 
ATOM      7  C   UNL     1      33.153 -23.895 -13.457  0.00  0.00    +0.096 C 
ATOM      8  C   UNL     1      34.902 -22.516 -14.251  0.00  0.00    +0.242 C 
BRANCH   4   9
ATOM      9  C   UNL     1      35.419 -24.116 -12.371  0.00  0.00    +0.152 C 
ATOM     10  C   UNL     1      34.692 -24.660 -11.164  0.00  0.00    +0.031 C 
BRANCH   9  14
ATOM     11  O   UNL     1      40.186 -25.090 -13.721  0.00  0.00    -0.350 OA
ATOM     12  O   UNL     1      35.327 -26.010 -13.794  0.00  0.00    -0.273 OA
ATOM     13  N   UNL     1      37.440 -25.312 -13.132  0.00  0.00    -0.273 N 
ATOM     14  C   UNL     1      36.050 -25.234 -13.163  0.00  0.00    +0.244 C 
ATOM     15  C   UNL     1      38.319 -24.488 -12.294  0.00  0.00    +0.126 C 
ATOM     16  C   UNL     1      38.133 -26.363 -13.876  0.00  0.00    +0.126 C 
ATOM     17  C   UNL     1      39.507 -23.992 -13.108  0.00  0.00    +0.164 C 
ATOM     18  C   UNL     1      39.324 -25.785 -14.626  0.00  0.00    +0.164 C 
ENDBRANCH   9  14
ENDBRANCH   4   9
ENDBRANCH   1   5
BRANCH   1  19
ATOM     19  S   UNL     1      32.552 -23.028 -17.461  0.00  0.00    +0.061 S 
ATOM     20  O   UNL     1      31.310 -22.759 -16.761  0.00  0.00    -0.153 OA
ATOM     21  O   UNL     1      32.694 -24.232 -18.256  0.00  0.00    -0.153 OA
BRANCH  19  23
ATOM     22 CL   UNL     1      35.319 -16.688 -22.341  0.00  0.00    -0.082 Cl
ATOM     23  C   UNL     1      32.882 -21.661 -18.530  0.00  0.00    +0.122 C 
ATOM     24  C   UNL     1      34.194 -21.277 -18.750  0.00  0.00    +0.020 C 
ATOM     25  C   UNL     1      31.825 -21.000 -19.126  0.00  0.00    +0.020 C 
ATOM     26  C   UNL     1      34.473 -20.192 -19.598  0.00  0.00    +0.001 C 
ATOM     27  C   UNL     1      33.402 -19.504 -20.218  0.00  0.00    +0.001 C 
ATOM     28  C   UNL     1      32.084 -19.922 -19.971  0.00  0.00    +0.001 C 
ATOM     29  C   UNL     1      35.791 -19.776 -19.845  0.00  0.00    +0.001 C 
ATOM     30  C   UNL     1      33.681 -18.420 -21.065  0.00  0.00    +0.011 C 
ATOM     31  C   UNL     1      36.050 -18.696 -20.691  0.00  0.00    +0.011 C 
ATOM     32  C   UNL     1      34.997 -18.019 -21.299  0.00  0.00    +0.058 C 
ENDBRANCH  19  23
ENDBRANCH   1  19
TORSDOF 5
ENDMDL
MODEL 9
REMARK VINA RESULT:     -10.2      3.782      6.488
REMARK  Name = 6852168
REMARK  5 active torsions:
REMARK  status: ('A' for Active; 'I' for Inactive)
REMARK    1  A    between atoms: N_1  and  C_5
REMARK    2  A    between atoms: N_1  and  S_19
REMARK    3  A    between atoms: N_4  and  C_9
REMARK    4  A    between atoms: C_9  and  C_14
REMARK    5  A    between atoms: S_19  and  C_23
REMARK                            x       y       z     vdW  Elec       q    Type
REMARK                         _______ _______ _______ _____ _____    ______ ____
ROOT
ATOM      1  N   UNL     1      32.969 -21.245 -18.012  0.00  0.00    -0.172 NA
ATOM      2  H   UNL     1      33.913 -21.074 -17.667  0.00  0.00    +0.149 HD
ENDROOT
BRANCH   1   5
ATOM      3  O   UNL     1      35.428 -20.859 -19.749  0.00  0.00    -0.273 OA
ATOM      4  N   UNL     1      33.830 -19.220 -20.298  0.00  0.00    -0.272 N 
ATOM      5  C   UNL     1      33.054 -21.267 -19.484  0.00  0.00    +0.153 C 
ATOM      6  C   UNL     1      31.898 -20.501 -20.117  0.00  0.00    +0.048 C 
ATOM      7  C   UNL     1      32.397 -19.070 -20.200  0.00  0.00    +0.096 C 
ATOM      8  C   UNL     1      34.275 -20.467 -19.862  0.00  0.00    +0.242 C 
BRANCH   4   9
ATOM      9  C   UNL     1      34.683 -18.110 -20.662  0.00  0.00    +0.152 C 
ATOM     10  C   UNL     1      36.139 -18.379 -20.361  0.00  0.00    +0.031 C 
BRANCH   9  14
ATOM     11  O   UNL     1      32.974 -14.270 -23.461  0.00  0.00    -0.350 OA
ATOM     12  O   UNL     1      34.519 -18.932 -22.880  0.00  0.00    -0.273 OA
ATOM     13  N   UNL     1      34.211 -16.649 -22.594  0.00  0.00    -0.273 N 
ATOM     14  C   UNL     1      34.467 -17.942 -22.145  0.00  0.00    +0.244 C 
ATOM     15  C   UNL     1      34.268 -15.436 -21.771  0.00  0.00    +0.126 C 
ATOM     16  C   UNL     1      33.986 -16.398 -24.018  0.00  0.00    +0.126 C 
ATOM     17  C   UNL     1      33.065 -14.546 -22.061  0.00  0.00    +0.164 C 
ATOM     18  C   UNL     1      32.792 -15.473 -24.211  0.00  0.00    +0.164 C 
ENDBRANCH   9  14
ENDBRANCH   4   9
ENDBRANCH   1   5
BRANCH   1  19
ATOM     19  S   UNL     1      32.376 -22.601 -17.171  0.00  0.00    +0.061 S 
ATOM     20  O   UNL     1      32.534 -23.783 -17.997  0.00  0.00    -0.153 OA
ATOM     21  O   UNL     1      31.081 -22.277 -16.602  0.00  0.00    -0.153 OA
BRANCH  19  23
ATOM     22 CL   UNL     1      36.907 -23.668 -10.100  0.00  0.00    -0.082 Cl
ATOM     23  C   UNL     1      33.516 -22.720 -15.826  0.00  0.00    +0.122 C 
ATOM     24  C   UNL     1      33.090 -23.264 -14.626  0.00  0.00    +0.020 C 
ATOM     25  C   UNL     1      34.809 -22.265 -15.996  0.00  0.00    +0.020 C 
ATOM     26  C   UNL     1      33.985 -23.365 -13.547  0.00  0.00    +0.001 C 
ATOM     27  C   UNL     1      35.314 -22.906 -13.704  0.00  0.00    +0.001 C 
ATOM     28  C   UNL     1      35.710 -22.358 -14.936  0.00  0.00    +0.001 C 
ATOM     29  C   UNL     1      33.588 -23.913 -12.317  0.00  0.00    +0.001 C 
ATOM     30  C   UNL     1      36.207 -23.006 -12.626  0.00  0.00    +0.011 C 
ATOM     31  C   UNL     1      34.490 -24.006 -11.255  0.00  0.00    +0.011 C 
ATOM     32  C   UNL     1      35.797 -23.553 -11.410  0.00  0.00    +0.058 C 
ENDBRANCH  19  23
ENDBRANCH   1  19
TORSDOF 5
ENDMDL
