MODEL 1
REMARK VINA RESULT:     -12.2      0.000      0.000
REMARK  Name = 5567
REMARK  8 active torsions:
REMARK  status: ('A' for Active; 'I' for Inactive)
REMARK    1  A    between atoms: N_1  and  C_20
REMARK    2  A    between atoms: C_2  and  C_8
REMARK    3  A    between atoms: C_2  and  O_18
REMARK    4  A    between atoms: C_11  and  C_17
REMARK    5  A    between atoms: C_20  and  C_21
REMARK    6  A    between atoms: C_21  and  C_22
REMARK    7  A    between atoms: C_22  and  C_24
REMARK    8  A    between atoms: C_24  and  C_26
REMARK                            x       y       z     vdW  Elec       q    Type
REMARK                         _______ _______ _______ _____ _____    ______ ____
ROOT
ATOM      1  N   UNL     1      34.374 -19.957 -19.517  0.00  0.00    +0.387 N 
ATOM      2  C   UNL     1      33.058 -22.078 -17.906  0.00  0.00    +0.103 C 
ATOM      3  C   UNL     1      32.294 -20.936 -18.612  0.00  0.00    +0.008 C 
ATOM      4  C   UNL     1      34.524 -21.633 -17.694  0.00  0.00    +0.008 C 
ATOM      5  C   UNL     1      33.019 -20.407 -19.856  0.00  0.00    -0.075 C 
ATOM      6  C   UNL     1      35.170 -21.053 -18.959  0.00  0.00    -0.075 C 
ATOM      7  H   UNL     1      34.294 -19.230 -18.806  0.00  0.00    -0.080 HD
ENDROOT
BRANCH   2   8
ATOM      8  C   UNL     1      32.443 -22.546 -16.586  0.00  0.00    +0.002 C 
ATOM      9  C   UNL     1      31.065 -22.466 -16.393  0.00  0.00    +0.002 C 
ATOM     10  C   UNL     1      33.262 -23.054 -15.579  0.00  0.00    -0.002 C 
ATOM     11  C   UNL     1      30.503 -22.894 -15.190  0.00  0.00    +0.071 C 
ATOM     12  C   UNL     1      32.701 -23.483 -14.376  0.00  0.00    -0.000 C 
ATOM     13  C   UNL     1      31.322 -23.402 -14.181  0.00  0.00    +0.004 C 
BRANCH  11  17
ATOM     14  F   UNL     1      28.366 -22.201 -16.012  0.00  0.00    -0.166 F 
ATOM     15  F   UNL     1      28.425 -24.023 -14.835  0.00  0.00    -0.166 F 
ATOM     16  F   UNL     1      28.698 -22.096 -13.865  0.00  0.00    -0.166 F 
ATOM     17  C   UNL     1      29.029 -22.807 -14.981  0.00  0.00    +0.419 C 
ENDBRANCH  11  17
ENDBRANCH   2   8
BRANCH   2  18
ATOM     18  O   UNL     1      33.028 -23.225 -18.769  0.00  0.00    -0.383 OA
ATOM     19  H   UNL     1      33.934 -23.462 -19.022  0.00  0.00    +0.211 HD
ENDBRANCH   2  18
BRANCH   1  20
ATOM     20  C   UNL     1      35.034 -19.389 -20.693  0.00  0.00    -0.077 C 
BRANCH  20  21
ATOM     21  C   UNL     1      34.009 -18.692 -21.590  0.00  0.00    -0.015 C 
BRANCH  21  22
ATOM     22  C   UNL     1      34.660 -17.684 -22.541  0.00  0.00    +0.067 C 
BRANCH  22  24
ATOM     23  O   UNL     1      33.073 -17.737 -24.359  0.00  0.00    -0.291 OA
ATOM     24  C   UNL     1      33.681 -17.066 -23.529  0.00  0.00    +0.173 C 
BRANCH  24  26
ATOM     25  F   UNL     1      32.778 -11.560 -23.305  0.00  0.00    -0.204 F 
ATOM     26  C   UNL     1      33.439 -15.596 -23.469  0.00  0.00    +0.035 C 
ATOM     27  C   UNL     1      33.843 -14.905 -22.349  0.00  0.00    +0.005 C 
ATOM     28  C   UNL     1      32.821 -14.984 -24.536  0.00  0.00    +0.005 C 
ATOM     29  C   UNL     1      33.618 -13.529 -22.292  0.00  0.00    +0.030 C 
ATOM     30  C   UNL     1      32.595 -13.608 -24.480  0.00  0.00    +0.030 C 
ATOM     31  C   UNL     1      32.994 -12.881 -23.358  0.00  0.00    +0.140 C 
ENDBRANCH  24  26
ENDBRANCH  22  24
ENDBRANCH  21  22
ENDBRANCH  20  21
ENDBRANCH   1  20
TORSDOF 8
ENDMDL
MODEL 2
REMARK VINA RESULT:     -12.0      1.251      1.667
REMARK  Name = 5567
REMARK  8 active torsions:
REMARK  status: ('A' for Active; 'I' for Inactive)
REMARK    1  A    between atoms: N_1  and  C_20
REMARK    2  A    between atoms: C_2  and  C_8
REMARK    3  A    between atoms: C_2  and  O_18
REMARK    4  A    between atoms: C_11  and  C_17
REMARK    5  A    between atoms: C_20  and  C_21
REMARK    6  A    between atoms: C_21  and  C_22
REMARK    7  A    between atoms: C_22  and  C_24
REMARK    8  A    between atoms: C_24  and  C_26
REMARK                            x       y       z     vdW  Elec       q    Type
REMARK                         _______ _______ _______ _____ _____    ______ ____
ROOT
ATOM      1  N   UNL     1      33.831 -19.861 -19.719  0.00  0.00    +0.387 N 
ATOM      2  C   UNL     1      32.997 -22.075 -17.921  0.00  0.00    +0.103 C 
ATOM      3  C   UNL     1      32.028 -21.008 -18.479  0.00  0.00    +0.008 C 
ATOM      4  C   UNL     1      34.433 -21.504 -17.959  0.00  0.00    +0.008 C 
ATOM      5  C   UNL     1      32.482 -20.429 -19.824  0.00  0.00    -0.075 C 
ATOM      6  C   UNL     1      34.802 -20.881 -19.312  0.00  0.00    -0.075 C 
ATOM      7  H   UNL     1      33.812 -19.139 -18.999  0.00  0.00    -0.080 HD
ENDROOT
BRANCH   2   8
ATOM      8  C   UNL     1      32.658 -22.583 -16.519  0.00  0.00    +0.002 C 
ATOM      9  C   UNL     1      31.327 -22.722 -16.131  0.00  0.00    +0.002 C 
ATOM     10  C   UNL     1      33.683 -22.911 -15.633  0.00  0.00    -0.002 C 
ATOM     11  C   UNL     1      31.018 -23.187 -14.853  0.00  0.00    +0.071 C 
ATOM     12  C   UNL     1      33.374 -23.376 -14.354  0.00  0.00    -0.000 C 
ATOM     13  C   UNL     1      32.042 -23.514 -13.964  0.00  0.00    +0.004 C 
BRANCH  11  17
ATOM     14  F   UNL     1      28.971 -24.418 -14.986  0.00  0.00    -0.166 F 
ATOM     15  F   UNL     1      29.430 -23.475 -13.088  0.00  0.00    -0.166 F 
ATOM     16  F   UNL     1      28.831 -22.257 -14.786  0.00  0.00    -0.166 F 
ATOM     17  C   UNL     1      29.593 -23.333 -14.436  0.00  0.00    +0.419 C 
ENDBRANCH  11  17
ENDBRANCH   2   8
BRANCH   2  18
ATOM     18  O   UNL     1      32.919 -23.227 -18.775  0.00  0.00    -0.383 OA
ATOM     19  H   UNL     1      33.715 -23.769 -18.659  0.00  0.00    +0.211 HD
ENDBRANCH   2  18
BRANCH   1  20
ATOM     20  C   UNL     1      34.230 -19.248 -20.985  0.00  0.00    -0.077 C 
BRANCH  20  21
ATOM     21  C   UNL     1      34.676 -17.803 -20.756  0.00  0.00    -0.015 C 
BRANCH  21  22
ATOM     22  C   UNL     1      34.507 -16.938 -22.008  0.00  0.00    +0.067 C 
BRANCH  22  24
ATOM     23  O   UNL     1      33.866 -15.102 -20.578  0.00  0.00    -0.291 OA
ATOM     24  C   UNL     1      33.931 -15.558 -21.716  0.00  0.00    +0.173 C 
BRANCH  24  26
ATOM     25  F   UNL     1      32.132 -12.452 -25.993  0.00  0.00    -0.204 F 
ATOM     26  C   UNL     1      33.452 -14.729 -22.858  0.00  0.00    +0.035 C 
ATOM     27  C   UNL     1      33.057 -15.363 -24.016  0.00  0.00    +0.005 C 
ATOM     28  C   UNL     1      33.421 -13.361 -22.714  0.00  0.00    +0.005 C 
ATOM     29  C   UNL     1      32.608 -14.587 -25.084  0.00  0.00    +0.030 C 
ATOM     30  C   UNL     1      32.971 -12.585 -23.783  0.00  0.00    +0.030 C 
ATOM     31  C   UNL     1      32.564 -13.197 -24.968  0.00  0.00    +0.140 C 
ENDBRANCH  24  26
ENDBRANCH  22  24
ENDBRANCH  21  22
ENDBRANCH  20  21
ENDBRANCH   1  20
TORSDOF 8
ENDMDL
MODEL 3
REMARK VINA RESULT:     -11.6      2.141      2.763
REMARK  Name = 5567
REMARK  8 active torsions:
REMARK  status: ('A' for Active; 'I' for Inactive)
REMARK    1  A    between atoms: N_1  and  C_20
REMARK    2  A    between atoms: C_2  and  C_8
REMARK    3  A    between atoms: C_2  and  O_18
REMARK    4  A    between atoms: C_11  and  C_17
REMARK    5  A    between atoms: C_20  and  C_21
REMARK    6  A    between atoms: C_21  and  C_22
REMARK    7  A    between atoms: C_22  and  C_24
REMARK    8  A    between atoms: C_24  and  C_26
REMARK                            x       y       z     vdW  Elec       q    Type
REMARK                         _______ _______ _______ _____ _____    ______ ____
ROOT
ATOM      1  N   UNL     1      34.341 -19.921 -19.564  0.00  0.00    +0.387 N 
ATOM      2  C   UNL     1      33.086 -22.062 -17.930  0.00  0.00    +0.103 C 
ATOM      3  C   UNL     1      32.295 -20.919 -18.604  0.00  0.00    +0.008 C 
ATOM      4  C   UNL     1      34.555 -21.610 -17.758  0.00  0.00    +0.008 C 
ATOM      5  C   UNL     1      32.979 -20.377 -19.865  0.00  0.00    -0.075 C 
ATOM      6  C   UNL     1      35.160 -21.017 -19.037  0.00  0.00    -0.075 C 
ATOM      7  H   UNL     1      34.279 -19.200 -18.845  0.00  0.00    -0.080 HD
ENDROOT
BRANCH   2   8
ATOM      8  C   UNL     1      32.514 -22.543 -16.596  0.00  0.00    +0.002 C 
ATOM      9  C   UNL     1      33.370 -22.991 -15.592  0.00  0.00    +0.002 C 
ATOM     10  C   UNL     1      31.136 -22.531 -16.386  0.00  0.00    -0.002 C 
ATOM     11  C   UNL     1      32.848 -23.429 -14.374  0.00  0.00    +0.071 C 
ATOM     12  C   UNL     1      30.614 -22.969 -15.169  0.00  0.00    -0.000 C 
ATOM     13  C   UNL     1      31.470 -23.418 -14.163  0.00  0.00    +0.004 C 
BRANCH  11  17
ATOM     14  F   UNL     1      34.666 -22.970 -12.888  0.00  0.00    -0.166 F 
ATOM     15  F   UNL     1      33.115 -24.303 -12.164  0.00  0.00    -0.166 F 
ATOM     16  F   UNL     1      34.508 -24.987 -13.687  0.00  0.00    -0.166 F 
ATOM     17  C   UNL     1      33.764 -23.911 -13.300  0.00  0.00    +0.419 C 
ENDBRANCH  11  17
ENDBRANCH   2   8
BRANCH   2  18
ATOM     18  O   UNL     1      33.037 -23.202 -18.801  0.00  0.00    -0.383 OA
ATOM     19  H   UNL     1      32.147 -23.588 -18.779  0.00  0.00    +0.211 HD
ENDBRANCH   2  18
BRANCH   1  20
ATOM     20  C   UNL     1      34.962 -19.341 -20.754  0.00  0.00    -0.077 C 
BRANCH  20  21
ATOM     21  C   UNL     1      33.890 -18.778 -21.689  0.00  0.00    -0.015 C 
BRANCH  21  22
ATOM     22  C   UNL     1      34.413 -17.616 -22.539  0.00  0.00    +0.067 C 
BRANCH  22  24
ATOM     23  O   UNL     1      34.177 -15.981 -20.778  0.00  0.00    -0.291 OA
ATOM     24  C   UNL     1      34.062 -16.247 -21.972  0.00  0.00    +0.173 C 
BRANCH  24  26
ATOM     25  F   UNL     1      32.264 -12.286 -25.472  0.00  0.00    -0.204 F 
ATOM     26  C   UNL     1      33.583 -15.189 -22.907  0.00  0.00    +0.035 C 
ATOM     27  C   UNL     1      33.124 -15.564 -24.150  0.00  0.00    +0.005 C 
ATOM     28  C   UNL     1      33.615 -13.877 -22.492  0.00  0.00    +0.005 C 
ATOM     29  C   UNL     1      32.675 -14.574 -25.024  0.00  0.00    +0.030 C 
ATOM     30  C   UNL     1      33.166 -12.887 -23.367  0.00  0.00    +0.030 C 
ATOM     31  C   UNL     1      32.695 -13.236 -24.633  0.00  0.00    +0.140 C 
ENDBRANCH  24  26
ENDBRANCH  22  24
ENDBRANCH  21  22
ENDBRANCH  20  21
ENDBRANCH   1  20
TORSDOF 8
ENDMDL
MODEL 4
REMARK VINA RESULT:     -11.3      3.205     10.757
REMARK  Name = 5567
REMARK  8 active torsions:
REMARK  status: ('A' for Active; 'I' for Inactive)
REMARK    1  A    between atoms: N_1  and  C_20
REMARK    2  A    between atoms: C_2  and  C_8
REMARK    3  A    between atoms: C_2  and  O_18
REMARK    4  A    between atoms: C_11  and  C_17
REMARK    5  A    between atoms: C_20  and  C_21
REMARK    6  A    between atoms: C_21  and  C_22
REMARK    7  A    between atoms: C_22  and  C_24
REMARK    8  A    between atoms: C_24  and  C_26
REMARK                            x       y       z     vdW  Elec       q    Type
REMARK                         _______ _______ _______ _____ _____    ______ ____
ROOT
ATOM      1  N   UNL     1      33.219 -15.809 -23.081  0.00  0.00    +0.387 N 
ATOM      2  C   UNL     1      32.799 -12.976 -22.290  0.00  0.00    +0.103 C 
ATOM      3  C   UNL     1      33.366 -14.058 -21.344  0.00  0.00    +0.008 C 
ATOM      4  C   UNL     1      31.999 -13.674 -23.414  0.00  0.00    +0.008 C 
ATOM      5  C   UNL     1      34.099 -15.182 -22.087  0.00  0.00    -0.075 C 
ATOM      6  C   UNL     1      32.761 -14.831 -24.072  0.00  0.00    -0.075 C 
ATOM      7  H   UNL     1      32.400 -16.169 -22.591  0.00  0.00    -0.080 HD
ENDROOT
BRANCH   2   8
ATOM      8  C   UNL     1      31.945 -11.906 -21.608  0.00  0.00    +0.002 C 
ATOM      9  C   UNL     1      31.973 -10.593 -22.073  0.00  0.00    +0.002 C 
ATOM     10  C   UNL     1      31.138 -12.248 -20.525  0.00  0.00    -0.002 C 
ATOM     11  C   UNL     1      31.193  -9.617 -21.452  0.00  0.00    +0.071 C 
ATOM     12  C   UNL     1      30.357 -11.272 -19.903  0.00  0.00    -0.000 C 
ATOM     13  C   UNL     1      30.386  -9.957 -20.367  0.00  0.00    +0.004 C 
BRANCH  11  17
ATOM     14  F   UNL     1      31.373  -8.111 -23.302  0.00  0.00    -0.166 F 
ATOM     15  F   UNL     1      30.091  -7.505 -21.660  0.00  0.00    -0.166 F 
ATOM     16  F   UNL     1      32.251  -7.488 -21.412  0.00  0.00    -0.166 F 
ATOM     17  C   UNL     1      31.225  -8.210 -21.947  0.00  0.00    +0.419 C 
ENDBRANCH  11  17
ENDBRANCH   2   8
BRANCH   2  18
ATOM     18  O   UNL     1      33.910 -12.270 -22.864  0.00  0.00    -0.383 OA
ATOM     19  H   UNL     1      34.715 -12.470 -22.361  0.00  0.00    +0.211 HD
ENDBRANCH   2  18
BRANCH   1  20
ATOM     20  C   UNL     1      33.900 -16.925 -23.736  0.00  0.00    -0.077 C 
BRANCH  20  21
ATOM     21  C   UNL     1      33.481 -18.250 -23.096  0.00  0.00    -0.015 C 
BRANCH  21  22
ATOM     22  C   UNL     1      34.635 -18.924 -22.348  0.00  0.00    +0.067 C 
BRANCH  22  24
ATOM     23  O   UNL     1      34.970 -17.686 -20.303  0.00  0.00    -0.291 OA
ATOM     24  C   UNL     1      34.579 -18.719 -20.840  0.00  0.00    +0.173 C 
BRANCH  24  26
ATOM     25  F   UNL     1      32.441 -22.788 -17.671  0.00  0.00    -0.204 F 
ATOM     26  C   UNL     1      34.008 -19.804 -19.993  0.00  0.00    +0.035 C 
ATOM     27  C   UNL     1      32.639 -19.921 -19.901  0.00  0.00    +0.005 C 
ATOM     28  C   UNL     1      34.871 -20.652 -19.335  0.00  0.00    +0.005 C 
ATOM     29  C   UNL     1      32.105 -20.938 -19.109  0.00  0.00    +0.030 C 
ATOM     30  C   UNL     1      34.337 -21.668 -18.543  0.00  0.00    +0.030 C 
ATOM     31  C   UNL     1      32.954 -21.812 -18.430  0.00  0.00    +0.140 C 
ENDBRANCH  24  26
ENDBRANCH  22  24
ENDBRANCH  21  22
ENDBRANCH  20  21
ENDBRANCH   1  20
TORSDOF 8
ENDMDL
MODEL 5
REMARK VINA RESULT:     -11.3      3.203     11.357
REMARK  Name = 5567
REMARK  8 active torsions:
REMARK  status: ('A' for Active; 'I' for Inactive)
REMARK    1  A    between atoms: N_1  and  C_20
REMARK    2  A    between atoms: C_2  and  C_8
REMARK    3  A    between atoms: C_2  and  O_18
REMARK    4  A    between atoms: C_11  and  C_17
REMARK    5  A    between atoms: C_20  and  C_21
REMARK    6  A    between atoms: C_21  and  C_22
REMARK    7  A    between atoms: C_22  and  C_24
REMARK    8  A    between atoms: C_24  and  C_26
REMARK                            x       y       z     vdW  Elec       q    Type
REMARK                         _______ _______ _______ _____ _____    ______ ____
ROOT
ATOM      1  N   UNL     1      33.568 -15.638 -24.021  0.00  0.00    +0.387 N 
ATOM      2  C   UNL     1      32.714 -12.855 -23.426  0.00  0.00    +0.103 C 
ATOM      3  C   UNL     1      32.590 -13.514 -24.818  0.00  0.00    +0.008 C 
ATOM      4  C   UNL     1      33.804 -13.601 -22.622  0.00  0.00    +0.008 C 
ATOM      5  C   UNL     1      32.444 -15.039 -24.750  0.00  0.00    -0.075 C 
ATOM      6  C   UNL     1      33.639 -15.126 -22.648  0.00  0.00    -0.075 C 
ATOM      7  H   UNL     1      34.429 -15.375 -24.500  0.00  0.00    -0.080 HD
ENDROOT
BRANCH   2   8
ATOM      8  C   UNL     1      32.996 -11.352 -23.446  0.00  0.00    +0.002 C 
ATOM      9  C   UNL     1      32.298 -10.501 -22.591  0.00  0.00    +0.002 C 
ATOM     10  C   UNL     1      33.953 -10.837 -24.319  0.00  0.00    -0.002 C 
ATOM     11  C   UNL     1      32.557  -9.130 -22.608  0.00  0.00    +0.071 C 
ATOM     12  C   UNL     1      34.212  -9.466 -24.336  0.00  0.00    -0.000 C 
ATOM     13  C   UNL     1      33.513  -8.613 -23.481  0.00  0.00    +0.004 C 
BRANCH  11  17
ATOM     14  F   UNL     1      32.563  -7.183 -21.219  0.00  0.00    -0.166 F 
ATOM     15  F   UNL     1      30.724  -7.629 -22.280  0.00  0.00    -0.166 F 
ATOM     16  F   UNL     1      31.328  -8.860 -20.591  0.00  0.00    -0.166 F 
ATOM     17  C   UNL     1      31.809  -8.218 -21.695  0.00  0.00    +0.419 C 
ENDBRANCH  11  17
ENDBRANCH   2   8
BRANCH   2  18
ATOM     18  O   UNL     1      31.449 -12.997 -22.760  0.00  0.00    -0.383 OA
ATOM     19  H   UNL     1      30.923 -12.193 -22.891  0.00  0.00    +0.211 HD
ENDBRANCH   2  18
BRANCH   1  20
ATOM     20  C   UNL     1      33.460 -17.096 -24.020  0.00  0.00    -0.077 C 
BRANCH  20  21
ATOM     21  C   UNL     1      34.454 -17.700 -23.026  0.00  0.00    -0.015 C 
BRANCH  21  22
ATOM     22  C   UNL     1      33.836 -18.833 -22.202  0.00  0.00    +0.067 C 
BRANCH  22  24
ATOM     23  O   UNL     1      34.719 -17.775 -20.221  0.00  0.00    -0.291 OA
ATOM     24  C   UNL     1      34.173 -18.756 -20.719  0.00  0.00    +0.173 C 
BRANCH  24  26
ATOM     25  F   UNL     1      32.794 -23.060 -17.441  0.00  0.00    -0.204 F 
ATOM     26  C   UNL     1      33.805 -19.904 -19.843  0.00  0.00    +0.035 C 
ATOM     27  C   UNL     1      32.471 -20.184 -19.646  0.00  0.00    +0.005 C 
ATOM     28  C   UNL     1      34.811 -20.643 -19.265  0.00  0.00    +0.005 C 
ATOM     29  C   UNL     1      32.126 -21.260 -18.827  0.00  0.00    +0.030 C 
ATOM     30  C   UNL     1      34.467 -21.719 -18.446  0.00  0.00    +0.030 C 
ATOM     31  C   UNL     1      33.124 -22.027 -18.227  0.00  0.00    +0.140 C 
ENDBRANCH  24  26
ENDBRANCH  22  24
ENDBRANCH  21  22
ENDBRANCH  20  21
ENDBRANCH   1  20
TORSDOF 8
ENDMDL
MODEL 6
REMARK VINA RESULT:     -11.1      1.684     10.151
REMARK  Name = 5567
REMARK  8 active torsions:
REMARK  status: ('A' for Active; 'I' for Inactive)
REMARK    1  A    between atoms: N_1  and  C_20
REMARK    2  A    between atoms: C_2  and  C_8
REMARK    3  A    between atoms: C_2  and  O_18
REMARK    4  A    between atoms: C_11  and  C_17
REMARK    5  A    between atoms: C_20  and  C_21
REMARK    6  A    between atoms: C_21  and  C_22
REMARK    7  A    between atoms: C_22  and  C_24
REMARK    8  A    between atoms: C_24  and  C_26
REMARK                            x       y       z     vdW  Elec       q    Type
REMARK                         _______ _______ _______ _____ _____    ______ ____
ROOT
ATOM      1  N   UNL     1      34.949 -19.978 -19.128  0.00  0.00    +0.387 N 
ATOM      2  C   UNL     1      34.510 -18.439 -21.631  0.00  0.00    +0.103 C 
ATOM      3  C   UNL     1      35.777 -18.315 -20.756  0.00  0.00    +0.008 C 
ATOM      4  C   UNL     1      33.359 -18.989 -20.757  0.00  0.00    +0.008 C 
ATOM      5  C   UNL     1      36.090 -19.592 -19.967  0.00  0.00    -0.075 C 
ATOM      6  C   UNL     1      33.756 -20.227 -19.942  0.00  0.00    -0.075 C 
ATOM      7  H   UNL     1      34.745 -19.201 -18.499  0.00  0.00    -0.080 HD
ENDROOT
BRANCH   2   8
ATOM      8  C   UNL     1      34.082 -17.149 -22.333  0.00  0.00    +0.002 C 
ATOM      9  C   UNL     1      33.919 -15.977 -21.596  0.00  0.00    +0.002 C 
ATOM     10  C   UNL     1      33.857 -17.148 -23.708  0.00  0.00    -0.002 C 
ATOM     11  C   UNL     1      33.530 -14.800 -22.236  0.00  0.00    +0.071 C 
ATOM     12  C   UNL     1      33.468 -15.971 -24.348  0.00  0.00    -0.000 C 
ATOM     13  C   UNL     1      33.304 -14.798 -23.612  0.00  0.00    +0.004 C 
BRANCH  11  17
ATOM     14  F   UNL     1      33.933 -13.591 -20.212  0.00  0.00    -0.166 F 
ATOM     15  F   UNL     1      33.886 -12.443 -22.052  0.00  0.00    -0.166 F 
ATOM     16  F   UNL     1      32.041 -13.245 -21.227  0.00  0.00    -0.166 F 
ATOM     17  C   UNL     1      33.354 -13.546 -21.449  0.00  0.00    +0.419 C 
ENDBRANCH  11  17
ENDBRANCH   2   8
BRANCH   2  18
ATOM     18  O   UNL     1      34.795 -19.371 -22.686  0.00  0.00    -0.383 OA
ATOM     19  H   UNL     1      35.676 -19.753 -22.550  0.00  0.00    +0.211 HD
ENDBRANCH   2  18
BRANCH   1  20
ATOM     20  C   UNL     1      35.278 -21.155 -18.325  0.00  0.00    -0.077 C 
BRANCH  20  21
ATOM     21  C   UNL     1      34.099 -22.131 -18.308  0.00  0.00    -0.015 C 
BRANCH  21  22
ATOM     22  C   UNL     1      33.589 -22.401 -16.890  0.00  0.00    +0.067 C 
BRANCH  22  24
ATOM     23  O   UNL     1      31.360 -21.912 -17.679  0.00  0.00    -0.291 OA
ATOM     24  C   UNL     1      32.073 -22.330 -16.770  0.00  0.00    +0.173 C 
BRANCH  24  26
ATOM     25  F   UNL     1      29.682 -24.115 -12.050  0.00  0.00    -0.204 F 
ATOM     26  C   UNL     1      31.434 -22.808 -15.510  0.00  0.00    +0.035 C 
ATOM     27  C   UNL     1      32.239 -23.291 -14.503  0.00  0.00    +0.005 C 
ATOM     28  C   UNL     1      30.064 -22.747 -15.400  0.00  0.00    +0.005 C 
ATOM     29  C   UNL     1      31.642 -23.737 -13.324  0.00  0.00    +0.030 C 
ATOM     30  C   UNL     1      29.466 -23.193 -14.221  0.00  0.00    +0.030 C 
ATOM     31  C   UNL     1      30.255 -23.687 -13.182  0.00  0.00    +0.140 C 
ENDBRANCH  24  26
ENDBRANCH  22  24
ENDBRANCH  21  22
ENDBRANCH  20  21
ENDBRANCH   1  20
TORSDOF 8
ENDMDL
MODEL 7
REMARK VINA RESULT:     -11.0      3.371      5.806
REMARK  Name = 5567
REMARK  8 active torsions:
REMARK  status: ('A' for Active; 'I' for Inactive)
REMARK    1  A    between atoms: N_1  and  C_20
REMARK    2  A    between atoms: C_2  and  C_8
REMARK    3  A    between atoms: C_2  and  O_18
REMARK    4  A    between atoms: C_11  and  C_17
REMARK    5  A    between atoms: C_20  and  C_21
REMARK    6  A    between atoms: C_21  and  C_22
REMARK    7  A    between atoms: C_22  and  C_24
REMARK    8  A    between atoms: C_24  and  C_26
REMARK                            x       y       z     vdW  Elec       q    Type
REMARK                         _______ _______ _______ _____ _____    ______ ____
ROOT
ATOM      1  N   UNL     1      33.276 -15.897 -23.037  0.00  0.00    +0.387 N 
ATOM      2  C   UNL     1      34.771 -18.002 -21.566  0.00  0.00    +0.103 C 
ATOM      3  C   UNL     1      33.851 -18.285 -22.775  0.00  0.00    +0.008 C 
ATOM      4  C   UNL     1      34.351 -16.656 -20.932  0.00  0.00    +0.008 C 
ATOM      5  C   UNL     1      33.743 -17.098 -23.739  0.00  0.00    -0.075 C 
ATOM      6  C   UNL     1      34.197 -15.525 -21.958  0.00  0.00    -0.075 C 
ATOM      7  H   UNL     1      32.370 -16.111 -22.618  0.00  0.00    -0.080 HD
ENDROOT
BRANCH   2   8
ATOM      8  C   UNL     1      34.804 -19.106 -20.508  0.00  0.00    +0.002 C 
ATOM      9  C   UNL     1      33.618 -19.714 -20.099  0.00  0.00    +0.002 C 
ATOM     10  C   UNL     1      36.021 -19.503 -19.956  0.00  0.00    -0.002 C 
ATOM     11  C   UNL     1      33.649 -20.722 -19.135  0.00  0.00    +0.071 C 
ATOM     12  C   UNL     1      36.051 -20.511 -18.992  0.00  0.00    -0.000 C 
ATOM     13  C   UNL     1      34.865 -21.120 -18.581  0.00  0.00    +0.004 C 
BRANCH  11  17
ATOM     14  F   UNL     1      32.328 -21.616 -17.352  0.00  0.00    -0.166 F 
ATOM     15  F   UNL     1      31.265 -20.633 -18.966  0.00  0.00    -0.166 F 
ATOM     16  F   UNL     1      32.175 -22.581 -19.294  0.00  0.00    -0.166 F 
ATOM     17  C   UNL     1      32.381 -21.372 -18.695  0.00  0.00    +0.419 C 
ENDBRANCH  11  17
ENDBRANCH   2   8
BRANCH   2  18
ATOM     18  O   UNL     1      36.117 -17.900 -22.054  0.00  0.00    -0.383 OA
ATOM     19  H   UNL     1      36.121 -17.411 -22.892  0.00  0.00    +0.211 HD
ENDBRANCH   2  18
BRANCH   1  20
ATOM     20  C   UNL     1      33.108 -14.788 -23.974  0.00  0.00    -0.077 C 
BRANCH  20  21
ATOM     21  C   UNL     1      32.407 -13.615 -23.285  0.00  0.00    -0.015 C 
BRANCH  21  22
ATOM     22  C   UNL     1      33.364 -12.456 -22.994  0.00  0.00    +0.067 C 
BRANCH  22  24
ATOM     23  O   UNL     1      33.120 -11.475 -25.187  0.00  0.00    -0.291 OA
ATOM     24  C   UNL     1      33.230 -11.300 -23.976  0.00  0.00    +0.173 C 
BRANCH  24  26
ATOM     25  F   UNL     1      33.157  -6.090 -21.968  0.00  0.00    -0.204 F 
ATOM     26  C   UNL     1      33.210  -9.909 -23.441  0.00  0.00    +0.035 C 
ATOM     27  C   UNL     1      32.106  -9.488 -22.733  0.00  0.00    +0.005 C 
ATOM     28  C   UNL     1      34.296  -9.096 -23.673  0.00  0.00    +0.005 C 
ATOM     29  C   UNL     1      32.087  -8.187 -22.231  0.00  0.00    +0.030 C 
ATOM     30  C   UNL     1      34.278  -7.794 -23.171  0.00  0.00    +0.030 C 
ATOM     31  C   UNL     1      33.174  -7.340 -22.450  0.00  0.00    +0.140 C 
ENDBRANCH  24  26
ENDBRANCH  22  24
ENDBRANCH  21  22
ENDBRANCH  20  21
ENDBRANCH   1  20
TORSDOF 8
ENDMDL
MODEL 8
REMARK VINA RESULT:     -10.9      3.949     10.997
REMARK  Name = 5567
REMARK  8 active torsions:
REMARK  status: ('A' for Active; 'I' for Inactive)
REMARK    1  A    between atoms: N_1  and  C_20
REMARK    2  A    between atoms: C_2  and  C_8
REMARK    3  A    between atoms: C_2  and  O_18
REMARK    4  A    between atoms: C_11  and  C_17
REMARK    5  A    between atoms: C_20  and  C_21
REMARK    6  A    between atoms: C_21  and  C_22
REMARK    7  A    between atoms: C_22  and  C_24
REMARK    8  A    between atoms: C_24  and  C_26
REMARK                            x       y       z     vdW  Elec       q    Type
REMARK                         _______ _______ _______ _____ _____    ______ ____
ROOT
ATOM      1  N   UNL     1      33.784 -14.160 -21.969  0.00  0.00    +0.387 N 
ATOM      2  C   UNL     1      31.707 -12.252 -21.035  0.00  0.00    +0.103 C 
ATOM      3  C   UNL     1      32.449 -12.123 -22.384  0.00  0.00    +0.008 C 
ATOM      4  C   UNL     1      32.569 -13.108 -20.079  0.00  0.00    +0.008 C 
ATOM      5  C   UNL     1      32.924 -13.471 -22.939  0.00  0.00    -0.075 C 
ATOM      6  C   UNL     1      33.068 -14.412 -20.715  0.00  0.00    -0.075 C 
ATOM      7  H   UNL     1      34.576 -13.551 -21.764  0.00  0.00    -0.080 HD
ENDROOT
BRANCH   2   8
ATOM      8  C   UNL     1      31.332 -10.923 -20.376  0.00  0.00    +0.002 C 
ATOM      9  C   UNL     1      31.200  -9.774 -21.153  0.00  0.00    +0.002 C 
ATOM     10  C   UNL     1      31.120 -10.866 -19.000  0.00  0.00    -0.002 C 
ATOM     11  C   UNL     1      30.857  -8.562 -20.552  0.00  0.00    +0.071 C 
ATOM     12  C   UNL     1      30.777  -9.654 -18.399  0.00  0.00    -0.000 C 
ATOM     13  C   UNL     1      30.646  -8.503 -19.175  0.00  0.00    +0.004 C 
BRANCH  11  17
ATOM     14  F   UNL     1      30.122  -6.292 -20.724  0.00  0.00    -0.166 F 
ATOM     15  F   UNL     1      31.909  -6.834 -21.827  0.00  0.00    -0.166 F 
ATOM     16  F   UNL     1      29.965  -7.534 -22.502  0.00  0.00    -0.166 F 
ATOM     17  C   UNL     1      30.718  -7.331 -21.382  0.00  0.00    +0.419 C 
ENDBRANCH  11  17
ENDBRANCH   2   8
BRANCH   2  18
ATOM     18  O   UNL     1      30.461 -12.921 -21.282  0.00  0.00    -0.383 OA
ATOM     19  H   UNL     1      30.104 -13.258 -20.445  0.00  0.00    +0.211 HD
ENDBRANCH   2  18
BRANCH   1  20
ATOM     20  C   UNL     1      34.291 -15.411 -22.531  0.00  0.00    -0.077 C 
BRANCH  20  21
ATOM     21  C   UNL     1      34.190 -16.535 -21.497  0.00  0.00    -0.015 C 
BRANCH  21  22
ATOM     22  C   UNL     1      34.758 -17.857 -22.020  0.00  0.00    +0.067 C 
BRANCH  22  24
ATOM     23  O   UNL     1      36.617 -18.625 -20.685  0.00  0.00    -0.291 OA
ATOM     24  C   UNL     1      35.417 -18.701 -20.937  0.00  0.00    +0.173 C 
BRANCH  24  26
ATOM     25  F   UNL     1      32.235 -22.195 -17.964  0.00  0.00    -0.204 F 
ATOM     26  C   UNL     1      34.568 -19.635 -20.144  0.00  0.00    +0.035 C 
ATOM     27  C   UNL     1      35.182 -20.533 -19.300  0.00  0.00    +0.005 C 
ATOM     28  C   UNL     1      33.200 -19.563 -20.283  0.00  0.00    +0.005 C 
ATOM     29  C   UNL     1      34.387 -21.406 -18.557  0.00  0.00    +0.030 C 
ATOM     30  C   UNL     1      32.405 -20.436 -19.541  0.00  0.00    +0.030 C 
ATOM     31  C   UNL     1      32.998 -21.357 -18.677  0.00  0.00    +0.140 C 
ENDBRANCH  24  26
ENDBRANCH  22  24
ENDBRANCH  21  22
ENDBRANCH  20  21
ENDBRANCH   1  20
TORSDOF 8
ENDMDL
MODEL 9
REMARK VINA RESULT:     -10.6      4.870      6.144
REMARK  Name = 5567
REMARK  8 active torsions:
REMARK  status: ('A' for Active; 'I' for Inactive)
REMARK    1  A    between atoms: N_1  and  C_20
REMARK    2  A    between atoms: C_2  and  C_8
REMARK    3  A    between atoms: C_2  and  O_18
REMARK    4  A    between atoms: C_11  and  C_17
REMARK    5  A    between atoms: C_20  and  C_21
REMARK    6  A    between atoms: C_21  and  C_22
REMARK    7  A    between atoms: C_22  and  C_24
REMARK    8  A    between atoms: C_24  and  C_26
REMARK                            x       y       z     vdW  Elec       q    Type
REMARK                         _______ _______ _______ _____ _____    ______ ____
ROOT
ATOM      1  N   UNL     1      33.493 -22.592 -17.015  0.00  0.00    +0.387 N 
ATOM      2  C   UNL     1      34.930 -23.091 -14.463  0.00  0.00    +0.103 C 
ATOM      3  C   UNL     1      35.590 -22.471 -15.714  0.00  0.00    +0.008 C 
ATOM      4  C   UNL     1      33.683 -23.889 -14.907  0.00  0.00    +0.008 C 
ATOM      5  C   UNL     1      34.596 -21.716 -16.605  0.00  0.00    -0.075 C 
ATOM      6  C   UNL     1      32.763 -23.101 -15.849  0.00  0.00    -0.075 C 
ATOM      7  H   UNL     1      33.893 -23.390 -17.509  0.00  0.00    -0.080 HD
ENDROOT
BRANCH   2   8
ATOM      8  C   UNL     1      35.853 -23.967 -13.614  0.00  0.00    +0.002 C 
ATOM      9  C   UNL     1      37.150 -24.235 -14.047  0.00  0.00    +0.002 C 
ATOM     10  C   UNL     1      35.395 -24.493 -12.407  0.00  0.00    -0.002 C 
ATOM     11  C   UNL     1      37.993 -25.033 -13.272  0.00  0.00    +0.071 C 
ATOM     12  C   UNL     1      36.238 -25.291 -11.632  0.00  0.00    -0.000 C 
ATOM     13  C   UNL     1      37.536 -25.561 -12.065  0.00  0.00    +0.004 C 
BRANCH  11  17
ATOM     14  F   UNL     1      40.022 -26.266 -12.985  0.00  0.00    -0.166 F 
ATOM     15  F   UNL     1      39.442 -25.786 -15.019  0.00  0.00    -0.166 F 
ATOM     16  F   UNL     1      40.185 -24.221 -13.705  0.00  0.00    -0.166 F 
ATOM     17  C   UNL     1      39.381 -25.322 -13.736  0.00  0.00    +0.419 C 
ENDBRANCH  11  17
ENDBRANCH   2   8
BRANCH   2  18
ATOM     18  O   UNL     1      34.526 -22.015 -13.601  0.00  0.00    -0.383 OA
ATOM     19  H   UNL     1      35.260 -21.388 -13.502  0.00  0.00    +0.211 HD
ENDBRANCH   2  18
BRANCH   1  20
ATOM     20  C   UNL     1      32.587 -21.887 -17.921  0.00  0.00    -0.077 C 
BRANCH  20  21
ATOM     21  C   UNL     1      33.290 -21.591 -19.247  0.00  0.00    -0.015 C 
BRANCH  21  22
ATOM     22  C   UNL     1      32.975 -20.187 -19.770  0.00  0.00    +0.067 C 
BRANCH  22  24
ATOM     23  O   UNL     1      35.300 -19.549 -19.670  0.00  0.00    -0.291 OA
ATOM     24  C   UNL     1      34.210 -19.418 -20.219  0.00  0.00    +0.173 C 
BRANCH  24  26
ATOM     25  F   UNL     1      33.765 -15.948 -24.571  0.00  0.00    -0.204 F 
ATOM     26  C   UNL     1      34.090 -18.491 -21.380  0.00  0.00    +0.035 C 
ATOM     27  C   UNL     1      34.468 -17.177 -21.219  0.00  0.00    +0.005 C 
ATOM     28  C   UNL     1      33.607 -18.983 -22.572  0.00  0.00    +0.005 C 
ATOM     29  C   UNL     1      34.357 -16.310 -22.307  0.00  0.00    +0.030 C 
ATOM     30  C   UNL     1      33.496 -18.116 -23.659  0.00  0.00    +0.030 C 
ATOM     31  C   UNL     1      33.871 -16.779 -23.527  0.00  0.00    +0.140 C 
ENDBRANCH  24  26
ENDBRANCH  22  24
ENDBRANCH  21  22
ENDBRANCH  20  21
ENDBRANCH   1  20
TORSDOF 8
ENDMDL
