MODEL 1
REMARK VINA RESULT:     -13.1      0.000      0.000
REMARK  Name = 23656870
REMARK  4 active torsions:
REMARK  status: ('A' for Active; 'I' for Inactive)
REMARK    1  A    between atoms: N_2  and  C_25
REMARK    2  A    between atoms: N_3  and  C_14
REMARK    3  A    between atoms: C_10  and  C_32
REMARK    4  A    between atoms: C_16  and  N_21
REMARK                            x       y       z     vdW  Elec       q    Type
REMARK                         _______ _______ _______ _____ _____    ______ ____
ROOT
ATOM      1  N   UNL     1      31.154 -23.167 -14.419  0.00  0.00    -0.123 N 
ATOM      2  N   UNL     1      33.439 -23.555 -13.970  0.00  0.00    -0.274 N 
ATOM      3  N   UNL     1      31.919 -21.984 -18.166  0.00  0.00    -0.238 N 
ATOM      4  N   UNL     1      32.684 -22.769 -16.074  0.00  0.00    -0.295 NA
ATOM      5  N   UNL     1      30.363 -22.388 -16.493  0.00  0.00    -0.314 NA
ATOM      6  N   UNL     1      30.781 -23.545 -13.182  0.00  0.00    -0.170 NA
ATOM      7  C   UNL     1      32.470 -23.158 -14.851  0.00  0.00    +0.279 C 
ATOM      8  C   UNL     1      30.119 -22.790 -15.226  0.00  0.00    +0.219 C 
ATOM      9  C   UNL     1      31.618 -22.385 -16.886  0.00  0.00    +0.207 C 
ATOM     10  C   UNL     1      28.985 -22.932 -14.459  0.00  0.00    +0.203 C 
ATOM     11  C   UNL     1      29.453 -23.399 -13.214  0.00  0.00    +0.116 C 
ATOM     12  H   UNL     1      33.124 -23.824 -13.076  0.00  0.00    +0.156 HD
ATOM     13  H   UNL     1      31.227 -22.152 -18.845  0.00  0.00    +0.166 HD
ENDROOT
BRANCH   3  14
ATOM     14  C   UNL     1      33.083 -21.368 -18.621  0.00  0.00    +0.060 C 
ATOM     15  C   UNL     1      33.020 -20.434 -19.655  0.00  0.00    +0.030 C 
ATOM     16  C   UNL     1      34.185 -19.817 -20.109  0.00  0.00    +0.052 C 
ATOM     17  C   UNL     1      34.312 -21.685 -18.041  0.00  0.00    +0.015 C 
ATOM     18  C   UNL     1      35.414 -20.134 -19.531  0.00  0.00    +0.015 C 
ATOM     19  C   UNL     1      35.478 -21.068 -18.496  0.00  0.00    +0.003 C 
BRANCH  16  21
ATOM     20  O   UNL     1      34.444 -16.818 -20.057  0.00  0.00    -0.275 OA
ATOM     21  N   UNL     1      34.123 -18.884 -21.145  0.00  0.00    -0.284 N 
ATOM     22  C   UNL     1      34.250 -17.491 -21.064  0.00  0.00    +0.227 C 
ATOM     23  C   UNL     1      34.121 -16.837 -22.417  0.00  0.00    +0.095 C 
ATOM     24  H   UNL     1      33.971 -19.250 -22.047  0.00  0.00    +0.155 HD
ENDBRANCH  16  21
ENDBRANCH   3  14
BRANCH   2  25
ATOM     25  C   UNL     1      34.819 -23.630 -14.177  0.00  0.00    +0.051 C 
ATOM     26  C   UNL     1      35.497 -22.557 -14.755  0.00  0.00    +0.015 C 
ATOM     27  C   UNL     1      35.519 -24.778 -13.805  0.00  0.00    +0.015 C 
ATOM     28  C   UNL     1      36.874 -22.630 -14.961  0.00  0.00    +0.001 C 
ATOM     29  C   UNL     1      36.897 -24.852 -14.011  0.00  0.00    +0.001 C 
ATOM     30  C   UNL     1      37.575 -23.778 -14.589  0.00  0.00    +0.000 C 
ENDBRANCH   2  25
BRANCH  10  32
ATOM     31  N   UNL     1      26.557 -22.439 -15.183  0.00  0.00    -0.195 NA
ATOM     32  C   UNL     1      27.649 -22.661 -14.858  0.00  0.00    +0.087 C 
ENDBRANCH  10  32
TORSDOF 4
ENDMDL
MODEL 2
REMARK VINA RESULT:     -12.3      2.243      5.694
REMARK  Name = 23656870
REMARK  4 active torsions:
REMARK  status: ('A' for Active; 'I' for Inactive)
REMARK    1  A    between atoms: N_2  and  C_25
REMARK    2  A    between atoms: N_3  and  C_14
REMARK    3  A    between atoms: C_10  and  C_32
REMARK    4  A    between atoms: C_16  and  N_21
REMARK                            x       y       z     vdW  Elec       q    Type
REMARK                         _______ _______ _______ _____ _____    ______ ____
ROOT
ATOM      1  N   UNL     1      35.454 -24.736 -13.232  0.00  0.00    -0.123 N 
ATOM      2  N   UNL     1      33.110 -24.505 -13.089  0.00  0.00    -0.274 N 
ATOM      3  N   UNL     1      35.708 -22.036 -16.176  0.00  0.00    -0.238 N 
ATOM      4  N   UNL     1      34.406 -23.265 -14.637  0.00  0.00    -0.295 NA
ATOM      5  N   UNL     1      36.778 -23.524 -14.753  0.00  0.00    -0.314 NA
ATOM      6  N   UNL     1      35.488 -25.655 -12.249  0.00  0.00    -0.170 NA
ATOM      7  C   UNL     1      34.288 -24.138 -13.680  0.00  0.00    +0.279 C 
ATOM      8  C   UNL     1      36.677 -24.434 -13.758  0.00  0.00    +0.219 C 
ATOM      9  C   UNL     1      35.660 -22.967 -15.166  0.00  0.00    +0.207 C 
ATOM     10  C   UNL     1      37.577 -25.214 -13.068  0.00  0.00    +0.203 C 
ATOM     11  C   UNL     1      36.789 -25.943 -12.155  0.00  0.00    +0.116 C 
ATOM     12  H   UNL     1      33.178 -25.180 -12.375  0.00  0.00    +0.156 HD
ATOM     13  H   UNL     1      36.534 -21.504 -16.233  0.00  0.00    +0.166 HD
ENDROOT
BRANCH   3  14
ATOM     14  C   UNL     1      34.733 -21.753 -17.130  0.00  0.00    +0.060 C 
ATOM     15  C   UNL     1      35.048 -20.966 -18.238  0.00  0.00    +0.030 C 
ATOM     16  C   UNL     1      34.071 -20.684 -19.193  0.00  0.00    +0.052 C 
ATOM     17  C   UNL     1      33.441 -22.258 -16.978  0.00  0.00    +0.015 C 
ATOM     18  C   UNL     1      32.780 -21.188 -19.041  0.00  0.00    +0.015 C 
ATOM     19  C   UNL     1      32.464 -21.976 -17.933  0.00  0.00    +0.003 C 
BRANCH  16  21
ATOM     20  O   UNL     1      36.334 -18.747 -19.635  0.00  0.00    -0.275 OA
ATOM     21  N   UNL     1      34.385 -19.895 -20.300  0.00  0.00    -0.284 N 
ATOM     22  C   UNL     1      35.457 -19.004 -20.452  0.00  0.00    +0.227 C 
ATOM     23  C   UNL     1      35.444 -18.341 -21.807  0.00  0.00    +0.095 C 
ATOM     24  H   UNL     1      33.778 -19.973 -21.072  0.00  0.00    +0.155 HD
ENDBRANCH  16  21
ENDBRANCH   3  14
BRANCH   2  25
ATOM     25  C   UNL     1      31.821 -24.043 -13.368  0.00  0.00    +0.051 C 
ATOM     26  C   UNL     1      31.643 -22.825 -14.024  0.00  0.00    +0.015 C 
ATOM     27  C   UNL     1      30.711 -24.800 -12.992  0.00  0.00    +0.015 C 
ATOM     28  C   UNL     1      30.357 -22.363 -14.303  0.00  0.00    +0.001 C 
ATOM     29  C   UNL     1      29.424 -24.339 -13.273  0.00  0.00    +0.001 C 
ATOM     30  C   UNL     1      29.247 -23.120 -13.928  0.00  0.00    +0.000 C 
ENDBRANCH   2  25
BRANCH  10  32
ATOM     31  N   UNL     1      40.135 -25.291 -13.409  0.00  0.00    -0.195 NA
ATOM     32  C   UNL     1      38.984 -25.256 -13.256  0.00  0.00    +0.087 C 
ENDBRANCH  10  32
TORSDOF 4
ENDMDL
