MODEL 1
REMARK VINA RESULT:     -11.7      0.000      0.000
REMARK  Name = 9799284
REMARK  5 active torsions:
REMARK  status: ('A' for Active; 'I' for Inactive)
REMARK    1  A    between atoms: N_1  and  C_19
REMARK    2  A    between atoms: C_2  and  C_8
REMARK    3  A    between atoms: C_8  and  N_10
REMARK    4  A    between atoms: C_19  and  C_21
REMARK    5  A    between atoms: C_21  and  C_23
REMARK                            x       y       z     vdW  Elec       q    Type
REMARK                         _______ _______ _______ _____ _____    ______ ____
ROOT
ATOM      1  N   UNL     1      33.328 -13.552 -22.704  0.00  0.00    +0.392 N 
ATOM      2  C   UNL     1      33.857 -16.427 -22.470  0.00  0.00    +0.016 C 
ATOM      3  C   UNL     1      33.814 -15.706 -23.821  0.00  0.00    -0.021 C 
ATOM      4  C   UNL     1      34.219 -15.431 -21.363  0.00  0.00    -0.021 C 
ATOM      5  C   UNL     1      32.907 -14.475 -23.767  0.00  0.00    -0.077 C 
ATOM      6  C   UNL     1      33.299 -14.209 -21.390  0.00  0.00    -0.077 C 
ATOM      7  H   UNL     1      34.291 -13.272 -22.894  0.00  0.00    -0.079 HD
ENDROOT
BRANCH   2   8
ATOM      8  C   UNL     1      34.840 -17.594 -22.500  0.00  0.00    +0.094 C 
BRANCH   8  10
ATOM      9  O   UNL     1      36.668 -18.974 -20.533  0.00  0.00    -0.270 OA
ATOM     10  N   UNL     1      34.539 -18.546 -21.474  0.00  0.00    -0.272 N 
ATOM     11  C   UNL     1      33.171 -19.012 -21.225  0.00  0.00    +0.121 C 
ATOM     12  C   UNL     1      35.463 -19.135 -20.603  0.00  0.00    +0.249 C 
ATOM     13  C   UNL     1      33.356 -19.963 -20.093  0.00  0.00    +0.002 C 
ATOM     14  C   UNL     1      34.701 -20.034 -19.731  0.00  0.00    +0.051 C 
ATOM     15  C   UNL     1      32.412 -20.718 -19.424  0.00  0.00    -0.002 C 
ATOM     16  C   UNL     1      35.156 -20.842 -18.707  0.00  0.00    +0.004 C 
ATOM     17  C   UNL     1      32.846 -21.545 -18.383  0.00  0.00    -0.000 C 
ATOM     18  C   UNL     1      34.206 -21.606 -18.027  0.00  0.00    +0.000 C 
ENDBRANCH   8  10
ENDBRANCH   2   8
BRANCH   1  19
ATOM     19  C   UNL     1      32.485 -12.358 -22.699  0.00  0.00    -0.006 C 
BRANCH  19  21
ATOM     20  O   UNL     1      33.528 -11.624 -24.748  0.00  0.00    -0.294 OA
ATOM     21  C   UNL     1      33.077 -11.328 -23.643  0.00  0.00    +0.152 C 
BRANCH  21  23
ATOM     22  F   UNL     1      33.198  -5.990 -22.010  0.00  0.00    -0.204 F 
ATOM     23  C   UNL     1      33.109  -9.900 -23.208  0.00  0.00    +0.033 C 
ATOM     24  C   UNL     1      32.058  -9.415 -22.462  0.00  0.00    +0.005 C 
ATOM     25  C   UNL     1      34.187  -9.125 -23.566  0.00  0.00    +0.005 C 
ATOM     26  C   UNL     1      32.089  -8.082 -22.054  0.00  0.00    +0.030 C 
ATOM     27  C   UNL     1      34.219  -7.793 -23.158  0.00  0.00    +0.030 C 
ATOM     28  C   UNL     1      33.169  -7.270 -22.402  0.00  0.00    +0.140 C 
ENDBRANCH  21  23
ENDBRANCH  19  21
ENDBRANCH   1  19
TORSDOF 5
ENDMDL
MODEL 2
REMARK VINA RESULT:     -11.3      4.839     11.022
REMARK  Name = 9799284
REMARK  5 active torsions:
REMARK  status: ('A' for Active; 'I' for Inactive)
REMARK    1  A    between atoms: N_1  and  C_19
REMARK    2  A    between atoms: C_2  and  C_8
REMARK    3  A    between atoms: C_8  and  N_10
REMARK    4  A    between atoms: C_19  and  C_21
REMARK    5  A    between atoms: C_21  and  C_23
REMARK                            x       y       z     vdW  Elec       q    Type
REMARK                         _______ _______ _______ _____ _____    ______ ____
ROOT
ATOM      1  N   UNL     1      34.085 -21.502 -18.448  0.00  0.00    +0.392 N 
ATOM      2  C   UNL     1      34.273 -19.407 -20.489  0.00  0.00    +0.016 C 
ATOM      3  C   UNL     1      35.473 -20.267 -20.081  0.00  0.00    -0.021 C 
ATOM      4  C   UNL     1      32.971 -20.165 -20.207  0.00  0.00    -0.021 C 
ATOM      5  C   UNL     1      35.339 -20.761 -18.640  0.00  0.00    -0.077 C 
ATOM      6  C   UNL     1      32.920 -20.663 -18.761  0.00  0.00    -0.077 C 
ATOM      7  H   UNL     1      34.085 -22.294 -19.092  0.00  0.00    -0.079 HD
ENDROOT
BRANCH   2   8
ATOM      8  C   UNL     1      34.362 -19.000 -21.958  0.00  0.00    +0.094 C 
BRANCH   8  10
ATOM      9  O   UNL     1      33.539 -17.457 -24.419  0.00  0.00    -0.270 OA
ATOM     10  N   UNL     1      34.087 -17.604 -22.121  0.00  0.00    -0.272 N 
ATOM     11  C   UNL     1      34.177 -16.660 -21.004  0.00  0.00    +0.121 C 
ATOM     12  C   UNL     1      33.708 -16.976 -23.314  0.00  0.00    +0.249 C 
ATOM     13  C   UNL     1      33.809 -15.366 -21.644  0.00  0.00    +0.002 C 
ATOM     14  C   UNL     1      33.534 -15.554 -22.999  0.00  0.00    +0.051 C 
ATOM     15  C   UNL     1      33.719 -14.106 -21.083  0.00  0.00    -0.002 C 
ATOM     16  C   UNL     1      33.166 -14.519 -23.837  0.00  0.00    +0.004 C 
ATOM     17  C   UNL     1      33.348 -13.040 -21.908  0.00  0.00    -0.000 C 
ATOM     18  C   UNL     1      33.073 -13.245 -23.273  0.00  0.00    +0.000 C 
ENDBRANCH   8  10
ENDBRANCH   2   8
BRANCH   1  19
ATOM     19  C   UNL     1      33.995 -22.012 -17.080  0.00  0.00    -0.006 C 
BRANCH  19  21
ATOM     20  O   UNL     1      32.586 -23.790 -17.902  0.00  0.00    -0.294 OA
ATOM     21  C   UNL     1      32.850 -23.005 -16.995  0.00  0.00    +0.152 C 
BRANCH  21  23
ATOM     22  F   UNL     1      29.733 -23.077 -12.363  0.00  0.00    -0.204 F 
ATOM     23  C   UNL     1      32.017 -23.024 -15.755  0.00  0.00    +0.033 C 
ATOM     24  C   UNL     1      30.692 -22.664 -15.848  0.00  0.00    +0.005 C 
ATOM     25  C   UNL     1      32.606 -23.400 -14.571  0.00  0.00    +0.005 C 
ATOM     26  C   UNL     1      29.913 -22.683 -14.691  0.00  0.00    +0.030 C 
ATOM     27  C   UNL     1      31.828 -23.419 -13.414  0.00  0.00    +0.030 C 
ATOM     28  C   UNL     1      30.481 -23.060 -13.474  0.00  0.00    +0.140 C 
ENDBRANCH  21  23
ENDBRANCH  19  21
ENDBRANCH   1  19
TORSDOF 5
ENDMDL
MODEL 3
REMARK VINA RESULT:     -11.2      3.713      6.699
REMARK  Name = 9799284
REMARK  5 active torsions:
REMARK  status: ('A' for Active; 'I' for Inactive)
REMARK    1  A    between atoms: N_1  and  C_19
REMARK    2  A    between atoms: C_2  and  C_8
REMARK    3  A    between atoms: C_8  and  N_10
REMARK    4  A    between atoms: C_19  and  C_21
REMARK    5  A    between atoms: C_21  and  C_23
REMARK                            x       y       z     vdW  Elec       q    Type
REMARK                         _______ _______ _______ _____ _____    ______ ____
ROOT
ATOM      1  N   UNL     1      34.393 -19.502 -20.498  0.00  0.00    +0.392 N 
ATOM      2  C   UNL     1      33.483 -21.444 -18.499  0.00  0.00    +0.016 C 
ATOM      3  C   UNL     1      32.540 -20.835 -19.543  0.00  0.00    -0.021 C 
ATOM      4  C   UNL     1      34.923 -21.415 -19.022  0.00  0.00    -0.021 C 
ATOM      5  C   UNL     1      33.018 -19.450 -19.983  0.00  0.00    -0.077 C 
ATOM      6  C   UNL     1      35.322 -20.011 -19.480  0.00  0.00    -0.077 C 
ATOM      7  H   UNL     1      34.409 -20.147 -21.289  0.00  0.00    -0.079 HD
ENDROOT
BRANCH   2   8
ATOM      8  C   UNL     1      33.059 -22.865 -18.137  0.00  0.00    +0.094 C 
BRANCH   8  10
ATOM      9  O   UNL     1      34.286 -23.602 -15.479  0.00  0.00    -0.270 OA
ATOM     10  N   UNL     1      32.472 -22.908 -16.832  0.00  0.00    -0.272 N 
ATOM     11  C   UNL     1      31.066 -22.565 -16.602  0.00  0.00    +0.121 C 
ATOM     12  C   UNL     1      33.129 -23.266 -15.648  0.00  0.00    +0.249 C 
ATOM     13  C   UNL     1      30.925 -22.752 -15.130  0.00  0.00    +0.002 C 
ATOM     14  C   UNL     1      32.137 -23.163 -14.573  0.00  0.00    +0.051 C 
ATOM     15  C   UNL     1      29.813 -22.575 -14.329  0.00  0.00    -0.002 C 
ATOM     16  C   UNL     1      32.291 -23.411 -13.223  0.00  0.00    +0.004 C 
ATOM     17  C   UNL     1      29.942 -22.819 -12.958  0.00  0.00    -0.000 C 
ATOM     18  C   UNL     1      31.171 -23.233 -12.410  0.00  0.00    +0.000 C 
ENDBRANCH   8  10
ENDBRANCH   2   8
BRANCH   1  19
ATOM     19  C   UNL     1      34.816 -18.182 -20.963  0.00  0.00    -0.006 C 
BRANCH  19  21
ATOM     20  O   UNL     1      34.170 -18.869 -23.184  0.00  0.00    -0.294 OA
ATOM     21  C   UNL     1      34.289 -17.958 -22.369  0.00  0.00    +0.152 C 
BRANCH  21  23
ATOM     22  F   UNL     1      32.831 -12.780 -23.866  0.00  0.00    -0.204 F 
ATOM     23  C   UNL     1      33.900 -16.572 -22.769  0.00  0.00    +0.033 C 
ATOM     24  C   UNL     1      33.460 -16.358 -24.056  0.00  0.00    +0.005 C 
ATOM     25  C   UNL     1      33.995 -15.566 -21.837  0.00  0.00    +0.005 C 
ATOM     26  C   UNL     1      33.095 -15.065 -24.430  0.00  0.00    +0.030 C 
ATOM     27  C   UNL     1      33.630 -14.273 -22.210  0.00  0.00    +0.030 C 
ATOM     28  C   UNL     1      33.181 -14.022 -23.507  0.00  0.00    +0.140 C 
ENDBRANCH  21  23
ENDBRANCH  19  21
ENDBRANCH   1  19
TORSDOF 5
ENDMDL
MODEL 4
REMARK VINA RESULT:     -11.1      3.867     10.087
REMARK  Name = 9799284
REMARK  5 active torsions:
REMARK  status: ('A' for Active; 'I' for Inactive)
REMARK    1  A    between atoms: N_1  and  C_19
REMARK    2  A    between atoms: C_2  and  C_8
REMARK    3  A    between atoms: C_8  and  N_10
REMARK    4  A    between atoms: C_19  and  C_21
REMARK    5  A    between atoms: C_21  and  C_23
REMARK                            x       y       z     vdW  Elec       q    Type
REMARK                         _______ _______ _______ _____ _____    ______ ____
ROOT
ATOM      1  N   UNL     1      33.326 -14.951 -22.195  0.00  0.00    +0.392 N 
ATOM      2  C   UNL     1      32.026 -12.560 -21.106  0.00  0.00    +0.016 C 
ATOM      3  C   UNL     1      31.836 -13.009 -22.558  0.00  0.00    -0.021 C 
ATOM      4  C   UNL     1      32.394 -13.765 -20.234  0.00  0.00    -0.021 C 
ATOM      5  C   UNL     1      33.048 -13.796 -23.060  0.00  0.00    -0.077 C 
ATOM      6  C   UNL     1      33.588 -14.527 -20.813  0.00  0.00    -0.077 C 
ATOM      7  H   UNL     1      32.498 -15.547 -22.190  0.00  0.00    -0.079 HD
ENDROOT
BRANCH   2   8
ATOM      8  C   UNL     1      30.774 -11.863 -20.578  0.00  0.00    +0.094 C 
BRANCH   8  10
ATOM      9  O   UNL     1      30.339  -9.988 -18.251  0.00  0.00    -0.270 OA
ATOM     10  N   UNL     1      30.976 -10.448 -20.484  0.00  0.00    -0.272 N 
ATOM     11  C   UNL     1      31.468  -9.658 -21.616  0.00  0.00    +0.121 C 
ATOM     12  C   UNL     1      30.744  -9.659 -19.351  0.00  0.00    +0.249 C 
ATOM     13  C   UNL     1      31.515  -8.280 -21.051  0.00  0.00    +0.002 C 
ATOM     14  C   UNL     1      31.090  -8.283 -19.723  0.00  0.00    +0.051 C 
ATOM     15  C   UNL     1      31.904  -7.100 -21.657  0.00  0.00    -0.002 C 
ATOM     16  C   UNL     1      31.034  -7.137 -18.954  0.00  0.00    +0.004 C 
ATOM     17  C   UNL     1      31.857  -5.924 -20.901  0.00  0.00    -0.000 C 
ATOM     18  C   UNL     1      31.425  -5.943 -19.561  0.00  0.00    +0.000 C 
ENDBRANCH   8  10
ENDBRANCH   2   8
BRANCH   1  19
ATOM     19  C   UNL     1      34.454 -15.722 -22.716  0.00  0.00    -0.006 C 
BRANCH  19  21
ATOM     20  O   UNL     1      33.410 -17.605 -23.805  0.00  0.00    -0.294 OA
ATOM     21  C   UNL     1      34.044 -17.178 -22.843  0.00  0.00    +0.152 C 
BRANCH  21  23
ATOM     22  F   UNL     1      35.487 -20.707 -18.765  0.00  0.00    -0.204 F 
ATOM     23  C   UNL     1      34.430 -18.122 -21.753  0.00  0.00    +0.033 C 
ATOM     24  C   UNL     1      35.720 -18.085 -21.277  0.00  0.00    +0.005 C 
ATOM     25  C   UNL     1      33.481 -18.991 -21.267  0.00  0.00    +0.005 C 
ATOM     26  C   UNL     1      36.081 -18.967 -20.257  0.00  0.00    +0.030 C 
ATOM     27  C   UNL     1      33.840 -19.872 -20.248  0.00  0.00    +0.030 C 
ATOM     28  C   UNL     1      35.141 -19.860 -19.743  0.00  0.00    +0.140 C 
ENDBRANCH  21  23
ENDBRANCH  19  21
ENDBRANCH   1  19
TORSDOF 5
ENDMDL
MODEL 5
REMARK VINA RESULT:     -11.0      3.521     10.301
REMARK  Name = 9799284
REMARK  5 active torsions:
REMARK  status: ('A' for Active; 'I' for Inactive)
REMARK    1  A    between atoms: N_1  and  C_19
REMARK    2  A    between atoms: C_2  and  C_8
REMARK    3  A    between atoms: C_8  and  N_10
REMARK    4  A    between atoms: C_19  and  C_21
REMARK    5  A    between atoms: C_21  and  C_23
REMARK                            x       y       z     vdW  Elec       q    Type
REMARK                         _______ _______ _______ _____ _____    ______ ____
ROOT
ATOM      1  N   UNL     1      33.795 -15.997 -21.616  0.00  0.00    +0.392 N 
ATOM      2  C   UNL     1      33.393 -13.407 -22.930  0.00  0.00    +0.016 C 
ATOM      3  C   UNL     1      33.705 -14.687 -23.713  0.00  0.00    -0.021 C 
ATOM      4  C   UNL     1      32.728 -13.764 -21.596  0.00  0.00    -0.021 C 
ATOM      5  C   UNL     1      34.502 -15.678 -22.864  0.00  0.00    -0.077 C 
ATOM      6  C   UNL     1      33.558 -14.787 -20.817  0.00  0.00    -0.077 C 
ATOM      7  H   UNL     1      32.888 -16.394 -21.861  0.00  0.00    -0.079 HD
ENDROOT
BRANCH   2   8
ATOM      8  C   UNL     1      32.513 -12.464 -23.747  0.00  0.00    +0.094 C 
BRANCH   8  10
ATOM      9  O   UNL     1      34.511 -10.481 -24.836  0.00  0.00    -0.270 OA
ATOM     10  N   UNL     1      32.748 -11.099 -23.383  0.00  0.00    -0.272 N 
ATOM     11  C   UNL     1      31.970 -10.430 -22.337  0.00  0.00    +0.121 C 
ATOM     12  C   UNL     1      33.707 -10.252 -23.952  0.00  0.00    +0.249 C 
ATOM     13  C   UNL     1      32.560  -9.062 -22.322  0.00  0.00    +0.002 C 
ATOM     14  C   UNL     1      33.579  -8.960 -23.270  0.00  0.00    +0.051 C 
ATOM     15  C   UNL     1      32.231  -7.976 -21.532  0.00  0.00    -0.002 C 
ATOM     16  C   UNL     1      34.299  -7.798 -23.469  0.00  0.00    +0.004 C 
ATOM     17  C   UNL     1      32.944  -6.787 -21.714  0.00  0.00    -0.000 C 
ATOM     18  C   UNL     1      33.969  -6.699 -22.675  0.00  0.00    +0.000 C 
ENDBRANCH   8  10
ENDBRANCH   2   8
BRANCH   1  19
ATOM     19  C   UNL     1      34.544 -16.984 -20.840  0.00  0.00    -0.006 C 
BRANCH  19  21
ATOM     20  O   UNL     1      34.096 -18.639 -22.538  0.00  0.00    -0.294 OA
ATOM     21  C   UNL     1      34.201 -18.375 -21.343  0.00  0.00    +0.152 C 
BRANCH  21  23
ATOM     22  F   UNL     1      33.395 -22.429 -17.590  0.00  0.00    -0.204 F 
ATOM     23  C   UNL     1      33.985 -19.460 -20.340  0.00  0.00    +0.033 C 
ATOM     24  C   UNL     1      35.086 -20.038 -19.748  0.00  0.00    +0.005 C 
ATOM     25  C   UNL     1      32.697 -19.838 -20.046  0.00  0.00    +0.005 C 
ATOM     26  C   UNL     1      34.885 -21.050 -18.810  0.00  0.00    +0.030 C 
ATOM     27  C   UNL     1      32.495 -20.850 -19.108  0.00  0.00    +0.030 C 
ATOM     28  C   UNL     1      33.589 -21.457 -18.490  0.00  0.00    +0.140 C 
ENDBRANCH  21  23
ENDBRANCH  19  21
ENDBRANCH   1  19
TORSDOF 5
ENDMDL
MODEL 6
REMARK VINA RESULT:     -10.9      3.695      6.789
REMARK  Name = 9799284
REMARK  5 active torsions:
REMARK  status: ('A' for Active; 'I' for Inactive)
REMARK    1  A    between atoms: N_1  and  C_19
REMARK    2  A    between atoms: C_2  and  C_8
REMARK    3  A    between atoms: C_8  and  N_10
REMARK    4  A    between atoms: C_19  and  C_21
REMARK    5  A    between atoms: C_21  and  C_23
REMARK                            x       y       z     vdW  Elec       q    Type
REMARK                         _______ _______ _______ _____ _____    ______ ____
ROOT
ATOM      1  N   UNL     1      34.371 -19.500 -20.518  0.00  0.00    +0.392 N 
ATOM      2  C   UNL     1      33.396 -21.426 -18.535  0.00  0.00    +0.016 C 
ATOM      3  C   UNL     1      32.476 -20.783 -19.577  0.00  0.00    -0.021 C 
ATOM      4  C   UNL     1      34.839 -21.438 -19.053  0.00  0.00    -0.021 C 
ATOM      5  C   UNL     1      32.997 -19.410 -20.007  0.00  0.00    -0.077 C 
ATOM      6  C   UNL     1      35.281 -20.043 -19.500  0.00  0.00    -0.077 C 
ATOM      7  H   UNL     1      34.370 -20.139 -21.312  0.00  0.00    -0.079 HD
ENDROOT
BRANCH   2   8
ATOM      8  C   UNL     1      32.928 -22.836 -18.184  0.00  0.00    +0.094 C 
BRANCH   8  10
ATOM      9  O   UNL     1      30.305 -21.993 -16.950  0.00  0.00    -0.270 OA
ATOM     10  N   UNL     1      32.485 -22.907 -16.824  0.00  0.00    -0.272 N 
ATOM     11  C   UNL     1      33.332 -23.452 -15.760  0.00  0.00    +0.121 C 
ATOM     12  C   UNL     1      31.238 -22.487 -16.345  0.00  0.00    +0.249 C 
ATOM     13  C   UNL     1      32.462 -23.321 -14.557  0.00  0.00    +0.002 C 
ATOM     14  C   UNL     1      31.234 -22.754 -14.903  0.00  0.00    +0.051 C 
ATOM     15  C   UNL     1      32.723 -23.673 -13.246  0.00  0.00    -0.002 C 
ATOM     16  C   UNL     1      30.235 -22.518 -13.979  0.00  0.00    +0.004 C 
ATOM     17  C   UNL     1      31.728 -23.445 -12.291  0.00  0.00    -0.000 C 
ATOM     18  C   UNL     1      30.495 -22.873 -12.654  0.00  0.00    +0.000 C 
ENDBRANCH   8  10
ENDBRANCH   2   8
BRANCH   1  19
ATOM     19  C   UNL     1      34.835 -18.190 -20.972  0.00  0.00    -0.006 C 
BRANCH  19  21
ATOM     20  O   UNL     1      34.203 -18.827 -23.212  0.00  0.00    -0.294 OA
ATOM     21  C   UNL     1      34.310 -17.935 -22.373  0.00  0.00    +0.152 C 
BRANCH  21  23
ATOM     22  F   UNL     1      32.813 -12.734 -23.745  0.00  0.00    -0.204 F 
ATOM     23  C   UNL     1      33.909 -16.544 -22.740  0.00  0.00    +0.033 C 
ATOM     24  C   UNL     1      34.002 -15.559 -21.784  0.00  0.00    +0.005 C 
ATOM     25  C   UNL     1      33.464 -16.303 -24.019  0.00  0.00    +0.005 C 
ATOM     26  C   UNL     1      33.628 -14.259 -22.127  0.00  0.00    +0.030 C 
ATOM     27  C   UNL     1      33.091 -15.004 -24.362  0.00  0.00    +0.030 C 
ATOM     28  C   UNL     1      33.172 -13.982 -23.416  0.00  0.00    +0.140 C 
ENDBRANCH  21  23
ENDBRANCH  19  21
ENDBRANCH   1  19
TORSDOF 5
ENDMDL
MODEL 7
REMARK VINA RESULT:     -10.8      2.070      2.546
REMARK  Name = 9799284
REMARK  5 active torsions:
REMARK  status: ('A' for Active; 'I' for Inactive)
REMARK    1  A    between atoms: N_1  and  C_19
REMARK    2  A    between atoms: C_2  and  C_8
REMARK    3  A    between atoms: C_8  and  N_10
REMARK    4  A    between atoms: C_19  and  C_21
REMARK    5  A    between atoms: C_21  and  C_23
REMARK                            x       y       z     vdW  Elec       q    Type
REMARK                         _______ _______ _______ _____ _____    ______ ____
ROOT
ATOM      1  N   UNL     1      33.205 -13.464 -22.409  0.00  0.00    +0.392 N 
ATOM      2  C   UNL     1      33.791 -16.335 -22.306  0.00  0.00    +0.016 C 
ATOM      3  C   UNL     1      33.724 -15.556 -23.624  0.00  0.00    -0.021 C 
ATOM      4  C   UNL     1      34.143 -15.382 -21.158  0.00  0.00    -0.021 C 
ATOM      5  C   UNL     1      32.794 -14.348 -23.509  0.00  0.00    -0.077 C 
ATOM      6  C   UNL     1      33.199 -14.179 -21.125  0.00  0.00    -0.077 C 
ATOM      7  H   UNL     1      34.160 -13.157 -22.593  0.00  0.00    -0.079 HD
ENDROOT
BRANCH   2   8
ATOM      8  C   UNL     1      34.796 -17.481 -22.395  0.00  0.00    +0.094 C 
BRANCH   8  10
ATOM      9  O   UNL     1      36.680 -18.857 -20.478  0.00  0.00    -0.270 OA
ATOM     10  N   UNL     1      34.533 -18.474 -21.397  0.00  0.00    -0.272 N 
ATOM     11  C   UNL     1      33.183 -18.994 -21.159  0.00  0.00    +0.121 C 
ATOM     12  C   UNL     1      35.481 -19.057 -20.549  0.00  0.00    +0.249 C 
ATOM     13  C   UNL     1      33.406 -19.973 -20.058  0.00  0.00    +0.002 C 
ATOM     14  C   UNL     1      34.754 -20.008 -19.702  0.00  0.00    +0.051 C 
ATOM     15  C   UNL     1      32.491 -20.781 -19.408  0.00  0.00    -0.002 C 
ATOM     16  C   UNL     1      35.242 -20.831 -18.705  0.00  0.00    +0.004 C 
ATOM     17  C   UNL     1      32.959 -21.624 -18.395  0.00  0.00    -0.000 C 
ATOM     18  C   UNL     1      34.322 -21.649 -18.047  0.00  0.00    +0.000 C 
ENDBRANCH   8  10
ENDBRANCH   2   8
BRANCH   1  19
ATOM     19  C   UNL     1      32.339 -12.288 -22.345  0.00  0.00    -0.006 C 
BRANCH  19  21
ATOM     20  O   UNL     1      31.078 -13.398 -20.612  0.00  0.00    -0.294 OA
ATOM     21  C   UNL     1      31.518 -12.346 -21.070  0.00  0.00    +0.152 C 
BRANCH  21  23
ATOM     22  F   UNL     1      30.465  -7.572 -18.372  0.00  0.00    -0.204 F 
ATOM     23  C   UNL     1      31.237 -11.069 -20.348  0.00  0.00    +0.033 C 
ATOM     24  C   UNL     1      31.201  -9.898 -21.071  0.00  0.00    +0.005 C 
ATOM     25  C   UNL     1      31.024 -11.113 -18.990  0.00  0.00    +0.005 C 
ATOM     26  C   UNL     1      30.937  -8.705 -20.397  0.00  0.00    +0.030 C 
ATOM     27  C   UNL     1      30.761  -9.921 -18.316  0.00  0.00    +0.030 C 
ATOM     28  C   UNL     1      30.717  -8.717 -19.019  0.00  0.00    +0.140 C 
ENDBRANCH  21  23
ENDBRANCH  19  21
ENDBRANCH   1  19
TORSDOF 5
ENDMDL
MODEL 8
REMARK VINA RESULT:     -10.8      3.505     10.170
REMARK  Name = 9799284
REMARK  5 active torsions:
REMARK  status: ('A' for Active; 'I' for Inactive)
REMARK    1  A    between atoms: N_1  and  C_19
REMARK    2  A    between atoms: C_2  and  C_8
REMARK    3  A    between atoms: C_8  and  N_10
REMARK    4  A    between atoms: C_19  and  C_21
REMARK    5  A    between atoms: C_21  and  C_23
REMARK                            x       y       z     vdW  Elec       q    Type
REMARK                         _______ _______ _______ _____ _____    ______ ____
ROOT
ATOM      1  N   UNL     1      33.346 -15.517 -22.911  0.00  0.00    +0.392 N 
ATOM      2  C   UNL     1      32.646 -12.745 -22.261  0.00  0.00    +0.016 C 
ATOM      3  C   UNL     1      32.226 -13.413 -23.575  0.00  0.00    -0.021 C 
ATOM      4  C   UNL     1      32.864 -13.812 -21.184  0.00  0.00    -0.021 C 
ATOM      5  C   UNL     1      33.207 -14.515 -23.977  0.00  0.00    -0.077 C 
ATOM      6  C   UNL     1      33.824 -14.902 -21.665  0.00  0.00    -0.077 C 
ATOM      7  H   UNL     1      32.424 -15.915 -22.731  0.00  0.00    -0.079 HD
ENDROOT
BRANCH   2   8
ATOM      8  C   UNL     1      31.612 -11.715 -21.813  0.00  0.00    +0.094 C 
BRANCH   8  10
ATOM      9  O   UNL     1      30.688  -9.061 -20.711  0.00  0.00    -0.270 OA
ATOM     10  N   UNL     1      32.040 -10.386 -22.131  0.00  0.00    -0.272 N 
ATOM     11  C   UNL     1      33.084 -10.124 -23.126  0.00  0.00    +0.121 C 
ATOM     12  C   UNL     1      31.547  -9.206 -21.560  0.00  0.00    +0.249 C 
ATOM     13  C   UNL     1      33.182  -8.638 -23.107  0.00  0.00    +0.002 C 
ATOM     14  C   UNL     1      32.280  -8.102 -22.188  0.00  0.00    +0.051 C 
ATOM     15  C   UNL     1      34.005  -7.806 -23.843  0.00  0.00    -0.002 C 
ATOM     16  C   UNL     1      32.159  -6.744 -21.966  0.00  0.00    +0.004 C 
ATOM     17  C   UNL     1      33.903  -6.427 -23.638  0.00  0.00    -0.000 C 
ATOM     18  C   UNL     1      32.988  -5.900 -22.707  0.00  0.00    +0.000 C 
ENDBRANCH   8  10
ENDBRANCH   2   8
BRANCH   1  19
ATOM     19  C   UNL     1      34.246 -16.590 -23.330  0.00  0.00    -0.006 C 
BRANCH  19  21
ATOM     20  O   UNL     1      32.725 -18.456 -23.508  0.00  0.00    -0.294 OA
ATOM     21  C   UNL     1      33.657 -17.925 -22.909  0.00  0.00    +0.152 C 
BRANCH  21  23
ATOM     22  F   UNL     1      35.830 -20.504 -18.459  0.00  0.00    -0.204 F 
ATOM     23  C   UNL     1      34.238 -18.614 -21.718  0.00  0.00    +0.033 C 
ATOM     24  C   UNL     1      33.439 -19.476 -21.002  0.00  0.00    +0.005 C 
ATOM     25  C   UNL     1      35.548 -18.361 -21.385  0.00  0.00    +0.005 C 
ATOM     26  C   UNL     1      33.982 -20.121 -19.890  0.00  0.00    +0.030 C 
ATOM     27  C   UNL     1      36.091 -19.005 -20.274  0.00  0.00    +0.030 C 
ATOM     28  C   UNL     1      35.308 -19.885 -19.526  0.00  0.00    +0.140 C 
ENDBRANCH  21  23
ENDBRANCH  19  21
ENDBRANCH   1  19
TORSDOF 5
ENDMDL
MODEL 9
REMARK VINA RESULT:     -10.7      3.915      7.050
REMARK  Name = 9799284
REMARK  5 active torsions:
REMARK  status: ('A' for Active; 'I' for Inactive)
REMARK    1  A    between atoms: N_1  and  C_19
REMARK    2  A    between atoms: C_2  and  C_8
REMARK    3  A    between atoms: C_8  and  N_10
REMARK    4  A    between atoms: C_19  and  C_21
REMARK    5  A    between atoms: C_21  and  C_23
REMARK                            x       y       z     vdW  Elec       q    Type
REMARK                         _______ _______ _______ _____ _____    ______ ____
ROOT
ATOM      1  N   UNL     1      34.404 -19.785 -20.514  0.00  0.00    +0.392 N 
ATOM      2  C   UNL     1      33.259 -21.276 -18.264  0.00  0.00    +0.016 C 
ATOM      3  C   UNL     1      32.392 -20.636 -19.353  0.00  0.00    -0.021 C 
ATOM      4  C   UNL     1      34.656 -21.572 -18.822  0.00  0.00    -0.021 C 
ATOM      5  C   UNL     1      33.086 -19.423 -19.976  0.00  0.00    -0.077 C 
ATOM      6  C   UNL     1      35.275 -20.329 -19.462  0.00  0.00    -0.077 C 
ATOM      7  H   UNL     1      34.269 -20.511 -21.217  0.00  0.00    -0.079 HD
ENDROOT
BRANCH   2   8
ATOM      8  C   UNL     1      32.608 -22.543 -17.716  0.00  0.00    +0.094 C 
BRANCH   8  10
ATOM      9  O   UNL     1      31.005 -23.537 -15.358  0.00  0.00    -0.270 OA
ATOM     10  N   UNL     1      33.011 -22.784 -16.364  0.00  0.00    -0.272 N 
ATOM     11  C   UNL     1      34.388 -22.559 -15.913  0.00  0.00    +0.121 C 
ATOM     12  C   UNL     1      32.188 -23.250 -15.332  0.00  0.00    +0.249 C 
ATOM     13  C   UNL     1      34.322 -22.940 -14.474  0.00  0.00    +0.002 C 
ATOM     14  C   UNL     1      33.031 -23.345 -14.136  0.00  0.00    +0.051 C 
ATOM     15  C   UNL     1      35.324 -22.934 -13.522  0.00  0.00    -0.002 C 
ATOM     16  C   UNL     1      32.687 -23.753 -12.862  0.00  0.00    +0.004 C 
ATOM     17  C   UNL     1      35.003 -23.343 -12.224  0.00  0.00    -0.000 C 
ATOM     18  C   UNL     1      33.695 -23.749 -11.897  0.00  0.00    +0.000 C 
ENDBRANCH   8  10
ENDBRANCH   2   8
BRANCH   1  19
ATOM     19  C   UNL     1      35.032 -18.628 -21.151  0.00  0.00    -0.006 C 
BRANCH  19  21
ATOM     20  O   UNL     1      34.101 -19.254 -23.288  0.00  0.00    -0.294 OA
ATOM     21  C   UNL     1      34.349 -18.362 -22.480  0.00  0.00    +0.152 C 
BRANCH  21  23
ATOM     22  F   UNL     1      32.909 -13.113 -23.723  0.00  0.00    -0.204 F 
ATOM     23  C   UNL     1      33.965 -16.958 -22.813  0.00  0.00    +0.033 C 
ATOM     24  C   UNL     1      33.466 -16.692 -24.068  0.00  0.00    +0.005 C 
ATOM     25  C   UNL     1      34.123 -15.986 -21.852  0.00  0.00    +0.005 C 
ATOM     26  C   UNL     1      33.105 -15.380 -24.378  0.00  0.00    +0.030 C 
ATOM     27  C   UNL     1      33.763 -14.676 -22.162  0.00  0.00    +0.030 C 
ATOM     28  C   UNL     1      33.254 -14.372 -23.425  0.00  0.00    +0.140 C 
ENDBRANCH  21  23
ENDBRANCH  19  21
ENDBRANCH   1  19
TORSDOF 5
ENDMDL
