MODEL 1
REMARK VINA RESULT:     -12.3      0.000      0.000
REMARK  Name = 10224181
REMARK  7 active torsions:
REMARK  status: ('A' for Active; 'I' for Inactive)
REMARK    1  A    between atoms: N_3  and  C_23
REMARK    2  A    between atoms: C_12  and  C_14
REMARK    3  A    between atoms: C_15  and  C_16
REMARK    4  A    between atoms: C_16  and  C_17
REMARK    5  A    between atoms: C_23  and  C_24
REMARK    6  A    between atoms: C_29  and  C_31
REMARK    7  A    between atoms: C_31  and  O_32
REMARK                            x       y       z     vdW  Elec       q    Type
REMARK                         _______ _______ _______ _____ _____    ______ ____
ROOT
ATOM      1  O   UNL     1      35.589 -22.555 -14.646  0.00  0.00    -0.267 OA
ATOM      2  O   UNL     1      31.653 -24.450 -13.058  0.00  0.00    -0.246 OA
ATOM      3  N   UNL     1      33.627 -23.515 -13.823  0.00  0.00    -0.244 N 
ATOM      4  N   UNL     1      31.629 -23.404 -15.125  0.00  0.00    -0.279 N 
ATOM      5  C   UNL     1      32.328 -22.692 -16.145  0.00  0.00    +0.069 A 
ATOM      6  C   UNL     1      33.684 -22.399 -15.985  0.00  0.00    +0.073 A 
ATOM      7  C   UNL     1      34.396 -22.823 -14.768  0.00  0.00    +0.266 A 
ATOM      8  C   UNL     1      32.256 -23.833 -13.944  0.00  0.00    +0.334 A 
ATOM      9  C   UNL     1      34.390 -21.700 -16.978  0.00  0.00    +0.014 C 
ATOM     10  C   UNL     1      31.693 -22.267 -17.325  0.00  0.00    +0.018 C 
ATOM     11  C   UNL     1      30.209 -23.697 -15.318  0.00  0.00    +0.135 C 
ATOM     12  C   UNL     1      33.743 -21.287 -18.139  0.00  0.00    +0.042 C 
ATOM     13  C   UNL     1      32.395 -21.571 -18.313  0.00  0.00    +0.010 C 
ENDROOT
BRANCH  12  14
ATOM     14  C   UNL     1      34.464 -20.576 -19.147  0.00  0.00    -0.064 C 
ATOM     15  C   UNL     1      35.074 -19.976 -19.995  0.00  0.00    -0.082 C 
BRANCH  15  16
ATOM     16  C   UNL     1      35.819 -19.243 -21.025  0.00  0.00    +0.103 C 
BRANCH  16  17
ATOM     17  C   UNL     1      34.901 -18.519 -21.976  0.00  0.00    -0.009 C 
ATOM     18  C   UNL     1      34.850 -17.133 -21.955  0.00  0.00    -0.003 C 
ATOM     19  C   UNL     1      34.121 -19.250 -22.861  0.00  0.00    -0.003 C 
ATOM     20  C   UNL     1      34.001 -16.464 -22.836  0.00  0.00    -0.000 C 
ATOM     21  C   UNL     1      33.272 -18.581 -23.741  0.00  0.00    -0.000 C 
ATOM     22  C   UNL     1      33.212 -17.188 -23.729  0.00  0.00    -0.000 C 
ENDBRANCH  16  17
ENDBRANCH  15  16
ENDBRANCH  12  14
BRANCH   3  23
ATOM     23  C   UNL     1      34.306 -23.949 -12.605  0.00  0.00    +0.140 C 
BRANCH  23  24
ATOM     24  C   UNL     1      35.673 -24.507 -12.892  0.00  0.00    +0.001 C 
ATOM     25  C   UNL     1      35.813 -25.531 -13.820  0.00  0.00    -0.002 C 
ATOM     26  C   UNL     1      36.776 -23.991 -12.227  0.00  0.00    -0.002 C 
ATOM     27  C   UNL     1      37.080 -26.048 -14.087  0.00  0.00    +0.006 C 
ATOM     28  C   UNL     1      38.044 -24.508 -12.494  0.00  0.00    +0.006 C 
ATOM     29  C   UNL     1      38.196 -25.537 -13.424  0.00  0.00    +0.075 C 
BRANCH  29  31
ATOM     30  O   UNL     1      40.272 -26.589 -12.869  0.00  0.00    -0.245 OA
ATOM     31  C   UNL     1      39.518 -26.075 -13.702  0.00  0.00    +0.338 C 
BRANCH  31  32
ATOM     32  O   UNL     1      39.863 -25.957 -15.014  0.00  0.00    -0.477 OA
ATOM     33  H   UNL     1      40.233 -26.688 -15.468  0.00  0.00    +0.295 HD
ENDBRANCH  31  32
ENDBRANCH  29  31
ENDBRANCH  23  24
ENDBRANCH   3  23
TORSDOF 7
ENDMDL
MODEL 2
REMARK VINA RESULT:     -12.1      2.482      6.250
REMARK  Name = 10224181
REMARK  7 active torsions:
REMARK  status: ('A' for Active; 'I' for Inactive)
REMARK    1  A    between atoms: N_3  and  C_23
REMARK    2  A    between atoms: C_12  and  C_14
REMARK    3  A    between atoms: C_15  and  C_16
REMARK    4  A    between atoms: C_16  and  C_17
REMARK    5  A    between atoms: C_23  and  C_24
REMARK    6  A    between atoms: C_29  and  C_31
REMARK    7  A    between atoms: C_31  and  O_32
REMARK                            x       y       z     vdW  Elec       q    Type
REMARK                         _______ _______ _______ _____ _____    ______ ____
ROOT
ATOM      1  O   UNL     1      31.479 -23.288 -16.399  0.00  0.00    -0.267 OA
ATOM      2  O   UNL     1      33.995 -24.150 -12.588  0.00  0.00    -0.246 OA
ATOM      3  N   UNL     1      32.718 -23.736 -14.473  0.00  0.00    -0.244 N 
ATOM      4  N   UNL     1      34.964 -22.942 -14.311  0.00  0.00    -0.279 N 
ATOM      5  C   UNL     1      34.856 -22.357 -15.607  0.00  0.00    +0.069 A 
ATOM      6  C   UNL     1      33.665 -22.473 -16.326  0.00  0.00    +0.073 A 
ATOM      7  C   UNL     1      32.519 -23.196 -15.750  0.00  0.00    +0.266 A 
ATOM      8  C   UNL     1      33.905 -23.643 -13.711  0.00  0.00    +0.334 A 
ATOM      9  C   UNL     1      33.538 -21.904 -17.604  0.00  0.00    +0.014 C 
ATOM     10  C   UNL     1      35.922 -21.657 -16.200  0.00  0.00    +0.018 C 
ATOM     11  C   UNL     1      36.224 -22.807 -13.580  0.00  0.00    +0.135 C 
ATOM     12  C   UNL     1      34.604 -21.215 -18.173  0.00  0.00    +0.042 C 
ATOM     13  C   UNL     1      35.796 -21.091 -17.471  0.00  0.00    +0.010 C 
ENDROOT
BRANCH  12  14
ATOM     14  C   UNL     1      34.473 -20.636 -19.473  0.00  0.00    -0.064 C 
ATOM     15  C   UNL     1      34.366 -20.150 -20.570  0.00  0.00    -0.082 C 
BRANCH  15  16
ATOM     16  C   UNL     1      34.239 -19.557 -21.906  0.00  0.00    +0.103 C 
BRANCH  16  17
ATOM     17  C   UNL     1      34.138 -18.054 -21.849  0.00  0.00    -0.009 C 
ATOM     18  C   UNL     1      33.909 -17.341 -23.016  0.00  0.00    -0.003 C 
ATOM     19  C   UNL     1      34.274 -17.408 -20.629  0.00  0.00    -0.003 C 
ATOM     20  C   UNL     1      33.815 -15.950 -22.963  0.00  0.00    -0.000 C 
ATOM     21  C   UNL     1      34.180 -16.017 -20.576  0.00  0.00    -0.000 C 
ATOM     22  C   UNL     1      33.951 -15.289 -21.742  0.00  0.00    -0.000 C 
ENDBRANCH  16  17
ENDBRANCH  15  16
ENDBRANCH  12  14
BRANCH   3  23
ATOM     23  C   UNL     1      31.599 -24.459 -13.875  0.00  0.00    +0.140 C 
BRANCH  23  24
ATOM     24  C   UNL     1      30.275 -23.845 -14.241  0.00  0.00    +0.001 C 
ATOM     25  C   UNL     1      30.012 -22.527 -13.892  0.00  0.00    -0.002 C 
ATOM     26  C   UNL     1      29.334 -24.605 -14.923  0.00  0.00    -0.002 C 
ATOM     27  C   UNL     1      28.785 -21.958 -14.232  0.00  0.00    +0.006 C 
ATOM     28  C   UNL     1      28.107 -24.036 -15.263  0.00  0.00    +0.006 C 
ATOM     29  C   UNL     1      27.832 -22.713 -14.917  0.00  0.00    +0.075 C 
BRANCH  29  31
ATOM     30  O   UNL     1      25.569 -22.042 -14.528  0.00  0.00    -0.245 OA
ATOM     31  C   UNL     1      26.552 -22.119 -15.272  0.00  0.00    +0.338 C 
BRANCH  31  32
ATOM     32  O   UNL     1      26.536 -21.640 -16.546  0.00  0.00    -0.477 OA
ATOM     33  H   UNL     1      25.735 -21.631 -17.032  0.00  0.00    +0.295 HD
ENDBRANCH  31  32
ENDBRANCH  29  31
ENDBRANCH  23  24
ENDBRANCH   3  23
TORSDOF 7
ENDMDL
MODEL 3
REMARK VINA RESULT:     -12.0      6.306     10.094
REMARK  Name = 10224181
REMARK  7 active torsions:
REMARK  status: ('A' for Active; 'I' for Inactive)
REMARK    1  A    between atoms: N_3  and  C_23
REMARK    2  A    between atoms: C_12  and  C_14
REMARK    3  A    between atoms: C_15  and  C_16
REMARK    4  A    between atoms: C_16  and  C_17
REMARK    5  A    between atoms: C_23  and  C_24
REMARK    6  A    between atoms: C_29  and  C_31
REMARK    7  A    between atoms: C_31  and  O_32
REMARK                            x       y       z     vdW  Elec       q    Type
REMARK                         _______ _______ _______ _____ _____    ______ ____
ROOT
ATOM      1  O   UNL     1      34.493 -16.139 -19.423  0.00  0.00    -0.267 OA
ATOM      2  O   UNL     1      34.763 -18.143 -23.607  0.00  0.00    -0.246 OA
ATOM      3  N   UNL     1      34.646 -17.167 -21.512  0.00  0.00    -0.244 N 
ATOM      4  N   UNL     1      33.543 -16.186 -23.388  0.00  0.00    -0.279 N 
ATOM      5  C   UNL     1      33.062 -15.131 -22.559  0.00  0.00    +0.069 A 
ATOM      6  C   UNL     1      33.384 -15.110 -21.201  0.00  0.00    +0.073 A 
ATOM      7  C   UNL     1      34.220 -16.174 -20.621  0.00  0.00    +0.266 A 
ATOM      8  C   UNL     1      34.344 -17.227 -22.891  0.00  0.00    +0.334 A 
ATOM      9  C   UNL     1      32.921 -14.079 -20.367  0.00  0.00    +0.014 C 
ATOM     10  C   UNL     1      32.261 -14.091 -23.065  0.00  0.00    +0.018 C 
ATOM     11  C   UNL     1      33.190 -16.184 -24.808  0.00  0.00    +0.135 C 
ATOM     12  C   UNL     1      32.128 -13.060 -20.887  0.00  0.00    +0.042 C 
ATOM     13  C   UNL     1      31.799 -13.066 -22.237  0.00  0.00    +0.010 C 
ENDROOT
BRANCH  12  14
ATOM     14  C   UNL     1      31.658 -12.012 -20.038  0.00  0.00    -0.064 C 
ATOM     15  C   UNL     1      31.261 -11.126 -19.325  0.00  0.00    -0.082 C 
BRANCH  15  16
ATOM     16  C   UNL     1      30.777 -10.044 -18.459  0.00  0.00    +0.103 C 
BRANCH  16  17
ATOM     17  C   UNL     1      30.811  -8.708 -19.154  0.00  0.00    -0.009 C 
ATOM     18  C   UNL     1      30.821  -8.660 -20.541  0.00  0.00    -0.003 C 
ATOM     19  C   UNL     1      30.831  -7.545 -18.397  0.00  0.00    -0.003 C 
ATOM     20  C   UNL     1      30.852  -7.423 -21.184  0.00  0.00    -0.000 C 
ATOM     21  C   UNL     1      30.862  -6.308 -19.040  0.00  0.00    -0.000 C 
ATOM     22  C   UNL     1      30.872  -6.247 -20.433  0.00  0.00    -0.000 C 
ENDBRANCH  16  17
ENDBRANCH  15  16
ENDBRANCH  12  14
BRANCH   3  23
ATOM     23  C   UNL     1      35.478 -18.237 -20.967  0.00  0.00    +0.140 C 
BRANCH  23  24
ATOM     24  C   UNL     1      34.660 -19.267 -20.235  0.00  0.00    +0.001 C 
ATOM     25  C   UNL     1      35.293 -20.170 -19.393  0.00  0.00    -0.002 C 
ATOM     26  C   UNL     1      33.283 -19.298 -20.412  0.00  0.00    -0.002 C 
ATOM     27  C   UNL     1      34.535 -21.125 -18.715  0.00  0.00    +0.006 C 
ATOM     28  C   UNL     1      32.525 -20.253 -19.734  0.00  0.00    +0.006 C 
ATOM     29  C   UNL     1      33.151 -21.166 -18.885  0.00  0.00    +0.075 C 
BRANCH  29  31
ATOM     30  O   UNL     1      31.345 -21.927 -17.513  0.00  0.00    -0.245 OA
ATOM     31  C   UNL     1      32.360 -22.161 -18.178  0.00  0.00    +0.338 C 
BRANCH  31  32
ATOM     32  O   UNL     1      32.859 -23.420 -18.319  0.00  0.00    -0.477 OA
ATOM     33  H   UNL     1      33.664 -23.653 -17.900  0.00  0.00    +0.295 HD
ENDBRANCH  31  32
ENDBRANCH  29  31
ENDBRANCH  23  24
ENDBRANCH   3  23
TORSDOF 7
ENDMDL
MODEL 4
REMARK VINA RESULT:     -11.6     10.673     16.883
REMARK  Name = 10224181
REMARK  7 active torsions:
REMARK  status: ('A' for Active; 'I' for Inactive)
REMARK    1  A    between atoms: N_3  and  C_23
REMARK    2  A    between atoms: C_12  and  C_14
REMARK    3  A    between atoms: C_15  and  C_16
REMARK    4  A    between atoms: C_16  and  C_17
REMARK    5  A    between atoms: C_23  and  C_24
REMARK    6  A    between atoms: C_29  and  C_31
REMARK    7  A    between atoms: C_31  and  O_32
REMARK                            x       y       z     vdW  Elec       q    Type
REMARK                         _______ _______ _______ _____ _____    ______ ____
ROOT
ATOM      1  O   UNL     1      34.138  -9.165 -24.446  0.00  0.00    -0.267 OA
ATOM      2  O   UNL     1      31.759  -6.441 -21.526  0.00  0.00    -0.246 OA
ATOM      3  N   UNL     1      32.956  -7.773 -22.994  0.00  0.00    -0.244 N 
ATOM      4  N   UNL     1      31.563  -8.740 -21.313  0.00  0.00    -0.279 N 
ATOM      5  C   UNL     1      31.922 -10.045 -21.761  0.00  0.00    +0.069 A 
ATOM      6  C   UNL     1      32.803 -10.196 -22.833  0.00  0.00    +0.073 A 
ATOM      7  C   UNL     1      33.365  -9.012 -23.503  0.00  0.00    +0.266 A 
ATOM      8  C   UNL     1      32.068  -7.575 -21.912  0.00  0.00    +0.334 A 
ATOM      9  C   UNL     1      33.169 -11.473 -23.290  0.00  0.00    +0.014 C 
ATOM     10  C   UNL     1      31.412 -11.208 -21.154  0.00  0.00    +0.018 C 
ATOM     11  C   UNL     1      30.637  -8.611 -20.188  0.00  0.00    +0.135 C 
ATOM     12  C   UNL     1      32.653 -12.611 -22.676  0.00  0.00    +0.042 C 
ATOM     13  C   UNL     1      31.776 -12.478 -21.608  0.00  0.00    +0.010 C 
ENDROOT
BRANCH  12  14
ATOM     14  C   UNL     1      33.027 -13.909 -23.141  0.00  0.00    -0.064 C 
ATOM     15  C   UNL     1      33.340 -15.005 -23.531  0.00  0.00    -0.082 C 
BRANCH  15  16
ATOM     16  C   UNL     1      33.721 -16.342 -24.002  0.00  0.00    +0.103 C 
BRANCH  16  17
ATOM     17  C   UNL     1      33.970 -17.292 -22.859  0.00  0.00    -0.009 C 
ATOM     18  C   UNL     1      33.611 -18.626 -22.990  0.00  0.00    -0.003 C 
ATOM     19  C   UNL     1      34.555 -16.819 -21.693  0.00  0.00    -0.003 C 
ATOM     20  C   UNL     1      33.842 -19.505 -21.932  0.00  0.00    -0.000 C 
ATOM     21  C   UNL     1      34.785 -17.699 -20.636  0.00  0.00    -0.000 C 
ATOM     22  C   UNL     1      34.429 -19.041 -20.755  0.00  0.00    -0.000 C 
ENDBRANCH  16  17
ENDBRANCH  15  16
ENDBRANCH  12  14
BRANCH   3  23
ATOM     23  C   UNL     1      33.497  -6.578 -23.637  0.00  0.00    +0.140 C 
BRANCH  23  24
ATOM     24  C   UNL     1      32.856  -6.322 -24.975  0.00  0.00    +0.001 C 
ATOM     25  C   UNL     1      33.650  -5.963 -26.055  0.00  0.00    -0.002 C 
ATOM     26  C   UNL     1      31.481  -6.450 -25.110  0.00  0.00    -0.002 C 
ATOM     27  C   UNL     1      33.057  -5.727 -27.295  0.00  0.00    +0.006 C 
ATOM     28  C   UNL     1      30.887  -6.213 -26.350  0.00  0.00    +0.006 C 
ATOM     29  C   UNL     1      31.675  -5.851 -27.442  0.00  0.00    +0.075 C 
BRANCH  29  31
ATOM     30  O   UNL     1      30.326  -4.646 -29.008  0.00  0.00    -0.245 OA
ATOM     31  C   UNL     1      31.056  -5.605 -28.736  0.00  0.00    +0.338 C 
BRANCH  31  32
ATOM     32  O   UNL     1      31.364  -6.563 -29.652  0.00  0.00    -0.477 OA
ATOM     33  H   UNL     1      31.058  -7.441 -29.532  0.00  0.00    +0.295 HD
ENDBRANCH  31  32
ENDBRANCH  29  31
ENDBRANCH  23  24
ENDBRANCH   3  23
TORSDOF 7
ENDMDL
MODEL 5
REMARK VINA RESULT:     -11.1      2.879      6.251
REMARK  Name = 10224181
REMARK  7 active torsions:
REMARK  status: ('A' for Active; 'I' for Inactive)
REMARK    1  A    between atoms: N_3  and  C_23
REMARK    2  A    between atoms: C_12  and  C_14
REMARK    3  A    between atoms: C_15  and  C_16
REMARK    4  A    between atoms: C_16  and  C_17
REMARK    5  A    between atoms: C_23  and  C_24
REMARK    6  A    between atoms: C_29  and  C_31
REMARK    7  A    between atoms: C_31  and  O_32
REMARK                            x       y       z     vdW  Elec       q    Type
REMARK                         _______ _______ _______ _____ _____    ______ ____
ROOT
ATOM      1  O   UNL     1      31.626 -23.675 -15.851  0.00  0.00    -0.267 OA
ATOM      2  O   UNL     1      33.231 -24.073 -11.507  0.00  0.00    -0.246 OA
ATOM      3  N   UNL     1      32.406 -23.889 -13.662  0.00  0.00    -0.244 N 
ATOM      4  N   UNL     1      34.550 -23.010 -13.087  0.00  0.00    -0.279 N 
ATOM      5  C   UNL     1      34.730 -22.560 -14.429  0.00  0.00    +0.069 A 
ATOM      6  C   UNL     1      33.732 -22.786 -15.379  0.00  0.00    +0.073 A 
ATOM      7  C   UNL     1      32.493 -23.485 -15.000  0.00  0.00    +0.266 A 
ATOM      8  C   UNL     1      33.390 -23.682 -12.669  0.00  0.00    +0.334 A 
ATOM      9  C   UNL     1      33.889 -22.350 -16.705  0.00  0.00    +0.014 C 
ATOM     10  C   UNL     1      35.895 -21.887 -14.840  0.00  0.00    +0.018 C 
ATOM     11  C   UNL     1      35.612 -22.762 -12.113  0.00  0.00    +0.135 C 
ATOM     12  C   UNL     1      35.050 -21.686 -17.091  0.00  0.00    +0.042 C 
ATOM     13  C   UNL     1      36.052 -21.454 -16.158  0.00  0.00    +0.010 C 
ENDROOT
BRANCH  12  14
ATOM     14  C   UNL     1      35.208 -21.244 -18.440  0.00  0.00    -0.064 C 
ATOM     15  C   UNL     1      35.343 -20.875 -19.579  0.00  0.00    -0.082 C 
BRANCH  15  16
ATOM     16  C   UNL     1      35.508 -20.428 -20.967  0.00  0.00    +0.103 C 
BRANCH  16  17
ATOM     17  C   UNL     1      34.888 -19.074 -21.201  0.00  0.00    -0.009 C 
ATOM     18  C   UNL     1      35.236 -18.012 -20.379  0.00  0.00    -0.003 C 
ATOM     19  C   UNL     1      33.978 -18.911 -22.236  0.00  0.00    -0.003 C 
ATOM     20  C   UNL     1      34.663 -16.760 -20.596  0.00  0.00    -0.000 C 
ATOM     21  C   UNL     1      33.404 -17.658 -22.453  0.00  0.00    -0.000 C 
ATOM     22  C   UNL     1      33.746 -16.583 -21.633  0.00  0.00    -0.000 C 
ENDBRANCH  16  17
ENDBRANCH  15  16
ENDBRANCH  12  14
BRANCH   3  23
ATOM     23  C   UNL     1      31.188 -24.586 -13.256  0.00  0.00    +0.140 C 
BRANCH  23  24
ATOM     24  C   UNL     1      29.963 -23.994 -13.897  0.00  0.00    +0.001 C 
ATOM     25  C   UNL     1      29.110 -24.812 -14.627  0.00  0.00    -0.002 C 
ATOM     26  C   UNL     1      29.700 -22.639 -13.751  0.00  0.00    -0.002 C 
ATOM     27  C   UNL     1      27.974 -24.264 -15.221  0.00  0.00    +0.006 C 
ATOM     28  C   UNL     1      28.564 -22.090 -14.345  0.00  0.00    +0.006 C 
ATOM     29  C   UNL     1      27.701 -22.903 -15.081  0.00  0.00    +0.075 C 
BRANCH  29  31
ATOM     30  O   UNL     1      26.351 -22.168 -16.914  0.00  0.00    -0.245 OA
ATOM     31  C   UNL     1      26.515 -22.331 -15.701  0.00  0.00    +0.338 C 
BRANCH  31  32
ATOM     32  O   UNL     1      25.569 -21.978 -14.788  0.00  0.00    -0.477 OA
ATOM     33  H   UNL     1      25.196 -22.629 -14.227  0.00  0.00    +0.295 HD
ENDBRANCH  31  32
ENDBRANCH  29  31
ENDBRANCH  23  24
ENDBRANCH   3  23
TORSDOF 7
ENDMDL
MODEL 6
REMARK VINA RESULT:     -11.0      7.239     13.256
REMARK  Name = 10224181
REMARK  7 active torsions:
REMARK  status: ('A' for Active; 'I' for Inactive)
REMARK    1  A    between atoms: N_3  and  C_23
REMARK    2  A    between atoms: C_12  and  C_14
REMARK    3  A    between atoms: C_15  and  C_16
REMARK    4  A    between atoms: C_16  and  C_17
REMARK    5  A    between atoms: C_23  and  C_24
REMARK    6  A    between atoms: C_29  and  C_31
REMARK    7  A    between atoms: C_31  and  O_32
REMARK                            x       y       z     vdW  Elec       q    Type
REMARK                         _______ _______ _______ _____ _____    ______ ____
ROOT
ATOM      1  O   UNL     1      34.284 -13.159 -22.317  0.00  0.00    -0.267 OA
ATOM      2  O   UNL     1      31.679 -12.540 -26.116  0.00  0.00    -0.246 OA
ATOM      3  N   UNL     1      32.979 -12.818 -24.222  0.00  0.00    -0.244 N 
ATOM      4  N   UNL     1      32.076 -14.700 -25.380  0.00  0.00    -0.279 N 
ATOM      5  C   UNL     1      32.684 -15.578 -24.435  0.00  0.00    +0.069 A 
ATOM      6  C   UNL     1      33.441 -15.056 -23.385  0.00  0.00    +0.073 A 
ATOM      7  C   UNL     1      33.613 -13.600 -23.248  0.00  0.00    +0.266 A 
ATOM      8  C   UNL     1      32.205 -13.304 -25.299  0.00  0.00    +0.334 A 
ATOM      9  C   UNL     1      34.047 -15.904 -22.444  0.00  0.00    +0.014 C 
ATOM     10  C   UNL     1      32.549 -16.976 -24.522  0.00  0.00    +0.018 C 
ATOM     11  C   UNL     1      31.289 -15.274 -26.471  0.00  0.00    +0.135 C 
ATOM     12  C   UNL     1      33.902 -17.284 -22.548  0.00  0.00    +0.042 C 
ATOM     13  C   UNL     1      33.152 -17.820 -23.587  0.00  0.00    +0.010 C 
ENDROOT
BRANCH  12  14
ATOM     14  C   UNL     1      34.520 -18.145 -21.590  0.00  0.00    -0.064 C 
ATOM     15  C   UNL     1      35.039 -18.870 -20.779  0.00  0.00    -0.082 C 
BRANCH  15  16
ATOM     16  C   UNL     1      35.669 -19.750 -19.788  0.00  0.00    +0.103 C 
BRANCH  16  17
ATOM     17  C   UNL     1      34.655 -20.590 -19.055  0.00  0.00    -0.009 C 
ATOM     18  C   UNL     1      33.323 -20.543 -19.440  0.00  0.00    -0.003 C 
ATOM     19  C   UNL     1      35.070 -21.397 -18.006  0.00  0.00    -0.003 C 
ATOM     20  C   UNL     1      32.386 -21.321 -18.761  0.00  0.00    -0.000 C 
ATOM     21  C   UNL     1      34.132 -22.175 -17.327  0.00  0.00    -0.000 C 
ATOM     22  C   UNL     1      32.790 -22.137 -17.704  0.00  0.00    -0.000 C 
ENDBRANCH  16  17
ENDBRANCH  15  16
ENDBRANCH  12  14
BRANCH   3  23
ATOM     23  C   UNL     1      33.131 -11.369 -24.113  0.00  0.00    +0.140 C 
BRANCH  23  24
ATOM     24  C   UNL     1      32.431 -10.822 -22.898  0.00  0.00    +0.001 C 
ATOM     25  C   UNL     1      32.377  -9.448 -22.702  0.00  0.00    -0.002 C 
ATOM     26  C   UNL     1      31.848 -11.696 -21.992  0.00  0.00    -0.002 C 
ATOM     27  C   UNL     1      31.728  -8.940 -21.577  0.00  0.00    +0.006 C 
ATOM     28  C   UNL     1      31.199 -11.188 -20.867  0.00  0.00    +0.006 C 
ATOM     29  C   UNL     1      31.139  -9.810 -20.659  0.00  0.00    +0.075 C 
BRANCH  29  31
ATOM     30  O   UNL     1      29.658  -9.902 -18.783  0.00  0.00    -0.245 OA
ATOM     31  C   UNL     1      30.462  -9.281 -19.486  0.00  0.00    +0.338 C 
BRANCH  31  32
ATOM     32  O   UNL     1      30.806  -7.990 -19.224  0.00  0.00    -0.477 OA
ATOM     33  H   UNL     1      30.219  -7.295 -19.448  0.00  0.00    +0.295 HD
ENDBRANCH  31  32
ENDBRANCH  29  31
ENDBRANCH  23  24
ENDBRANCH   3  23
TORSDOF 7
ENDMDL
MODEL 7
REMARK VINA RESULT:     -10.9     10.648     16.518
REMARK  Name = 10224181
REMARK  7 active torsions:
REMARK  status: ('A' for Active; 'I' for Inactive)
REMARK    1  A    between atoms: N_3  and  C_23
REMARK    2  A    between atoms: C_12  and  C_14
REMARK    3  A    between atoms: C_15  and  C_16
REMARK    4  A    between atoms: C_16  and  C_17
REMARK    5  A    between atoms: C_23  and  C_24
REMARK    6  A    between atoms: C_29  and  C_31
REMARK    7  A    between atoms: C_31  and  O_32
REMARK                            x       y       z     vdW  Elec       q    Type
REMARK                         _______ _______ _______ _____ _____    ______ ____
ROOT
ATOM      1  O   UNL     1      33.076  -8.542 -23.096  0.00  0.00    -0.267 OA
ATOM      2  O   UNL     1      30.768  -6.796 -19.459  0.00  0.00    -0.246 OA
ATOM      3  N   UNL     1      31.926  -7.637 -21.279  0.00  0.00    -0.244 N 
ATOM      4  N   UNL     1      30.785  -9.092 -19.768  0.00  0.00    -0.279 N 
ATOM      5  C   UNL     1      31.207 -10.221 -20.530  0.00  0.00    +0.069 A 
ATOM      6  C   UNL     1      31.991 -10.038 -21.671  0.00  0.00    +0.073 A 
ATOM      7  C   UNL     1      32.386  -8.683 -22.089  0.00  0.00    +0.266 A 
ATOM      8  C   UNL     1      31.131  -7.777 -20.118  0.00  0.00    +0.334 A 
ATOM      9  C   UNL     1      32.418 -11.137 -22.435  0.00  0.00    +0.014 C 
ATOM     10  C   UNL     1      30.857 -11.536 -20.172  0.00  0.00    +0.018 C 
ATOM     11  C   UNL     1      29.964  -9.313 -18.578  0.00  0.00    +0.135 C 
ATOM     12  C   UNL     1      32.060 -12.430 -22.064  0.00  0.00    +0.042 C 
ATOM     13  C   UNL     1      31.280 -12.629 -20.932  0.00  0.00    +0.010 C 
ENDROOT
BRANCH  12  14
ATOM     14  C   UNL     1      32.494 -13.546 -22.842  0.00  0.00    -0.064 C 
ATOM     15  C   UNL     1      32.859 -14.486 -23.502  0.00  0.00    -0.082 C 
BRANCH  15  16
ATOM     16  C   UNL     1      33.300 -15.630 -24.308  0.00  0.00    +0.103 C 
BRANCH  16  17
ATOM     17  C   UNL     1      33.708 -16.800 -23.450  0.00  0.00    -0.009 C 
ATOM     18  C   UNL     1      34.360 -16.569 -22.247  0.00  0.00    -0.003 C 
ATOM     19  C   UNL     1      33.424 -18.089 -23.875  0.00  0.00    -0.003 C 
ATOM     20  C   UNL     1      34.737 -17.652 -21.453  0.00  0.00    -0.000 C 
ATOM     21  C   UNL     1      33.801 -19.172 -23.081  0.00  0.00    -0.000 C 
ATOM     22  C   UNL     1      34.457 -18.953 -21.870  0.00  0.00    -0.000 C 
ENDBRANCH  16  17
ENDBRANCH  15  16
ENDBRANCH  12  14
BRANCH   3  23
ATOM     23  C   UNL     1      32.301  -6.280 -21.667  0.00  0.00    +0.140 C 
BRANCH  23  24
ATOM     24  C   UNL     1      31.813  -5.937 -23.049  0.00  0.00    +0.001 C 
ATOM     25  C   UNL     1      30.492  -6.193 -23.390  0.00  0.00    -0.002 C 
ATOM     26  C   UNL     1      32.690  -5.369 -23.962  0.00  0.00    -0.002 C 
ATOM     27  C   UNL     1      30.039  -5.874 -24.670  0.00  0.00    +0.006 C 
ATOM     28  C   UNL     1      32.238  -5.050 -25.242  0.00  0.00    +0.006 C 
ATOM     29  C   UNL     1      30.912  -5.303 -25.597  0.00  0.00    +0.075 C 
BRANCH  29  31
ATOM     30  O   UNL     1      30.610  -5.659 -27.943  0.00  0.00    -0.245 OA
ATOM     31  C   UNL     1      30.440  -4.970 -26.932  0.00  0.00    +0.338 C 
BRANCH  31  32
ATOM     32  O   UNL     1      29.771  -3.786 -26.968  0.00  0.00    -0.477 OA
ATOM     33  H   UNL     1      29.393  -3.486 -27.771  0.00  0.00    +0.295 HD
ENDBRANCH  31  32
ENDBRANCH  29  31
ENDBRANCH  23  24
ENDBRANCH   3  23
TORSDOF 7
ENDMDL
MODEL 8
REMARK VINA RESULT:     -10.8      8.155     14.212
REMARK  Name = 10224181
REMARK  7 active torsions:
REMARK  status: ('A' for Active; 'I' for Inactive)
REMARK    1  A    between atoms: N_3  and  C_23
REMARK    2  A    between atoms: C_12  and  C_14
REMARK    3  A    between atoms: C_15  and  C_16
REMARK    4  A    between atoms: C_16  and  C_17
REMARK    5  A    between atoms: C_23  and  C_24
REMARK    6  A    between atoms: C_29  and  C_31
REMARK    7  A    between atoms: C_31  and  O_32
REMARK                            x       y       z     vdW  Elec       q    Type
REMARK                         _______ _______ _______ _____ _____    ______ ____
ROOT
ATOM      1  O   UNL     1      33.134 -13.073 -20.556  0.00  0.00    -0.267 OA
ATOM      2  O   UNL     1      31.962 -11.385 -24.725  0.00  0.00    -0.246 OA
ATOM      3  N   UNL     1      32.537 -12.199 -22.636  0.00  0.00    -0.244 N 
ATOM      4  N   UNL     1      32.779 -13.549 -24.590  0.00  0.00    -0.279 N 
ATOM      5  C   UNL     1      33.278 -14.621 -23.793  0.00  0.00    +0.069 A 
ATOM      6  C   UNL     1      33.402 -14.463 -22.412  0.00  0.00    +0.073 A 
ATOM      7  C   UNL     1      33.017 -13.193 -21.774  0.00  0.00    +0.266 A 
ATOM      8  C   UNL     1      32.396 -12.316 -24.037  0.00  0.00    +0.334 A 
ATOM      9  C   UNL     1      33.891 -15.506 -21.609  0.00  0.00    +0.014 C 
ATOM     10  C   UNL     1      33.659 -15.853 -24.356  0.00  0.00    +0.018 C 
ATOM     11  C   UNL     1      32.660 -13.741 -26.036  0.00  0.00    +0.135 C 
ATOM     12  C   UNL     1      34.263 -16.718 -22.185  0.00  0.00    +0.042 C 
ATOM     13  C   UNL     1      34.145 -16.891 -23.558  0.00  0.00    +0.010 C 
ENDROOT
BRANCH  12  14
ATOM     14  C   UNL     1      34.760 -17.778 -21.367  0.00  0.00    -0.064 C 
ATOM     15  C   UNL     1      35.176 -18.675 -20.678  0.00  0.00    -0.082 C 
BRANCH  15  16
ATOM     16  C   UNL     1      35.681 -19.769 -19.840  0.00  0.00    +0.103 C 
BRANCH  16  17
ATOM     17  C   UNL     1      34.563 -20.534 -19.180  0.00  0.00    -0.009 C 
ATOM     18  C   UNL     1      34.862 -21.470 -18.200  0.00  0.00    -0.003 C 
ATOM     19  C   UNL     1      33.251 -20.290 -19.561  0.00  0.00    -0.003 C 
ATOM     20  C   UNL     1      33.827 -22.177 -17.589  0.00  0.00    -0.000 C 
ATOM     21  C   UNL     1      32.217 -20.998 -18.950  0.00  0.00    -0.000 C 
ATOM     22  C   UNL     1      32.504 -21.941 -17.964  0.00  0.00    -0.000 C 
ENDBRANCH  16  17
ENDBRANCH  15  16
ENDBRANCH  12  14
BRANCH   3  23
ATOM     23  C   UNL     1      32.147 -10.927 -22.032  0.00  0.00    +0.140 C 
BRANCH  23  24
ATOM     24  C   UNL     1      32.641  -9.752 -22.832  0.00  0.00    +0.001 C 
ATOM     25  C   UNL     1      31.795  -8.673 -23.053  0.00  0.00    -0.002 C 
ATOM     26  C   UNL     1      33.934  -9.762 -23.336  0.00  0.00    -0.002 C 
ATOM     27  C   UNL     1      32.253  -7.583 -23.794  0.00  0.00    +0.006 C 
ATOM     28  C   UNL     1      34.391  -8.672 -24.076  0.00  0.00    +0.006 C 
ATOM     29  C   UNL     1      33.551  -7.583 -24.306  0.00  0.00    +0.075 C 
BRANCH  29  31
ATOM     30  O   UNL     1      34.296  -6.462 -26.283  0.00  0.00    -0.245 OA
ATOM     31  C   UNL     1      34.028  -6.446 -25.078  0.00  0.00    +0.338 C 
BRANCH  31  32
ATOM     32  O   UNL     1      34.159  -5.321 -24.322  0.00  0.00    -0.477 OA
ATOM     33  H   UNL     1      34.132  -5.380 -23.387  0.00  0.00    +0.295 HD
ENDBRANCH  31  32
ENDBRANCH  29  31
ENDBRANCH  23  24
ENDBRANCH   3  23
TORSDOF 7
ENDMDL
MODEL 9
REMARK VINA RESULT:     -10.7      4.533     10.854
REMARK  Name = 10224181
REMARK  7 active torsions:
REMARK  status: ('A' for Active; 'I' for Inactive)
REMARK    1  A    between atoms: N_3  and  C_23
REMARK    2  A    between atoms: C_12  and  C_14
REMARK    3  A    between atoms: C_15  and  C_16
REMARK    4  A    between atoms: C_16  and  C_17
REMARK    5  A    between atoms: C_23  and  C_24
REMARK    6  A    between atoms: C_29  and  C_31
REMARK    7  A    between atoms: C_31  and  O_32
REMARK                            x       y       z     vdW  Elec       q    Type
REMARK                         _______ _______ _______ _____ _____    ______ ____
ROOT
ATOM      1  O   UNL     1      36.722 -19.024 -19.997  0.00  0.00    -0.267 OA
ATOM      2  O   UNL     1      32.653 -18.664 -22.215  0.00  0.00    -0.246 OA
ATOM      3  N   UNL     1      34.692 -18.824 -21.130  0.00  0.00    -0.244 N 
ATOM      4  N   UNL     1      32.788 -20.038 -20.354  0.00  0.00    -0.279 N 
ATOM      5  C   UNL     1      33.567 -20.590 -19.294  0.00  0.00    +0.069 A 
ATOM      6  C   UNL     1      34.914 -20.246 -19.168  0.00  0.00    +0.073 A 
ATOM      7  C   UNL     1      35.534 -19.314 -20.125  0.00  0.00    +0.266 A 
ATOM      8  C   UNL     1      33.325 -19.145 -21.295  0.00  0.00    +0.334 A 
ATOM      9  C   UNL     1      35.698 -20.778 -18.131  0.00  0.00    +0.014 C 
ATOM     10  C   UNL     1      33.021 -21.483 -18.355  0.00  0.00    +0.018 C 
ATOM     11  C   UNL     1      31.379 -20.416 -20.464  0.00  0.00    +0.135 C 
ATOM     12  C   UNL     1      35.139 -21.661 -17.212  0.00  0.00    +0.042 C 
ATOM     13  C   UNL     1      33.800 -22.013 -17.324  0.00  0.00    +0.010 C 
ENDROOT
BRANCH  12  14
ATOM     14  C   UNL     1      35.938 -22.201 -16.158  0.00  0.00    -0.064 C 
ATOM     15  C   UNL     1      36.613 -22.659 -15.272  0.00  0.00    -0.082 C 
BRANCH  15  16
ATOM     16  C   UNL     1      37.435 -23.221 -14.194  0.00  0.00    +0.103 C 
BRANCH  16  17
ATOM     17  C   UNL     1      36.595 -23.713 -13.043  0.00  0.00    -0.009 C 
ATOM     18  C   UNL     1      35.422 -23.047 -12.720  0.00  0.00    -0.003 C 
ATOM     19  C   UNL     1      37.008 -24.826 -12.325  0.00  0.00    -0.003 C 
ATOM     20  C   UNL     1      34.644 -23.504 -11.656  0.00  0.00    -0.000 C 
ATOM     21  C   UNL     1      36.231 -25.282 -11.260  0.00  0.00    -0.000 C 
ATOM     22  C   UNL     1      35.049 -24.621 -10.926  0.00  0.00    -0.000 C 
ENDBRANCH  16  17
ENDBRANCH  15  16
ENDBRANCH  12  14
BRANCH   3  23
ATOM     23  C   UNL     1      35.278 -17.896 -22.095  0.00  0.00    +0.140 C 
BRANCH  23  24
ATOM     24  C   UNL     1      34.572 -16.567 -22.095  0.00  0.00    +0.001 C 
ATOM     25  C   UNL     1      34.228 -15.976 -23.303  0.00  0.00    -0.002 C 
ATOM     26  C   UNL     1      34.274 -15.951 -20.887  0.00  0.00    -0.002 C 
ATOM     27  C   UNL     1      33.574 -14.744 -23.303  0.00  0.00    +0.006 C 
ATOM     28  C   UNL     1      33.620 -14.719 -20.887  0.00  0.00    +0.006 C 
ATOM     29  C   UNL     1      33.270 -14.115 -22.096  0.00  0.00    +0.075 C 
BRANCH  29  31
ATOM     30  O   UNL     1      31.607 -12.542 -21.402  0.00  0.00    -0.245 OA
ATOM     31  C   UNL     1      32.588 -12.830 -22.095  0.00  0.00    +0.338 C 
BRANCH  31  32
ATOM     32  O   UNL     1      33.148 -11.943 -22.961  0.00  0.00    -0.477 OA
ATOM     33  H   UNL     1      33.591 -12.252 -23.727  0.00  0.00    +0.295 HD
ENDBRANCH  31  32
ENDBRANCH  29  31
ENDBRANCH  23  24
ENDBRANCH   3  23
TORSDOF 7
ENDMDL
