MODEL 1
REMARK VINA RESULT:     -11.6      0.000      0.000
REMARK  Name = 24755471
REMARK  13 active torsions:
REMARK  status: ('A' for Active; 'I' for Inactive)
REMARK    1  A    between atoms: C_1  and  S_11
REMARK    2  A    between atoms: C_9  and  O_27
REMARK    3  A    between atoms: S_11  and  N_14
REMARK    4  A    between atoms: N_14  and  C_16
REMARK    5  A    between atoms: C_16  and  C_18
REMARK    6  A    between atoms: C_16  and  C_21
REMARK    7  A    between atoms: C_18  and  O_19
REMARK    8  A    between atoms: C_21  and  C_22
REMARK    9  A    between atoms: C_22  and  C_24
REMARK   10  A    between atoms: C_24  and  O_25
REMARK   11  A    between atoms: O_27  and  C_28
REMARK   12  A    between atoms: C_28  and  C_29
REMARK   13  A    between atoms: C_34  and  C_36
REMARK                            x       y       z     vdW  Elec       q    Type
REMARK                         _______ _______ _______ _____ _____    ______ ____
ROOT
ATOM      1  C   UNL     1      34.726 -22.791 -15.679  0.00  0.00    +0.122 C 
ATOM      2  C   UNL     1      33.546 -21.811 -17.568  0.00  0.00    +0.002 C 
ATOM      3  C   UNL     1      33.550 -22.601 -16.408  0.00  0.00    +0.020 C 
ATOM      4  C   UNL     1      34.751 -21.204 -17.997  0.00  0.00    +0.003 C 
ATOM      5  C   UNL     1      35.910 -22.194 -16.101  0.00  0.00    +0.020 C 
ATOM      6  C   UNL     1      35.925 -21.406 -17.252  0.00  0.00    +0.001 C 
ATOM      7  C   UNL     1      34.747 -20.413 -19.158  0.00  0.00    +0.037 C 
ATOM      8  C   UNL     1      32.373 -21.609 -18.314  0.00  0.00    +0.003 C 
ATOM      9  C   UNL     1      33.572 -20.224 -19.886  0.00  0.00    +0.139 C 
ATOM     10  C   UNL     1      32.387 -20.821 -19.465  0.00  0.00    +0.037 C 
ENDROOT
BRANCH   1  11
ATOM     11  S   UNL     1      34.709 -23.789 -14.221  0.00  0.00    +0.061 S 
ATOM     12  O   UNL     1      33.678 -23.275 -13.340  0.00  0.00    -0.153 OA
ATOM     13  O   UNL     1      34.674 -25.172 -14.656  0.00  0.00    -0.153 OA
BRANCH  11  14
ATOM     14  N   UNL     1      36.238 -23.460 -13.554  0.00  0.00    -0.170 NA
ATOM     15  H   UNL     1      36.138 -22.614 -12.994  0.00  0.00    +0.149 HD
BRANCH  14  16
ATOM     16  C   UNL     1      36.901 -24.466 -12.696  0.00  0.00    +0.174 C 
BRANCH  16  18
ATOM     17  O   UNL     1      39.293 -24.642 -13.104  0.00  0.00    -0.249 OA
ATOM     18  C   UNL     1      38.145 -24.942 -13.409  0.00  0.00    +0.330 C 
BRANCH  18  19
ATOM     19  O   UNL     1      37.855 -25.776 -14.441  0.00  0.00    -0.479 OA
ATOM     20  H   UNL     1      38.421 -25.812 -15.187  0.00  0.00    +0.295 HD
ENDBRANCH  18  19
ENDBRANCH  16  18
BRANCH  16  21
ATOM     21  C   UNL     1      37.148 -23.895 -11.295  0.00  0.00    +0.040 C 
BRANCH  21  22
ATOM     22  C   UNL     1      35.984 -23.133 -10.655  0.00  0.00    +0.111 C 
BRANCH  22  24
ATOM     23  O   UNL     1      34.998 -24.149  -8.697  0.00  0.00    -0.250 OA
ATOM     24  C   UNL     1      35.011 -24.015  -9.914  0.00  0.00    +0.314 C 
BRANCH  24  25
ATOM     25  O   UNL     1      34.154 -24.664 -10.743  0.00  0.00    -0.480 OA
ATOM     26  H   UNL     1      33.445 -24.198 -11.141  0.00  0.00    +0.295 HD
ENDBRANCH  24  25
ENDBRANCH  22  24
ENDBRANCH  21  22
ENDBRANCH  16  21
ENDBRANCH  14  16
ENDBRANCH  11  14
ENDBRANCH   1  11
BRANCH   9  27
ATOM     27  O   UNL     1      33.584 -19.454 -21.008  0.00  0.00    -0.471 OA
BRANCH  27  28
ATOM     28  C   UNL     1      34.565 -18.420 -21.075  0.00  0.00    +0.232 C 
BRANCH  28  29
ATOM     29  C   UNL     1      34.141 -17.408 -22.099  0.00  0.00    +0.021 C 
ATOM     30  C   UNL     1      34.196 -16.047 -21.798  0.00  0.00    -0.000 C 
ATOM     31  C   UNL     1      33.692 -17.828 -23.351  0.00  0.00    -0.000 C 
ATOM     32  C   UNL     1      33.802 -15.107 -22.749  0.00  0.00    +0.010 C 
ATOM     33  C   UNL     1      33.298 -16.888 -24.302  0.00  0.00    +0.010 C 
ATOM     34  C   UNL     1      33.352 -15.527 -24.001  0.00  0.00    +0.068 C 
BRANCH  34  36
ATOM     35  N   UNL     1      32.622 -13.779 -25.767  0.00  0.00    -0.191 NA
ATOM     36  C   UNL     1      32.949 -14.563 -24.976  0.00  0.00    +0.100 C 
ENDBRANCH  34  36
ENDBRANCH  28  29
ENDBRANCH  27  28
ENDBRANCH   9  27
TORSDOF 13
ENDMDL
MODEL 2
REMARK VINA RESULT:     -11.6      1.629      3.213
REMARK  Name = 24755471
REMARK  13 active torsions:
REMARK  status: ('A' for Active; 'I' for Inactive)
REMARK    1  A    between atoms: C_1  and  S_11
REMARK    2  A    between atoms: C_9  and  O_27
REMARK    3  A    between atoms: S_11  and  N_14
REMARK    4  A    between atoms: N_14  and  C_16
REMARK    5  A    between atoms: C_16  and  C_18
REMARK    6  A    between atoms: C_16  and  C_21
REMARK    7  A    between atoms: C_18  and  O_19
REMARK    8  A    between atoms: C_21  and  C_22
REMARK    9  A    between atoms: C_22  and  C_24
REMARK   10  A    between atoms: C_24  and  O_25
REMARK   11  A    between atoms: O_27  and  C_28
REMARK   12  A    between atoms: C_28  and  C_29
REMARK   13  A    between atoms: C_34  and  C_36
REMARK                            x       y       z     vdW  Elec       q    Type
REMARK                         _______ _______ _______ _____ _____    ______ ____
ROOT
ATOM      1  C   UNL     1      32.240 -23.304 -14.646  0.00  0.00    +0.122 C 
ATOM      2  C   UNL     1      33.539 -22.301 -16.443  0.00  0.00    +0.002 C 
ATOM      3  C   UNL     1      33.470 -22.937 -15.192  0.00  0.00    +0.020 C 
ATOM      4  C   UNL     1      32.342 -22.036 -17.150  0.00  0.00    +0.003 C 
ATOM      5  C   UNL     1      31.064 -23.042 -15.342  0.00  0.00    +0.020 C 
ATOM      6  C   UNL     1      31.112 -22.412 -16.586  0.00  0.00    +0.001 C 
ATOM      7  C   UNL     1      32.411 -21.400 -18.401  0.00  0.00    +0.037 C 
ATOM      8  C   UNL     1      34.769 -21.924 -17.007  0.00  0.00    +0.003 C 
ATOM      9  C   UNL     1      33.641 -21.033 -18.946  0.00  0.00    +0.139 C 
ATOM     10  C   UNL     1      34.818 -21.294 -18.251  0.00  0.00    +0.037 C 
ENDROOT
BRANCH   1  11
ATOM     11  S   UNL     1      32.176 -24.103 -13.070  0.00  0.00    +0.061 S 
ATOM     12  O   UNL     1      31.942 -23.086 -12.064  0.00  0.00    -0.153 OA
ATOM     13  O   UNL     1      31.266 -25.224 -13.202  0.00  0.00    -0.153 OA
BRANCH  11  14
ATOM     14  N   UNL     1      33.762 -24.696 -12.915  0.00  0.00    -0.170 NA
ATOM     15  H   UNL     1      34.145 -24.761 -13.858  0.00  0.00    +0.149 HD
BRANCH  14  16
ATOM     16  C   UNL     1      34.751 -23.956 -12.101  0.00  0.00    +0.174 C 
BRANCH  16  18
ATOM     17  O   UNL     1      34.320 -24.233  -9.724  0.00  0.00    -0.249 OA
ATOM     18  C   UNL     1      34.848 -24.631 -10.754  0.00  0.00    +0.330 C 
BRANCH  18  19
ATOM     19  O   UNL     1      35.586 -25.770 -10.806  0.00  0.00    -0.479 OA
ATOM     20  H   UNL     1      35.791 -26.232 -10.017  0.00  0.00    +0.295 HD
ENDBRANCH  18  19
ENDBRANCH  16  18
BRANCH  16  21
ATOM     21  C   UNL     1      36.081 -23.837 -12.854  0.00  0.00    +0.040 C 
BRANCH  21  22
ATOM     22  C   UNL     1      36.212 -24.658 -14.140  0.00  0.00    +0.111 C 
BRANCH  22  24
ATOM     23  O   UNL     1      37.712 -26.527 -13.834  0.00  0.00    -0.250 OA
ATOM     24  C   UNL     1      36.565 -26.105 -13.906  0.00  0.00    +0.314 C 
BRANCH  24  25
ATOM     25  O   UNL     1      35.471 -26.902 -13.801  0.00  0.00    -0.480 OA
ATOM     26  H   UNL     1      34.626 -26.520 -13.661  0.00  0.00    +0.295 HD
ENDBRANCH  24  25
ENDBRANCH  22  24
ENDBRANCH  21  22
ENDBRANCH  16  21
ENDBRANCH  14  16
ENDBRANCH  11  14
ENDBRANCH   1  11
BRANCH   9  27
ATOM     27  O   UNL     1      33.691 -20.420 -20.160  0.00  0.00    -0.471 OA
BRANCH  27  28
ATOM     28  C   UNL     1      34.783 -19.532 -20.396  0.00  0.00    +0.232 C 
BRANCH  28  29
ATOM     29  C   UNL     1      34.389 -18.539 -21.450  0.00  0.00    +0.021 C 
ATOM     30  C   UNL     1      33.870 -18.983 -22.666  0.00  0.00    -0.000 C 
ATOM     31  C   UNL     1      34.544 -17.173 -21.214  0.00  0.00    -0.000 C 
ATOM     32  C   UNL     1      33.505 -18.060 -23.645  0.00  0.00    +0.010 C 
ATOM     33  C   UNL     1      34.179 -16.251 -22.194  0.00  0.00    +0.010 C 
ATOM     34  C   UNL     1      33.660 -16.694 -23.410  0.00  0.00    +0.068 C 
BRANCH  34  36
ATOM     35  N   UNL     1      32.980 -14.982 -25.230  0.00  0.00    -0.191 NA
ATOM     36  C   UNL     1      33.285 -15.749 -24.414  0.00  0.00    +0.100 C 
ENDBRANCH  34  36
ENDBRANCH  28  29
ENDBRANCH  27  28
ENDBRANCH   9  27
TORSDOF 13
ENDMDL
MODEL 3
REMARK VINA RESULT:     -11.5      0.861      2.748
REMARK  Name = 24755471
REMARK  13 active torsions:
REMARK  status: ('A' for Active; 'I' for Inactive)
REMARK    1  A    between atoms: C_1  and  S_11
REMARK    2  A    between atoms: C_9  and  O_27
REMARK    3  A    between atoms: S_11  and  N_14
REMARK    4  A    between atoms: N_14  and  C_16
REMARK    5  A    between atoms: C_16  and  C_18
REMARK    6  A    between atoms: C_16  and  C_21
REMARK    7  A    between atoms: C_18  and  O_19
REMARK    8  A    between atoms: C_21  and  C_22
REMARK    9  A    between atoms: C_22  and  C_24
REMARK   10  A    between atoms: C_24  and  O_25
REMARK   11  A    between atoms: O_27  and  C_28
REMARK   12  A    between atoms: C_28  and  C_29
REMARK   13  A    between atoms: C_34  and  C_36
REMARK                            x       y       z     vdW  Elec       q    Type
REMARK                         _______ _______ _______ _____ _____    ______ ____
ROOT
ATOM      1  C   UNL     1      34.669 -22.963 -14.912  0.00  0.00    +0.122 C 
ATOM      2  C   UNL     1      33.734 -22.093 -16.983  0.00  0.00    +0.002 C 
ATOM      3  C   UNL     1      33.582 -22.779 -15.768  0.00  0.00    +0.020 C 
ATOM      4  C   UNL     1      35.007 -21.584 -17.336  0.00  0.00    +0.003 C 
ATOM      5  C   UNL     1      35.921 -22.464 -15.260  0.00  0.00    +0.020 C 
ATOM      6  C   UNL     1      36.090 -21.779 -16.464  0.00  0.00    +0.001 C 
ATOM      7  C   UNL     1      35.159 -20.897 -18.552  0.00  0.00    +0.037 C 
ATOM      8  C   UNL     1      32.650 -21.899 -17.856  0.00  0.00    +0.003 C 
ATOM      9  C   UNL     1      34.072 -20.714 -19.406  0.00  0.00    +0.139 C 
ATOM     10  C   UNL     1      32.820 -21.214 -19.060  0.00  0.00    +0.037 C 
ENDROOT
BRANCH   1  11
ATOM     11  S   UNL     1      34.456 -23.831 -13.387  0.00  0.00    +0.061 S 
ATOM     12  O   UNL     1      33.104 -23.589 -12.921  0.00  0.00    -0.153 OA
ATOM     13  O   UNL     1      34.922 -25.187 -13.604  0.00  0.00    -0.153 OA
BRANCH  11  14
ATOM     14  N   UNL     1      35.556 -23.026 -12.371  0.00  0.00    -0.170 NA
ATOM     15  H   UNL     1      35.037 -22.282 -11.906  0.00  0.00    +0.149 HD
BRANCH  14  16
ATOM     16  C   UNL     1      36.269 -23.777 -11.313  0.00  0.00    +0.174 C 
BRANCH  16  18
ATOM     17  O   UNL     1      35.334 -23.700  -9.069  0.00  0.00    -0.249 OA
ATOM     18  C   UNL     1      35.276 -24.105 -10.223  0.00  0.00    +0.330 C 
BRANCH  18  19
ATOM     19  O   UNL     1      34.271 -24.902 -10.669  0.00  0.00    -0.479 OA
ATOM     20  H   UNL     1      33.519 -25.052 -10.132  0.00  0.00    +0.295 HD
ENDBRANCH  18  19
ENDBRANCH  16  18
BRANCH  16  21
ATOM     21  C   UNL     1      36.985 -24.993 -11.911  0.00  0.00    +0.040 C 
BRANCH  21  22
ATOM     22  C   UNL     1      38.241 -24.705 -12.738  0.00  0.00    +0.111 C 
BRANCH  22  24
ATOM     23  O   UNL     1      39.536 -25.762 -14.483  0.00  0.00    -0.250 OA
ATOM     24  C   UNL     1      38.509 -25.723 -13.818  0.00  0.00    +0.314 C 
BRANCH  24  25
ATOM     25  O   UNL     1      37.478 -26.590 -13.989  0.00  0.00    -0.480 OA
ATOM     26  H   UNL     1      36.598 -26.269 -14.026  0.00  0.00    +0.295 HD
ENDBRANCH  24  25
ENDBRANCH  22  24
ENDBRANCH  21  22
ENDBRANCH  16  21
ENDBRANCH  14  16
ENDBRANCH  11  14
ENDBRANCH   1  11
BRANCH   9  27
ATOM     27  O   UNL     1      34.235 -20.044 -20.580  0.00  0.00    -0.471 OA
BRANCH  27  28
ATOM     28  C   UNL     1      34.929 -18.799 -20.526  0.00  0.00    +0.232 C 
BRANCH  28  29
ATOM     29  C   UNL     1      34.423 -17.908 -21.621  0.00  0.00    +0.021 C 
ATOM     30  C   UNL     1      33.920 -18.465 -22.797  0.00  0.00    -0.000 C 
ATOM     31  C   UNL     1      34.456 -16.522 -21.464  0.00  0.00    -0.000 C 
ATOM     32  C   UNL     1      33.449 -17.636 -23.815  0.00  0.00    +0.010 C 
ATOM     33  C   UNL     1      33.985 -15.693 -22.482  0.00  0.00    +0.010 C 
ATOM     34  C   UNL     1      33.482 -16.250 -23.658  0.00  0.00    +0.068 C 
BRANCH  34  36
ATOM     35  N   UNL     1      32.607 -14.712 -25.549  0.00  0.00    -0.191 NA
ATOM     36  C   UNL     1      32.999 -15.401 -24.702  0.00  0.00    +0.100 C 
ENDBRANCH  34  36
ENDBRANCH  28  29
ENDBRANCH  27  28
ENDBRANCH   9  27
TORSDOF 13
ENDMDL
MODEL 4
REMARK VINA RESULT:     -11.3      1.248      3.047
REMARK  Name = 24755471
REMARK  13 active torsions:
REMARK  status: ('A' for Active; 'I' for Inactive)
REMARK    1  A    between atoms: C_1  and  S_11
REMARK    2  A    between atoms: C_9  and  O_27
REMARK    3  A    between atoms: S_11  and  N_14
REMARK    4  A    between atoms: N_14  and  C_16
REMARK    5  A    between atoms: C_16  and  C_18
REMARK    6  A    between atoms: C_16  and  C_21
REMARK    7  A    between atoms: C_18  and  O_19
REMARK    8  A    between atoms: C_21  and  C_22
REMARK    9  A    between atoms: C_22  and  C_24
REMARK   10  A    between atoms: C_24  and  O_25
REMARK   11  A    between atoms: O_27  and  C_28
REMARK   12  A    between atoms: C_28  and  C_29
REMARK   13  A    between atoms: C_34  and  C_36
REMARK                            x       y       z     vdW  Elec       q    Type
REMARK                         _______ _______ _______ _____ _____    ______ ____
ROOT
ATOM      1  C   UNL     1      33.508 -23.070 -15.716  0.00  0.00    +0.122 C 
ATOM      2  C   UNL     1      34.255 -21.708 -17.589  0.00  0.00    +0.002 C 
ATOM      3  C   UNL     1      34.536 -22.463 -16.439  0.00  0.00    +0.020 C 
ATOM      4  C   UNL     1      32.912 -21.566 -18.013  0.00  0.00    +0.003 C 
ATOM      5  C   UNL     1      32.188 -22.930 -16.133  0.00  0.00    +0.020 C 
ATOM      6  C   UNL     1      31.890 -22.183 -17.273  0.00  0.00    +0.001 C 
ATOM      7  C   UNL     1      32.631 -20.811 -19.163  0.00  0.00    +0.037 C 
ATOM      8  C   UNL     1      35.278 -21.090 -18.328  0.00  0.00    +0.003 C 
ATOM      9  C   UNL     1      33.659 -20.205 -19.885  0.00  0.00    +0.139 C 
ATOM     10  C   UNL     1      34.980 -20.344 -19.469  0.00  0.00    +0.037 C 
ENDROOT
BRANCH   1  11
ATOM     11  S   UNL     1      33.884 -24.016 -14.271  0.00  0.00    +0.061 S 
ATOM     12  O   UNL     1      32.696 -24.055 -13.441  0.00  0.00    -0.153 OA
ATOM     13  O   UNL     1      34.500 -25.249 -14.722  0.00  0.00    -0.153 OA
BRANCH  11  14
ATOM     14  N   UNL     1      35.066 -23.052 -13.520  0.00  0.00    -0.170 NA
ATOM     15  H   UNL     1      34.571 -22.309 -13.029  0.00  0.00    +0.149 HD
BRANCH  14  16
ATOM     16  C   UNL     1      36.003 -23.657 -12.548  0.00  0.00    +0.174 C 
BRANCH  16  18
ATOM     17  O   UNL     1      35.388 -25.261 -10.827  0.00  0.00    -0.249 OA
ATOM     18  C   UNL     1      35.195 -24.190 -11.389  0.00  0.00    +0.330 C 
BRANCH  18  19
ATOM     19  O   UNL     1      34.217 -23.329 -11.008  0.00  0.00    -0.479 OA
ATOM     20  H   UNL     1      34.365 -22.735 -10.300  0.00  0.00    +0.295 HD
ENDBRANCH  18  19
ENDBRANCH  16  18
BRANCH  16  21
ATOM     21  C   UNL     1      36.893 -24.697 -13.239  0.00  0.00    +0.040 C 
BRANCH  21  22
ATOM     22  C   UNL     1      38.242 -24.987 -12.576  0.00  0.00    +0.111 C 
BRANCH  22  24
ATOM     23  O   UNL     1      39.528 -26.436 -14.019  0.00  0.00    -0.250 OA
ATOM     24  C   UNL     1      39.343 -25.320 -13.552  0.00  0.00    +0.314 C 
BRANCH  24  25
ATOM     25  O   UNL     1      40.123 -24.250 -13.849  0.00  0.00    -0.480 OA
ATOM     26  H   UNL     1      40.856 -24.351 -14.424  0.00  0.00    +0.295 HD
ENDBRANCH  24  25
ENDBRANCH  22  24
ENDBRANCH  21  22
ENDBRANCH  16  21
ENDBRANCH  14  16
ENDBRANCH  11  14
ENDBRANCH   1  11
BRANCH   9  27
ATOM     27  O   UNL     1      33.370 -19.478 -20.999  0.00  0.00    -0.471 OA
BRANCH  27  28
ATOM     28  C   UNL     1      34.473 -18.943 -21.729  0.00  0.00    +0.232 C 
BRANCH  28  29
ATOM     29  C   UNL     1      34.224 -17.487 -21.996  0.00  0.00    +0.021 C 
ATOM     30  C   UNL     1      34.136 -16.589 -20.933  0.00  0.00    -0.000 C 
ATOM     31  C   UNL     1      34.079 -17.033 -23.307  0.00  0.00    -0.000 C 
ATOM     32  C   UNL     1      33.904 -15.237 -21.181  0.00  0.00    +0.010 C 
ATOM     33  C   UNL     1      33.847 -15.681 -23.555  0.00  0.00    +0.010 C 
ATOM     34  C   UNL     1      33.759 -14.782 -22.492  0.00  0.00    +0.068 C 
BRANCH  34  36
ATOM     35  N   UNL     1      33.330 -12.270 -22.952  0.00  0.00    -0.191 NA
ATOM     36  C   UNL     1      33.522 -13.396 -22.746  0.00  0.00    +0.100 C 
ENDBRANCH  34  36
ENDBRANCH  28  29
ENDBRANCH  27  28
ENDBRANCH   9  27
TORSDOF 13
ENDMDL
MODEL 5
REMARK VINA RESULT:     -11.1      2.899      4.675
REMARK  Name = 24755471
REMARK  13 active torsions:
REMARK  status: ('A' for Active; 'I' for Inactive)
REMARK    1  A    between atoms: C_1  and  S_11
REMARK    2  A    between atoms: C_9  and  O_27
REMARK    3  A    between atoms: S_11  and  N_14
REMARK    4  A    between atoms: N_14  and  C_16
REMARK    5  A    between atoms: C_16  and  C_18
REMARK    6  A    between atoms: C_16  and  C_21
REMARK    7  A    between atoms: C_18  and  O_19
REMARK    8  A    between atoms: C_21  and  C_22
REMARK    9  A    between atoms: C_22  and  C_24
REMARK   10  A    between atoms: C_24  and  O_25
REMARK   11  A    between atoms: O_27  and  C_28
REMARK   12  A    between atoms: C_28  and  C_29
REMARK   13  A    between atoms: C_34  and  C_36
REMARK                            x       y       z     vdW  Elec       q    Type
REMARK                         _______ _______ _______ _____ _____    ______ ____
ROOT
ATOM      1  C   UNL     1      34.327 -22.418 -15.977  0.00  0.00    +0.122 C 
ATOM      2  C   UNL     1      33.776 -21.313 -18.074  0.00  0.00    +0.002 C 
ATOM      3  C   UNL     1      33.389 -22.052 -16.944  0.00  0.00    +0.020 C 
ATOM      4  C   UNL     1      35.133 -20.939 -18.225  0.00  0.00    +0.003 C 
ATOM      5  C   UNL     1      35.660 -22.050 -16.126  0.00  0.00    +0.020 C 
ATOM      6  C   UNL     1      36.063 -21.316 -17.242  0.00  0.00    +0.001 C 
ATOM      7  C   UNL     1      35.520 -20.201 -19.355  0.00  0.00    +0.037 C 
ATOM      8  C   UNL     1      32.846 -20.937 -19.058  0.00  0.00    +0.003 C 
ATOM      9  C   UNL     1      34.582 -19.836 -20.322  0.00  0.00    +0.139 C 
ATOM     10  C   UNL     1      33.248 -20.203 -20.174  0.00  0.00    +0.037 C 
ENDROOT
BRANCH   1  11
ATOM     11  S   UNL     1      33.818 -23.347 -14.562  0.00  0.00    +0.061 S 
ATOM     12  O   UNL     1      33.644 -24.727 -14.973  0.00  0.00    -0.153 OA
ATOM     13  O   UNL     1      34.735 -23.016 -13.488  0.00  0.00    -0.153 OA
BRANCH  11  14
ATOM     14  N   UNL     1      32.300 -22.663 -14.221  0.00  0.00    -0.170 NA
ATOM     15  H   UNL     1      32.134 -21.948 -14.929  0.00  0.00    +0.149 HD
BRANCH  14  16
ATOM     16  C   UNL     1      31.095 -23.521 -14.188  0.00  0.00    +0.174 C 
BRANCH  16  18
ATOM     17  O   UNL     1      30.057 -23.440 -11.989  0.00  0.00    -0.249 OA
ATOM     18  C   UNL     1      30.865 -23.948 -12.758  0.00  0.00    +0.330 C 
BRANCH  18  19
ATOM     19  O   UNL     1      31.652 -24.997 -12.404  0.00  0.00    -0.479 OA
ATOM     20  H   UNL     1      31.441 -25.861 -12.697  0.00  0.00    +0.295 HD
ENDBRANCH  18  19
ENDBRANCH  16  18
BRANCH  16  21
ATOM     21  C   UNL     1      29.907 -22.800 -14.837  0.00  0.00    +0.040 C 
BRANCH  21  22
ATOM     22  C   UNL     1      28.711 -23.674 -15.226  0.00  0.00    +0.111 C 
BRANCH  22  24
ATOM     23  O   UNL     1      27.625 -21.738 -16.180  0.00  0.00    -0.250 OA
ATOM     24  C   UNL     1      27.672 -22.954 -16.049  0.00  0.00    +0.314 C 
BRANCH  24  25
ATOM     25  O   UNL     1      26.777 -23.800 -16.621  0.00  0.00    -0.480 OA
ATOM     26  H   UNL     1      26.967 -24.716 -16.673  0.00  0.00    +0.295 HD
ENDBRANCH  24  25
ENDBRANCH  22  24
ENDBRANCH  21  22
ENDBRANCH  16  21
ENDBRANCH  14  16
ENDBRANCH  11  14
ENDBRANCH   1  11
BRANCH   9  27
ATOM     27  O   UNL     1      34.973 -19.118 -21.411  0.00  0.00    -0.471 OA
BRANCH  27  28
ATOM     28  C   UNL     1      33.996 -18.894 -22.426  0.00  0.00    +0.232 C 
BRANCH  28  29
ATOM     29  C   UNL     1      33.837 -17.417 -22.635  0.00  0.00    +0.021 C 
ATOM     30  C   UNL     1      34.097 -16.532 -21.588  0.00  0.00    -0.000 C 
ATOM     31  C   UNL     1      33.427 -16.928 -23.876  0.00  0.00    -0.000 C 
ATOM     32  C   UNL     1      33.949 -15.160 -21.783  0.00  0.00    +0.010 C 
ATOM     33  C   UNL     1      33.279 -15.556 -24.070  0.00  0.00    +0.010 C 
ATOM     34  C   UNL     1      33.539 -14.671 -23.023  0.00  0.00    +0.068 C 
BRANCH  34  36
ATOM     35  N   UNL     1      33.265 -12.121 -23.384  0.00  0.00    -0.191 NA
ATOM     36  C   UNL     1      33.388 -13.263 -23.222  0.00  0.00    +0.100 C 
ENDBRANCH  34  36
ENDBRANCH  28  29
ENDBRANCH  27  28
ENDBRANCH   9  27
TORSDOF 13
ENDMDL
MODEL 6
REMARK VINA RESULT:     -11.1      3.296      5.195
REMARK  Name = 24755471
REMARK  13 active torsions:
REMARK  status: ('A' for Active; 'I' for Inactive)
REMARK    1  A    between atoms: C_1  and  S_11
REMARK    2  A    between atoms: C_9  and  O_27
REMARK    3  A    between atoms: S_11  and  N_14
REMARK    4  A    between atoms: N_14  and  C_16
REMARK    5  A    between atoms: C_16  and  C_18
REMARK    6  A    between atoms: C_16  and  C_21
REMARK    7  A    between atoms: C_18  and  O_19
REMARK    8  A    between atoms: C_21  and  C_22
REMARK    9  A    between atoms: C_22  and  C_24
REMARK   10  A    between atoms: C_24  and  O_25
REMARK   11  A    between atoms: O_27  and  C_28
REMARK   12  A    between atoms: C_28  and  C_29
REMARK   13  A    between atoms: C_34  and  C_36
REMARK                            x       y       z     vdW  Elec       q    Type
REMARK                         _______ _______ _______ _____ _____    ______ ____
ROOT
ATOM      1  C   UNL     1      33.218 -21.917 -17.814  0.00  0.00    +0.122 C 
ATOM      2  C   UNL     1      34.644 -20.485 -19.170  0.00  0.00    +0.002 C 
ATOM      3  C   UNL     1      34.487 -21.456 -18.168  0.00  0.00    +0.020 C 
ATOM      4  C   UNL     1      33.498 -19.974 -19.825  0.00  0.00    +0.003 C 
ATOM      5  C   UNL     1      32.091 -21.413 -18.457  0.00  0.00    +0.020 C 
ATOM      6  C   UNL     1      32.228 -20.449 -19.456  0.00  0.00    +0.001 C 
ATOM      7  C   UNL     1      33.654 -19.004 -20.827  0.00  0.00    +0.037 C 
ATOM      8  C   UNL     1      35.914 -20.010 -19.538  0.00  0.00    +0.003 C 
ATOM      9  C   UNL     1      34.923 -18.544 -21.180  0.00  0.00    +0.139 C 
ATOM     10  C   UNL     1      36.051 -19.046 -20.537  0.00  0.00    +0.037 C 
ENDROOT
BRANCH   1  11
ATOM     11  S   UNL     1      33.043 -23.139 -16.549  0.00  0.00    +0.061 S 
ATOM     12  O   UNL     1      32.463 -24.324 -17.151  0.00  0.00    -0.153 OA
ATOM     13  O   UNL     1      34.316 -23.219 -15.860  0.00  0.00    -0.153 OA
BRANCH  11  14
ATOM     14  N   UNL     1      31.902 -22.413 -15.518  0.00  0.00    -0.170 NA
ATOM     15  H   UNL     1      31.396 -21.727 -16.076  0.00  0.00    +0.149 HD
BRANCH  14  16
ATOM     16  C   UNL     1      30.886 -23.247 -14.839  0.00  0.00    +0.174 C 
BRANCH  16  18
ATOM     17  O   UNL     1      31.005 -23.255 -12.410  0.00  0.00    -0.249 OA
ATOM     18  C   UNL     1      31.434 -23.645 -13.489  0.00  0.00    +0.330 C 
BRANCH  18  19
ATOM     19  O   UNL     1      32.467 -24.520 -13.594  0.00  0.00    -0.479 OA
ATOM     20  H   UNL     1      32.306 -25.442 -13.554  0.00  0.00    +0.295 HD
ENDBRANCH  18  19
ENDBRANCH  16  18
BRANCH  16  21
ATOM     21  C   UNL     1      29.539 -22.515 -14.791  0.00  0.00    +0.040 C 
BRANCH  21  22
ATOM     22  C   UNL     1      28.285 -23.393 -14.839  0.00  0.00    +0.111 C 
BRANCH  22  24
ATOM     23  O   UNL     1      26.847 -23.783 -16.740  0.00  0.00    -0.250 OA
ATOM     24  C   UNL     1      27.308 -23.002 -15.918  0.00  0.00    +0.314 C 
BRANCH  24  25
ATOM     25  O   UNL     1      27.002 -21.679 -15.896  0.00  0.00    -0.480 OA
ATOM     26  H   UNL     1      26.281 -21.357 -16.401  0.00  0.00    +0.295 HD
ENDBRANCH  24  25
ENDBRANCH  22  24
ENDBRANCH  21  22
ENDBRANCH  16  21
ENDBRANCH  14  16
ENDBRANCH  11  14
ENDBRANCH   1  11
BRANCH   9  27
ATOM     27  O   UNL     1      35.059 -17.604 -22.155  0.00  0.00    -0.471 OA
BRANCH  27  28
ATOM     28  C   UNL     1      33.921 -17.354 -22.978  0.00  0.00    +0.232 C 
BRANCH  28  29
ATOM     29  C   UNL     1      33.684 -15.874 -23.052  0.00  0.00    +0.021 C 
ATOM     30  C   UNL     1      33.901 -15.077 -21.927  0.00  0.00    -0.000 C 
ATOM     31  C   UNL     1      33.246 -15.295 -24.243  0.00  0.00    -0.000 C 
ATOM     32  C   UNL     1      33.680 -13.702 -21.995  0.00  0.00    +0.010 C 
ATOM     33  C   UNL     1      33.026 -13.920 -24.311  0.00  0.00    +0.010 C 
ATOM     34  C   UNL     1      33.242 -13.123 -23.186  0.00  0.00    +0.068 C 
BRANCH  34  36
ATOM     35  N   UNL     1      32.835 -10.569 -23.311  0.00  0.00    -0.191 NA
ATOM     36  C   UNL     1      33.017 -11.713 -23.255  0.00  0.00    +0.100 C 
ENDBRANCH  34  36
ENDBRANCH  28  29
ENDBRANCH  27  28
ENDBRANCH   9  27
TORSDOF 13
ENDMDL
MODEL 7
REMARK VINA RESULT:     -10.7      1.861      3.220
REMARK  Name = 24755471
REMARK  13 active torsions:
REMARK  status: ('A' for Active; 'I' for Inactive)
REMARK    1  A    between atoms: C_1  and  S_11
REMARK    2  A    between atoms: C_9  and  O_27
REMARK    3  A    between atoms: S_11  and  N_14
REMARK    4  A    between atoms: N_14  and  C_16
REMARK    5  A    between atoms: C_16  and  C_18
REMARK    6  A    between atoms: C_16  and  C_21
REMARK    7  A    between atoms: C_18  and  O_19
REMARK    8  A    between atoms: C_21  and  C_22
REMARK    9  A    between atoms: C_22  and  C_24
REMARK   10  A    between atoms: C_24  and  O_25
REMARK   11  A    between atoms: O_27  and  C_28
REMARK   12  A    between atoms: C_28  and  C_29
REMARK   13  A    between atoms: C_34  and  C_36
REMARK                            x       y       z     vdW  Elec       q    Type
REMARK                         _______ _______ _______ _____ _____    ______ ____
ROOT
ATOM      1  C   UNL     1      33.186 -21.805 -17.795  0.00  0.00    +0.122 C 
ATOM      2  C   UNL     1      34.596 -20.449 -19.242  0.00  0.00    +0.002 C 
ATOM      3  C   UNL     1      34.450 -21.357 -18.181  0.00  0.00    +0.020 C 
ATOM      4  C   UNL     1      33.444 -19.989 -19.923  0.00  0.00    +0.003 C 
ATOM      5  C   UNL     1      32.053 -21.353 -18.464  0.00  0.00    +0.020 C 
ATOM      6  C   UNL     1      32.179 -20.451 -19.522  0.00  0.00    +0.001 C 
ATOM      7  C   UNL     1      33.589 -19.082 -20.984  0.00  0.00    +0.037 C 
ATOM      8  C   UNL     1      35.861 -19.987 -19.643  0.00  0.00    +0.003 C 
ATOM      9  C   UNL     1      34.853 -18.634 -21.369  0.00  0.00    +0.139 C 
ATOM     10  C   UNL     1      35.987 -19.085 -20.700  0.00  0.00    +0.037 C 
ENDROOT
BRANCH   1  11
ATOM     11  S   UNL     1      33.025 -22.948 -16.456  0.00  0.00    +0.061 S 
ATOM     12  O   UNL     1      32.090 -22.387 -15.501  0.00  0.00    -0.153 OA
ATOM     13  O   UNL     1      32.778 -24.252 -17.041  0.00  0.00    -0.153 OA
BRANCH  11  14
ATOM     14  N   UNL     1      34.590 -22.930 -15.792  0.00  0.00    -0.170 NA
ATOM     15  H   UNL     1      34.933 -21.974 -15.873  0.00  0.00    +0.149 HD
BRANCH  14  16
ATOM     16  C   UNL     1      34.799 -23.343 -14.386  0.00  0.00    +0.174 C 
BRANCH  16  18
ATOM     17  O   UNL     1      34.825 -25.751 -14.727  0.00  0.00    -0.249 OA
ATOM     18  C   UNL     1      34.299 -24.760 -14.235  0.00  0.00    +0.330 C 
BRANCH  18  19
ATOM     19  O   UNL     1      33.186 -24.830 -13.460  0.00  0.00    -0.479 OA
ATOM     20  H   UNL     1      32.649 -24.072 -13.343  0.00  0.00    +0.295 HD
ENDBRANCH  18  19
ENDBRANCH  16  18
BRANCH  16  21
ATOM     21  C   UNL     1      36.263 -23.136 -13.981  0.00  0.00    +0.040 C 
BRANCH  21  22
ATOM     22  C   UNL     1      36.650 -23.591 -12.571  0.00  0.00    +0.111 C 
BRANCH  22  24
ATOM     23  O   UNL     1      34.691 -23.230 -11.205  0.00  0.00    -0.250 OA
ATOM     24  C   UNL     1      35.848 -22.935 -11.476  0.00  0.00    +0.314 C 
BRANCH  24  25
ATOM     25  O   UNL     1      36.540 -21.965 -10.827  0.00  0.00    -0.480 OA
ATOM     26  H   UNL     1      36.719 -22.051  -9.911  0.00  0.00    +0.295 HD
ENDBRANCH  24  25
ENDBRANCH  22  24
ENDBRANCH  21  22
ENDBRANCH  16  21
ENDBRANCH  14  16
ENDBRANCH  11  14
ENDBRANCH   1  11
BRANCH   9  27
ATOM     27  O   UNL     1      34.978 -17.755 -22.402  0.00  0.00    -0.471 OA
BRANCH  27  28
ATOM     28  C   UNL     1      33.799 -17.460 -23.149  0.00  0.00    +0.232 C 
BRANCH  28  29
ATOM     29  C   UNL     1      33.597 -15.974 -23.180  0.00  0.00    +0.021 C 
ATOM     30  C   UNL     1      33.081 -15.364 -24.323  0.00  0.00    -0.000 C 
ATOM     31  C   UNL     1      33.926 -15.202 -22.066  0.00  0.00    -0.000 C 
ATOM     32  C   UNL     1      32.894 -13.983 -24.352  0.00  0.00    +0.010 C 
ATOM     33  C   UNL     1      33.739 -13.821 -22.094  0.00  0.00    +0.010 C 
ATOM     34  C   UNL     1      33.223 -13.211 -23.238  0.00  0.00    +0.068 C 
BRANCH  34  36
ATOM     35  N   UNL     1      32.873 -10.645 -23.291  0.00  0.00    -0.191 NA
ATOM     36  C   UNL     1      33.030 -11.795 -23.267  0.00  0.00    +0.100 C 
ENDBRANCH  34  36
ENDBRANCH  28  29
ENDBRANCH  27  28
ENDBRANCH   9  27
TORSDOF 13
ENDMDL
MODEL 8
REMARK VINA RESULT:     -10.6      5.317      9.504
REMARK  Name = 24755471
REMARK  13 active torsions:
REMARK  status: ('A' for Active; 'I' for Inactive)
REMARK    1  A    between atoms: C_1  and  S_11
REMARK    2  A    between atoms: C_9  and  O_27
REMARK    3  A    between atoms: S_11  and  N_14
REMARK    4  A    between atoms: N_14  and  C_16
REMARK    5  A    between atoms: C_16  and  C_18
REMARK    6  A    between atoms: C_16  and  C_21
REMARK    7  A    between atoms: C_18  and  O_19
REMARK    8  A    between atoms: C_21  and  C_22
REMARK    9  A    between atoms: C_22  and  C_24
REMARK   10  A    between atoms: C_24  and  O_25
REMARK   11  A    between atoms: O_27  and  C_28
REMARK   12  A    between atoms: C_28  and  C_29
REMARK   13  A    between atoms: C_34  and  C_36
REMARK                            x       y       z     vdW  Elec       q    Type
REMARK                         _______ _______ _______ _____ _____    ______ ____
ROOT
ATOM      1  C   UNL     1      33.576 -16.655 -22.913  0.00  0.00    +0.122 C 
ATOM      2  C   UNL     1      33.081 -14.707 -24.285  0.00  0.00    +0.002 C 
ATOM      3  C   UNL     1      33.158 -16.100 -24.123  0.00  0.00    +0.020 C 
ATOM      4  C   UNL     1      33.432 -13.865 -23.204  0.00  0.00    +0.003 C 
ATOM      5  C   UNL     1      33.921 -15.826 -21.850  0.00  0.00    +0.020 C 
ATOM      6  C   UNL     1      33.850 -14.440 -21.992  0.00  0.00    +0.001 C 
ATOM      7  C   UNL     1      33.354 -12.472 -23.365  0.00  0.00    +0.037 C 
ATOM      8  C   UNL     1      32.663 -14.132 -25.497  0.00  0.00    +0.003 C 
ATOM      9  C   UNL     1      32.937 -11.918 -24.576  0.00  0.00    +0.139 C 
ATOM     10  C   UNL     1      32.592 -12.746 -25.639  0.00  0.00    +0.037 C 
ENDROOT
BRANCH   1  11
ATOM     11  S   UNL     1      33.667 -18.411 -22.731  0.00  0.00    +0.061 S 
ATOM     12  O   UNL     1      32.352 -18.957 -23.007  0.00  0.00    -0.153 OA
ATOM     13  O   UNL     1      34.818 -18.856 -23.493  0.00  0.00    -0.153 OA
BRANCH  11  14
ATOM     14  N   UNL     1      34.008 -18.573 -21.073  0.00  0.00    -0.170 NA
ATOM     15  H   UNL     1      33.156 -18.913 -20.629  0.00  0.00    +0.149 HD
BRANCH  14  16
ATOM     16  C   UNL     1      35.106 -19.459 -20.629  0.00  0.00    +0.174 C 
BRANCH  16  18
ATOM     17  O   UNL     1      36.706 -18.305 -19.206  0.00  0.00    -0.249 OA
ATOM     18  C   UNL     1      36.310 -18.598 -20.328  0.00  0.00    +0.330 C 
BRANCH  18  19
ATOM     19  O   UNL     1      36.940 -18.187 -21.458  0.00  0.00    -0.479 OA
ATOM     20  H   UNL     1      37.102 -18.794 -22.152  0.00  0.00    +0.295 HD
ENDBRANCH  18  19
ENDBRANCH  16  18
BRANCH  16  21
ATOM     21  C   UNL     1      34.644 -20.340 -19.462  0.00  0.00    +0.040 C 
BRANCH  21  22
ATOM     22  C   UNL     1      33.134 -20.560 -19.332  0.00  0.00    +0.111 C 
BRANCH  22  24
ATOM     23  O   UNL     1      31.617 -21.855 -17.968  0.00  0.00    -0.250 OA
ATOM     24  C   UNL     1      32.758 -21.657 -18.367  0.00  0.00    +0.314 C 
BRANCH  24  25
ATOM     25  O   UNL     1      33.825 -22.396 -17.970  0.00  0.00    -0.480 OA
ATOM     26  H   UNL     1      34.382 -22.082 -17.286  0.00  0.00    +0.295 HD
ENDBRANCH  24  25
ENDBRANCH  22  24
ENDBRANCH  21  22
ENDBRANCH  16  21
ENDBRANCH  14  16
ENDBRANCH  11  14
ENDBRANCH   1  11
BRANCH   9  27
ATOM     27  O   UNL     1      32.865 -10.566 -24.716  0.00  0.00    -0.471 OA
BRANCH  27  28
ATOM     28  C   UNL     1      33.938  -9.799 -24.172  0.00  0.00    +0.232 C 
BRANCH  28  29
ATOM     29  C   UNL     1      33.379  -8.766 -23.239  0.00  0.00    +0.021 C 
ATOM     30  C   UNL     1      34.107  -7.608 -22.963  0.00  0.00    -0.000 C 
ATOM     31  C   UNL     1      32.132  -8.963 -22.646  0.00  0.00    -0.000 C 
ATOM     32  C   UNL     1      33.588  -6.648 -22.096  0.00  0.00    +0.010 C 
ATOM     33  C   UNL     1      31.612  -8.003 -21.779  0.00  0.00    +0.010 C 
ATOM     34  C   UNL     1      32.341  -6.845 -21.503  0.00  0.00    +0.068 C 
BRANCH  34  36
ATOM     35  N   UNL     1      31.376  -5.060 -19.893  0.00  0.00    -0.191 NA
ATOM     36  C   UNL     1      31.808  -5.860 -20.614  0.00  0.00    +0.100 C 
ENDBRANCH  34  36
ENDBRANCH  28  29
ENDBRANCH  27  28
ENDBRANCH   9  27
TORSDOF 13
ENDMDL
MODEL 9
REMARK VINA RESULT:     -10.5      3.452     11.330
REMARK  Name = 24755471
REMARK  13 active torsions:
REMARK  status: ('A' for Active; 'I' for Inactive)
REMARK    1  A    between atoms: C_1  and  S_11
REMARK    2  A    between atoms: C_9  and  O_27
REMARK    3  A    between atoms: S_11  and  N_14
REMARK    4  A    between atoms: N_14  and  C_16
REMARK    5  A    between atoms: C_16  and  C_18
REMARK    6  A    between atoms: C_16  and  C_21
REMARK    7  A    between atoms: C_18  and  O_19
REMARK    8  A    between atoms: C_21  and  C_22
REMARK    9  A    between atoms: C_22  and  C_24
REMARK   10  A    between atoms: C_24  and  O_25
REMARK   11  A    between atoms: O_27  and  C_28
REMARK   12  A    between atoms: C_28  and  C_29
REMARK   13  A    between atoms: C_34  and  C_36
REMARK                            x       y       z     vdW  Elec       q    Type
REMARK                         _______ _______ _______ _____ _____    ______ ____
ROOT
ATOM      1  C   UNL     1      34.180 -19.147 -20.990  0.00  0.00    +0.122 C 
ATOM      2  C   UNL     1      33.193 -20.618 -19.322  0.00  0.00    +0.002 C 
ATOM      3  C   UNL     1      33.061 -19.766 -20.431  0.00  0.00    +0.020 C 
ATOM      4  C   UNL     1      34.477 -20.846 -18.773  0.00  0.00    +0.003 C 
ATOM      5  C   UNL     1      35.442 -19.371 -20.450  0.00  0.00    +0.020 C 
ATOM      6  C   UNL     1      35.592 -20.215 -19.349  0.00  0.00    +0.001 C 
ATOM      7  C   UNL     1      34.609 -21.698 -17.665  0.00  0.00    +0.037 C 
ATOM      8  C   UNL     1      32.077 -21.249 -18.746  0.00  0.00    +0.003 C 
ATOM      9  C   UNL     1      33.490 -22.317 -17.106  0.00  0.00    +0.139 C 
ATOM     10  C   UNL     1      32.227 -22.092 -17.645  0.00  0.00    +0.037 C 
ENDROOT
BRANCH   1  11
ATOM     11  S   UNL     1      33.992 -18.078 -22.386  0.00  0.00    +0.061 S 
ATOM     12  O   UNL     1      35.228 -18.111 -23.143  0.00  0.00    -0.153 OA
ATOM     13  O   UNL     1      32.737 -18.430 -23.021  0.00  0.00    -0.153 OA
BRANCH  11  14
ATOM     14  N   UNL     1      33.826 -16.558 -21.641  0.00  0.00    -0.170 NA
ATOM     15  H   UNL     1      34.400 -16.579 -20.800  0.00  0.00    +0.149 HD
BRANCH  14  16
ATOM     16  C   UNL     1      34.193 -15.331 -22.381  0.00  0.00    +0.174 C 
BRANCH  16  18
ATOM     17  O   UNL     1      32.336 -14.777 -23.851  0.00  0.00    -0.249 OA
ATOM     18  C   UNL     1      33.422 -15.318 -23.679  0.00  0.00    +0.330 C 
BRANCH  18  19
ATOM     19  O   UNL     1      34.080 -15.970 -24.672  0.00  0.00    -0.479 OA
ATOM     20  H   UNL     1      34.878 -15.618 -25.015  0.00  0.00    +0.295 HD
ENDBRANCH  18  19
ENDBRANCH  16  18
BRANCH  16  21
ATOM     21  C   UNL     1      33.981 -14.093 -21.501  0.00  0.00    +0.040 C 
BRANCH  21  22
ATOM     22  C   UNL     1      33.021 -14.254 -20.318  0.00  0.00    +0.111 C 
BRANCH  22  24
ATOM     23  O   UNL     1      31.055 -13.146 -19.457  0.00  0.00    -0.250 OA
ATOM     24  C   UNL     1      31.796 -13.378 -20.403  0.00  0.00    +0.314 C 
BRANCH  24  25
ATOM     25  O   UNL     1      31.589 -12.884 -21.650  0.00  0.00    -0.480 OA
ATOM     26  H   UNL     1      32.319 -12.717 -22.214  0.00  0.00    +0.295 HD
ENDBRANCH  24  25
ENDBRANCH  22  24
ENDBRANCH  21  22
ENDBRANCH  16  21
ENDBRANCH  14  16
ENDBRANCH  11  14
ENDBRANCH   1  11
BRANCH   9  27
ATOM     27  O   UNL     1      33.635 -23.141 -16.033  0.00  0.00    -0.471 OA
BRANCH  27  28
ATOM     28  C   UNL     1      34.257 -22.593 -14.872  0.00  0.00    +0.232 C 
BRANCH  28  29
ATOM     29  C   UNL     1      35.503 -23.372 -14.569  0.00  0.00    +0.021 C 
ATOM     30  C   UNL     1      36.753 -22.837 -14.881  0.00  0.00    -0.000 C 
ATOM     31  C   UNL     1      35.412 -24.632 -13.978  0.00  0.00    -0.000 C 
ATOM     32  C   UNL     1      37.910 -23.561 -14.600  0.00  0.00    +0.010 C 
ATOM     33  C   UNL     1      36.569 -25.356 -13.697  0.00  0.00    +0.010 C 
ATOM     34  C   UNL     1      37.819 -24.821 -14.009  0.00  0.00    +0.068 C 
BRANCH  34  36
ATOM     35  N   UNL     1      39.971 -26.165 -13.487  0.00  0.00    -0.191 NA
ATOM     36  C   UNL     1      39.007 -25.563 -13.721  0.00  0.00    +0.100 C 
ENDBRANCH  34  36
ENDBRANCH  28  29
ENDBRANCH  27  28
ENDBRANCH   9  27
TORSDOF 13
ENDMDL
