MODEL 1
REMARK VINA RESULT:     -12.2      0.000      0.000
REMARK  Name = 11633167
REMARK  7 active torsions:
REMARK  status: ('A' for Active; 'I' for Inactive)
REMARK    1  A    between atoms: C_1  and  C_8
REMARK    2  A    between atoms: C_2  and  C_25
REMARK    3  A    between atoms: C_4  and  O_17
REMARK    4  A    between atoms: O_17  and  C_18
REMARK    5  A    between atoms: C_18  and  C_20
REMARK    6  A    between atoms: C_25  and  N_26
REMARK    7  A    between atoms: N_26  and  C_29
REMARK                            x       y       z     vdW  Elec       q    Type
REMARK                         _______ _______ _______ _____ _____    ______ ____
ROOT
ATOM      1  C   UNL     1      34.502 -20.507 -19.107  0.00  0.00    -0.000 C 
ATOM      2  C   UNL     1      33.308 -21.959 -17.591  0.00  0.00    +0.031 C 
ATOM      3  C   UNL     1      33.315 -21.120 -18.706  0.00  0.00    +0.000 C 
ATOM      4  C   UNL     1      34.486 -22.183 -16.879  0.00  0.00    +0.137 C 
ATOM      5  C   UNL     1      35.680 -20.731 -18.396  0.00  0.00    +0.003 C 
ATOM      6  C   UNL     1      35.672 -21.570 -17.282  0.00  0.00    +0.037 C 
ENDROOT
BRANCH   1   8
ATOM      7  N   UNL     1      32.552 -18.586 -23.251  0.00  0.00    -0.312 N 
ATOM      8  C   UNL     1      34.511 -19.637 -20.264  0.00  0.00    +0.001 C 
ATOM      9  C   UNL     1      33.467 -18.788 -22.243  0.00  0.00    +0.048 C 
ATOM     10  C   UNL     1      34.551 -17.944 -22.495  0.00  0.00    +0.015 C 
ATOM     11  C   UNL     1      33.418 -19.645 -21.137  0.00  0.00    +0.015 C 
ATOM     12  C   UNL     1      35.605 -18.806 -20.491  0.00  0.00    +0.000 C 
ATOM     13  C   UNL     1      35.640 -17.954 -21.602  0.00  0.00    +0.001 C 
ATOM     14  C   UNL     1      34.254 -17.228 -23.688  0.00  0.00    +0.017 C 
ATOM     15  C   UNL     1      33.019 -17.645 -24.131  0.00  0.00    +0.062 C 
ATOM     16  H   UNL     1      31.688 -19.050 -23.330  0.00  0.00    +0.152 HD
ENDBRANCH   1   8
BRANCH   4  17
ATOM     17  O   UNL     1      34.496 -22.998 -15.788  0.00  0.00    -0.469 OA
BRANCH  17  18
ATOM     18  C   UNL     1      35.521 -22.775 -14.821  0.00  0.00    +0.251 C 
BRANCH  18  20
ATOM     19  N   UNL     1      35.300 -25.183 -14.705  0.00  0.00    -0.244 NA
ATOM     20  C   UNL     1      35.960 -24.095 -14.259  0.00  0.00    +0.103 C 
ATOM     21  C   UNL     1      36.990 -24.125 -13.339  0.00  0.00    +0.018 C 
ATOM     22  C   UNL     1      37.372 -25.363 -12.838  0.00  0.00    +0.003 C 
ATOM     23  C   UNL     1      35.699 -26.370 -14.196  0.00  0.00    +0.099 C 
ATOM     24  C   UNL     1      36.719 -26.513 -13.269  0.00  0.00    +0.021 C 
ENDBRANCH  18  20
ENDBRANCH  17  18
ENDBRANCH   4  17
BRANCH   2  25
ATOM     25  C   UNL     1      32.030 -22.607 -17.174  0.00  0.00    +0.117 C 
BRANCH  25  26
ATOM     26  N   UNL     1      31.751 -22.421 -15.749  0.00  0.00    -0.327 N 
ATOM     27  H   UNL     1      32.264 -21.741 -15.254  0.00  0.00    +0.147 HD
BRANCH  26  29
ATOM     28  N   UNL     1      30.213 -24.735 -13.300  0.00  0.00    -0.228 NA
ATOM     29  C   UNL     1      30.806 -23.152 -15.067  0.00  0.00    +0.077 C 
ATOM     30  C   UNL     1      31.112 -24.002 -13.994  0.00  0.00    +0.139 C 
ATOM     31  C   UNL     1      29.446 -23.082 -15.421  0.00  0.00    +0.019 C 
ATOM     32  C   UNL     1      28.491 -23.822 -14.731  0.00  0.00    +0.022 C 
ATOM     33  C   UNL     1      28.923 -24.626 -13.688  0.00  0.00    +0.100 C 
ATOM     34  N   UNL     1      32.474 -24.096 -13.611  0.00  0.00    -0.342 N 
ATOM     35  H   UNL     1      32.735 -24.680 -12.863  0.00  0.00    +0.144 HD
ATOM     36  H   UNL     1      33.158 -23.577 -14.093  0.00  0.00    +0.144 HD
ENDBRANCH  26  29
ENDBRANCH  25  26
ENDBRANCH   2  25
TORSDOF 7
ENDMDL
MODEL 2
REMARK VINA RESULT:     -12.0      1.181      4.718
REMARK  Name = 11633167
REMARK  7 active torsions:
REMARK  status: ('A' for Active; 'I' for Inactive)
REMARK    1  A    between atoms: C_1  and  C_8
REMARK    2  A    between atoms: C_2  and  C_25
REMARK    3  A    between atoms: C_4  and  O_17
REMARK    4  A    between atoms: O_17  and  C_18
REMARK    5  A    between atoms: C_18  and  C_20
REMARK    6  A    between atoms: C_25  and  N_26
REMARK    7  A    between atoms: N_26  and  C_29
REMARK                            x       y       z     vdW  Elec       q    Type
REMARK                         _______ _______ _______ _____ _____    ______ ____
ROOT
ATOM      1  C   UNL     1      34.198 -21.264 -18.167  0.00  0.00    -0.000 C 
ATOM      2  C   UNL     1      34.897 -22.261 -16.082  0.00  0.00    +0.031 C 
ATOM      3  C   UNL     1      35.153 -21.417 -17.162  0.00  0.00    +0.000 C 
ATOM      4  C   UNL     1      33.688 -22.951 -16.007  0.00  0.00    +0.137 C 
ATOM      5  C   UNL     1      32.989 -21.953 -18.093  0.00  0.00    +0.003 C 
ATOM      6  C   UNL     1      32.733 -22.797 -17.012  0.00  0.00    +0.037 C 
ENDROOT
BRANCH   1   8
ATOM      7  N   UNL     1      32.948 -18.834 -22.314  0.00  0.00    -0.312 N 
ATOM      8  C   UNL     1      34.463 -20.388 -19.289  0.00  0.00    +0.001 C 
ATOM      9  C   UNL     1      33.741 -19.269 -21.276  0.00  0.00    +0.048 C 
ATOM     10  C   UNL     1      35.000 -18.690 -21.451  0.00  0.00    +0.015 C 
ATOM     11  C   UNL     1      33.443 -20.120 -20.206  0.00  0.00    +0.015 C 
ATOM     12  C   UNL     1      35.728 -19.825 -19.438  0.00  0.00    +0.000 C 
ATOM     13  C   UNL     1      36.013 -18.975 -20.513  0.00  0.00    +0.001 C 
ATOM     14  C   UNL     1      34.934 -17.893 -22.627  0.00  0.00    +0.017 C 
ATOM     15  C   UNL     1      33.660 -18.002 -23.137  0.00  0.00    +0.062 C 
ATOM     16  H   UNL     1      32.005 -19.084 -22.446  0.00  0.00    +0.152 HD
ENDBRANCH   1   8
BRANCH   4  17
ATOM     17  O   UNL     1      33.422 -23.780 -14.959  0.00  0.00    -0.469 OA
BRANCH  17  18
ATOM     18  C   UNL     1      32.787 -23.202 -13.821  0.00  0.00    +0.251 C 
BRANCH  18  20
ATOM     19  N   UNL     1      30.959 -24.758 -13.502  0.00  0.00    -0.244 NA
ATOM     20  C   UNL     1      31.319 -23.511 -13.869  0.00  0.00    +0.103 C 
ATOM     21  C   UNL     1      30.439 -22.528 -14.276  0.00  0.00    +0.018 C 
ATOM     22  C   UNL     1      29.086 -22.847 -14.310  0.00  0.00    +0.003 C 
ATOM     23  C   UNL     1      29.636 -25.031 -13.547  0.00  0.00    +0.099 C 
ATOM     24  C   UNL     1      28.668 -24.120 -13.940  0.00  0.00    +0.021 C 
ENDBRANCH  18  20
ENDBRANCH  17  18
ENDBRANCH   4  17
BRANCH   2  25
ATOM     25  C   UNL     1      35.930 -22.414 -15.014  0.00  0.00    +0.117 C 
BRANCH  25  26
ATOM     26  N   UNL     1      36.361 -23.803 -14.854  0.00  0.00    -0.327 N 
ATOM     27  H   UNL     1      36.605 -24.316 -15.658  0.00  0.00    +0.147 HD
BRANCH  26  29
ATOM     28  N   UNL     1      35.982 -26.351 -12.192  0.00  0.00    -0.228 NA
ATOM     29  C   UNL     1      36.443 -24.427 -13.630  0.00  0.00    +0.077 C 
ATOM     30  C   UNL     1      35.922 -25.706 -13.378  0.00  0.00    +0.139 C 
ATOM     31  C   UNL     1      37.069 -23.799 -12.539  0.00  0.00    +0.019 C 
ATOM     32  C   UNL     1      37.151 -24.430 -11.302  0.00  0.00    +0.022 C 
ATOM     33  C   UNL     1      36.596 -25.695 -11.182  0.00  0.00    +0.100 C 
ATOM     34  N   UNL     1      35.283 -26.368 -14.457  0.00  0.00    -0.342 N 
ATOM     35  H   UNL     1      34.903 -27.267 -14.326  0.00  0.00    +0.144 HD
ATOM     36  H   UNL     1      35.220 -25.929 -15.336  0.00  0.00    +0.144 HD
ENDBRANCH  26  29
ENDBRANCH  25  26
ENDBRANCH   2  25
TORSDOF 7
ENDMDL
MODEL 3
REMARK VINA RESULT:     -11.8      1.598      4.636
REMARK  Name = 11633167
REMARK  7 active torsions:
REMARK  status: ('A' for Active; 'I' for Inactive)
REMARK    1  A    between atoms: C_1  and  C_8
REMARK    2  A    between atoms: C_2  and  C_25
REMARK    3  A    between atoms: C_4  and  O_17
REMARK    4  A    between atoms: O_17  and  C_18
REMARK    5  A    between atoms: C_18  and  C_20
REMARK    6  A    between atoms: C_25  and  N_26
REMARK    7  A    between atoms: N_26  and  C_29
REMARK                            x       y       z     vdW  Elec       q    Type
REMARK                         _______ _______ _______ _____ _____    ______ ____
ROOT
ATOM      1  C   UNL     1      33.731 -19.951 -19.920  0.00  0.00    -0.000 C 
ATOM      2  C   UNL     1      34.785 -21.264 -18.188  0.00  0.00    +0.031 C 
ATOM      3  C   UNL     1      34.883 -20.363 -19.249  0.00  0.00    +0.000 C 
ATOM      4  C   UNL     1      33.538 -21.751 -17.799  0.00  0.00    +0.137 C 
ATOM      5  C   UNL     1      32.484 -20.438 -19.532  0.00  0.00    +0.003 C 
ATOM      6  C   UNL     1      32.387 -21.338 -18.470  0.00  0.00    +0.037 C 
ENDROOT
BRANCH   1   8
ATOM      7  N   UNL     1      34.184 -15.412 -21.884  0.00  0.00    -0.312 N 
ATOM      8  C   UNL     1      33.832 -19.016 -21.021  0.00  0.00    +0.001 C 
ATOM      9  C   UNL     1      34.053 -16.781 -21.845  0.00  0.00    +0.048 C 
ATOM     10  C   UNL     1      34.025 -17.228 -23.169  0.00  0.00    +0.015 C 
ATOM     11  C   UNL     1      33.959 -17.650 -20.752  0.00  0.00    +0.015 C 
ATOM     12  C   UNL     1      33.801 -19.491 -22.330  0.00  0.00    +0.000 C 
ATOM     13  C   UNL     1      33.896 -18.610 -23.414  0.00  0.00    +0.001 C 
ATOM     14  C   UNL     1      34.145 -16.081 -24.000  0.00  0.00    +0.017 C 
ATOM     15  C   UNL     1      34.240 -14.978 -23.182  0.00  0.00    +0.062 C 
ATOM     16  H   UNL     1      34.230 -14.827 -21.093  0.00  0.00    +0.152 HD
ENDBRANCH   1   8
BRANCH   4  17
ATOM     17  O   UNL     1      33.425 -22.631 -16.766  0.00  0.00    -0.469 OA
BRANCH  17  18
ATOM     18  C   UNL     1      32.309 -23.519 -16.789  0.00  0.00    +0.251 C 
BRANCH  18  20
ATOM     19  N   UNL     1      32.026 -23.859 -14.409  0.00  0.00    -0.244 NA
ATOM     20  C   UNL     1      31.507 -23.331 -15.536  0.00  0.00    +0.103 C 
ATOM     21  C   UNL     1      30.310 -22.644 -15.601  0.00  0.00    +0.018 C 
ATOM     22  C   UNL     1      29.591 -22.488 -14.422  0.00  0.00    +0.003 C 
ATOM     23  C   UNL     1      31.300 -23.687 -13.282  0.00  0.00    +0.099 C 
ATOM     24  C   UNL     1      30.089 -23.016 -13.235  0.00  0.00    +0.021 C 
ENDBRANCH  18  20
ENDBRANCH  17  18
ENDBRANCH   4  17
BRANCH   2  25
ATOM     25  C   UNL     1      36.027 -21.695 -17.481  0.00  0.00    +0.117 C 
BRANCH  25  26
ATOM     26  N   UNL     1      35.961 -21.443 -16.041  0.00  0.00    -0.327 N 
ATOM     27  H   UNL     1      35.664 -20.557 -15.731  0.00  0.00    +0.147 HD
BRANCH  26  29
ATOM     28  N   UNL     1      35.766 -23.644 -13.067  0.00  0.00    -0.228 NA
ATOM     29  C   UNL     1      36.296 -22.387 -15.097  0.00  0.00    +0.077 C 
ATOM     30  C   UNL     1      35.472 -22.724 -14.013  0.00  0.00    +0.139 C 
ATOM     31  C   UNL     1      37.517 -23.083 -15.174  0.00  0.00    +0.019 C 
ATOM     32  C   UNL     1      37.855 -24.037 -14.220  0.00  0.00    +0.022 C 
ATOM     33  C   UNL     1      36.953 -24.278 -13.196  0.00  0.00    +0.100 C 
ATOM     34  N   UNL     1      34.234 -22.041 -13.905  0.00  0.00    -0.342 N 
ATOM     35  H   UNL     1      33.623 -22.245 -13.161  0.00  0.00    +0.144 HD
ATOM     36  H   UNL     1      33.985 -21.363 -14.576  0.00  0.00    +0.144 HD
ENDBRANCH  26  29
ENDBRANCH  25  26
ENDBRANCH   2  25
TORSDOF 7
ENDMDL
MODEL 4
REMARK VINA RESULT:     -11.0      1.633      5.294
REMARK  Name = 11633167
REMARK  7 active torsions:
REMARK  status: ('A' for Active; 'I' for Inactive)
REMARK    1  A    between atoms: C_1  and  C_8
REMARK    2  A    between atoms: C_2  and  C_25
REMARK    3  A    between atoms: C_4  and  O_17
REMARK    4  A    between atoms: O_17  and  C_18
REMARK    5  A    between atoms: C_18  and  C_20
REMARK    6  A    between atoms: C_25  and  N_26
REMARK    7  A    between atoms: N_26  and  C_29
REMARK                            x       y       z     vdW  Elec       q    Type
REMARK                         _______ _______ _______ _____ _____    ______ ____
ROOT
ATOM      1  C   UNL     1      33.558 -21.437 -17.935  0.00  0.00    -0.000 C 
ATOM      2  C   UNL     1      34.202 -22.498 -15.863  0.00  0.00    +0.031 C 
ATOM      3  C   UNL     1      34.517 -21.687 -16.954  0.00  0.00    +0.000 C 
ATOM      4  C   UNL     1      32.930 -23.058 -15.755  0.00  0.00    +0.137 C 
ATOM      5  C   UNL     1      32.286 -21.996 -17.827  0.00  0.00    +0.003 C 
ATOM      6  C   UNL     1      31.971 -22.807 -16.735  0.00  0.00    +0.037 C 
ENDROOT
BRANCH   1   8
ATOM      7  N   UNL     1      36.662 -18.808 -20.784  0.00  0.00    -0.312 N 
ATOM      8  C   UNL     1      33.884 -20.596 -19.067  0.00  0.00    +0.001 C 
ATOM      9  C   UNL     1      35.476 -19.363 -20.358  0.00  0.00    +0.048 C 
ATOM     10  C   UNL     1      34.489 -18.969 -21.265  0.00  0.00    +0.015 C 
ATOM     11  C   UNL     1      35.204 -20.174 -19.251  0.00  0.00    +0.015 C 
ATOM     12  C   UNL     1      32.879 -20.219 -19.955  0.00  0.00    +0.000 C 
ATOM     13  C   UNL     1      33.165 -19.406 -21.058  0.00  0.00    +0.001 C 
ATOM     14  C   UNL     1      35.124 -18.162 -22.249  0.00  0.00    +0.017 C 
ATOM     15  C   UNL     1      36.459 -18.080 -21.926  0.00  0.00    +0.062 C 
ATOM     16  H   UNL     1      37.530 -18.918 -20.333  0.00  0.00    +0.152 HD
ENDBRANCH   1   8
BRANCH   4  17
ATOM     17  O   UNL     1      32.606 -23.852 -14.696  0.00  0.00    -0.469 OA
BRANCH  17  18
ATOM     18  C   UNL     1      31.779 -23.280 -13.686  0.00  0.00    +0.251 C 
BRANCH  18  20
ATOM     19  N   UNL     1      30.009 -24.930 -13.774  0.00  0.00    -0.244 NA
ATOM     20  C   UNL     1      30.348 -23.638 -13.962  0.00  0.00    +0.103 C 
ATOM     21  C   UNL     1      29.478 -22.652 -14.383  0.00  0.00    +0.018 C 
ATOM     22  C   UNL     1      28.160 -23.017 -14.631  0.00  0.00    +0.003 C 
ATOM     23  C   UNL     1      28.719 -25.247 -14.024  0.00  0.00    +0.099 C 
ATOM     24  C   UNL     1      27.765 -24.338 -14.450  0.00  0.00    +0.021 C 
ENDBRANCH  18  20
ENDBRANCH  17  18
ENDBRANCH   4  17
BRANCH   2  25
ATOM     25  C   UNL     1      35.240 -22.756 -14.821  0.00  0.00    +0.117 C 
BRANCH  25  26
ATOM     26  N   UNL     1      35.387 -24.181 -14.524  0.00  0.00    -0.327 N 
ATOM     27  H   UNL     1      34.918 -24.831 -15.095  0.00  0.00    +0.147 HD
BRANCH  26  29
ATOM     28  N   UNL     1      36.354 -25.387 -11.158  0.00  0.00    -0.228 NA
ATOM     29  C   UNL     1      36.151 -24.656 -13.483  0.00  0.00    +0.077 C 
ATOM     30  C   UNL     1      35.637 -24.921 -12.205  0.00  0.00    +0.139 C 
ATOM     31  C   UNL     1      37.525 -24.908 -13.651  0.00  0.00    +0.019 C 
ATOM     32  C   UNL     1      38.296 -25.388 -12.598  0.00  0.00    +0.022 C 
ATOM     33  C   UNL     1      37.668 -25.609 -11.383  0.00  0.00    +0.100 C 
ATOM     34  N   UNL     1      34.255 -24.677 -12.000  0.00  0.00    -0.342 N 
ATOM     35  H   UNL     1      33.851 -24.849 -11.119  0.00  0.00    +0.144 HD
ATOM     36  H   UNL     1      33.700 -24.337 -12.739  0.00  0.00    +0.144 HD
ENDBRANCH  26  29
ENDBRANCH  25  26
ENDBRANCH   2  25
TORSDOF 7
ENDMDL
MODEL 5
REMARK VINA RESULT:     -10.8      8.778     15.136
REMARK  Name = 11633167
REMARK  7 active torsions:
REMARK  status: ('A' for Active; 'I' for Inactive)
REMARK    1  A    between atoms: C_1  and  C_8
REMARK    2  A    between atoms: C_2  and  C_25
REMARK    3  A    between atoms: C_4  and  O_17
REMARK    4  A    between atoms: O_17  and  C_18
REMARK    5  A    between atoms: C_18  and  C_20
REMARK    6  A    between atoms: C_25  and  N_26
REMARK    7  A    between atoms: N_26  and  C_29
REMARK                            x       y       z     vdW  Elec       q    Type
REMARK                         _______ _______ _______ _____ _____    ______ ____
ROOT
ATOM      1  C   UNL     1      32.935 -13.423 -22.206  0.00  0.00    -0.000 C 
ATOM      2  C   UNL     1      32.962 -11.142 -22.999  0.00  0.00    +0.031 C 
ATOM      3  C   UNL     1      33.437 -12.452 -23.072  0.00  0.00    +0.000 C 
ATOM      4  C   UNL     1      31.986 -10.805 -22.062  0.00  0.00    +0.137 C 
ATOM      5  C   UNL     1      31.960 -13.087 -21.269  0.00  0.00    +0.003 C 
ATOM      6  C   UNL     1      31.484 -11.777 -21.197  0.00  0.00    +0.037 C 
ENDROOT
BRANCH   1   8
ATOM      7  N   UNL     1      34.801 -17.598 -20.269  0.00  0.00    -0.312 N 
ATOM      8  C   UNL     1      33.428 -14.783 -22.281  0.00  0.00    +0.001 C 
ATOM      9  C   UNL     1      34.324 -16.736 -21.230  0.00  0.00    +0.048 C 
ATOM     10  C   UNL     1      34.376 -17.413 -22.451  0.00  0.00    +0.015 C 
ATOM     11  C   UNL     1      33.856 -15.422 -21.114  0.00  0.00    +0.015 C 
ATOM     12  C   UNL     1      33.468 -15.433 -23.512  0.00  0.00    +0.000 C 
ATOM     13  C   UNL     1      33.940 -16.747 -23.614  0.00  0.00    +0.001 C 
ATOM     14  C   UNL     1      34.898 -18.709 -22.188  0.00  0.00    +0.017 C 
ATOM     15  C   UNL     1      35.151 -18.793 -20.838  0.00  0.00    +0.062 C 
ATOM     16  H   UNL     1      34.879 -17.387 -19.310  0.00  0.00    +0.152 HD
ENDBRANCH   1   8
BRANCH   4  17
ATOM     17  O   UNL     1      31.511  -9.532 -21.977  0.00  0.00    -0.469 OA
BRANCH  17  18
ATOM     18  C   UNL     1      31.165  -9.053 -20.679  0.00  0.00    +0.251 C 
BRANCH  18  20
ATOM     19  N   UNL     1      30.194  -7.079 -21.688  0.00  0.00    -0.244 NA
ATOM     20  C   UNL     1      31.011  -7.562 -20.731  0.00  0.00    +0.103 C 
ATOM     21  C   UNL     1      31.697  -6.784 -19.819  0.00  0.00    +0.018 C 
ATOM     22  C   UNL     1      31.533  -5.406 -19.895  0.00  0.00    +0.003 C 
ATOM     23  C   UNL     1      30.059  -5.735 -21.731  0.00  0.00    +0.099 C 
ATOM     24  C   UNL     1      30.700  -4.862 -20.866  0.00  0.00    +0.021 C 
ENDBRANCH  18  20
ENDBRANCH  17  18
ENDBRANCH   4  17
BRANCH   2  25
ATOM     25  C   UNL     1      33.509 -10.114 -23.933  0.00  0.00    +0.117 C 
BRANCH  25  26
ATOM     26  N   UNL     1      32.491  -9.154 -24.360  0.00  0.00    -0.327 N 
ATOM     27  H   UNL     1      31.653  -9.497 -24.747  0.00  0.00    +0.147 HD
BRANCH  26  29
ATOM     28  N   UNL     1      31.978  -5.518 -24.847  0.00  0.00    -0.228 NA
ATOM     29  C   UNL     1      32.650  -7.792 -24.248  0.00  0.00    +0.077 C 
ATOM     30  C   UNL     1      31.853  -6.861 -24.932  0.00  0.00    +0.139 C 
ATOM     31  C   UNL     1      33.647  -7.247 -23.418  0.00  0.00    +0.019 C 
ATOM     32  C   UNL     1      33.807  -5.870 -23.305  0.00  0.00    +0.022 C 
ATOM     33  C   UNL     1      32.954  -5.056 -24.034  0.00  0.00    +0.100 C 
ATOM     34  N   UNL     1      30.838  -7.376 -25.777  0.00  0.00    -0.342 N 
ATOM     35  H   UNL     1      30.255  -6.761 -26.277  0.00  0.00    +0.144 HD
ATOM     36  H   UNL     1      30.717  -8.350 -25.865  0.00  0.00    +0.144 HD
ENDBRANCH  26  29
ENDBRANCH  25  26
ENDBRANCH   2  25
TORSDOF 7
ENDMDL
MODEL 6
REMARK VINA RESULT:     -10.5      2.098      7.013
REMARK  Name = 11633167
REMARK  7 active torsions:
REMARK  status: ('A' for Active; 'I' for Inactive)
REMARK    1  A    between atoms: C_1  and  C_8
REMARK    2  A    between atoms: C_2  and  C_25
REMARK    3  A    between atoms: C_4  and  O_17
REMARK    4  A    between atoms: O_17  and  C_18
REMARK    5  A    between atoms: C_18  and  C_20
REMARK    6  A    between atoms: C_25  and  N_26
REMARK    7  A    between atoms: N_26  and  C_29
REMARK                            x       y       z     vdW  Elec       q    Type
REMARK                         _______ _______ _______ _____ _____    ______ ____
ROOT
ATOM      1  C   UNL     1      32.686 -22.922 -14.642  0.00  0.00    -0.000 C 
ATOM      2  C   UNL     1      34.705 -22.247 -15.783  0.00  0.00    +0.031 C 
ATOM      3  C   UNL     1      33.327 -22.465 -15.794  0.00  0.00    +0.000 C 
ATOM      4  C   UNL     1      35.440 -22.485 -14.622  0.00  0.00    +0.137 C 
ATOM      5  C   UNL     1      33.420 -23.160 -13.481  0.00  0.00    +0.003 C 
ATOM      6  C   UNL     1      34.798 -22.941 -13.471  0.00  0.00    +0.037 C 
ENDROOT
BRANCH   1   8
ATOM      7  N   UNL     1      28.088 -22.293 -16.411  0.00  0.00    -0.312 N 
ATOM      8  C   UNL     1      31.256 -23.149 -14.653  0.00  0.00    +0.001 C 
ATOM      9  C   UNL     1      29.091 -22.766 -15.596  0.00  0.00    +0.048 C 
ATOM     10  C   UNL     1      28.492 -23.605 -14.652  0.00  0.00    +0.015 C 
ATOM     11  C   UNL     1      30.469 -22.520 -15.621  0.00  0.00    +0.015 C 
ATOM     12  C   UNL     1      30.687 -23.990 -13.699  0.00  0.00    +0.000 C 
ATOM     13  C   UNL     1      29.307 -24.227 -13.686  0.00  0.00    +0.001 C 
ATOM     14  C   UNL     1      27.098 -23.619 -14.931  0.00  0.00    +0.017 C 
ATOM     15  C   UNL     1      26.879 -22.802 -16.017  0.00  0.00    +0.062 C 
ATOM     16  H   UNL     1      28.220 -21.677 -17.168  0.00  0.00    +0.152 HD
ENDBRANCH   1   8
BRANCH   4  17
ATOM     17  O   UNL     1      36.786 -22.278 -14.594  0.00  0.00    -0.469 OA
BRANCH  17  18
ATOM     18  C   UNL     1      37.622 -23.427 -14.702  0.00  0.00    +0.251 C 
BRANCH  18  20
ATOM     19  N   UNL     1      37.561 -24.003 -12.351  0.00  0.00    -0.244 NA
ATOM     20  C   UNL     1      37.271 -24.393 -13.609  0.00  0.00    +0.103 C 
ATOM     21  C   UNL     1      36.683 -25.598 -13.940  0.00  0.00    +0.018 C 
ATOM     22  C   UNL     1      36.371 -26.470 -12.904  0.00  0.00    +0.003 C 
ATOM     23  C   UNL     1      37.243 -24.876 -11.370  0.00  0.00    +0.099 C 
ATOM     24  C   UNL     1      36.652 -26.110 -11.591  0.00  0.00    +0.021 C 
ENDBRANCH  18  20
ENDBRANCH  17  18
ENDBRANCH   4  17
BRANCH   2  25
ATOM     25  C   UNL     1      35.376 -21.759 -17.023  0.00  0.00    +0.117 C 
BRANCH  25  26
ATOM     26  N   UNL     1      34.538 -21.925 -18.211  0.00  0.00    -0.327 N 
ATOM     27  H   UNL     1      34.139 -22.808 -18.386  0.00  0.00    +0.147 HD
BRANCH  26  29
ATOM     28  N   UNL     1      32.696 -19.567 -20.395  0.00  0.00    -0.228 NA
ATOM     29  C   UNL     1      34.280 -20.904 -19.097  0.00  0.00    +0.077 C 
ATOM     30  C   UNL     1      32.989 -20.561 -19.527  0.00  0.00    +0.139 C 
ATOM     31  C   UNL     1      35.326 -20.131 -19.632  0.00  0.00    +0.019 C 
ATOM     32  C   UNL     1      35.064 -19.099 -20.528  0.00  0.00    +0.022 C 
ATOM     33  C   UNL     1      33.743 -18.860 -20.874  0.00  0.00    +0.100 C 
ATOM     34  N   UNL     1      31.911 -21.322 -19.008  0.00  0.00    -0.342 N 
ATOM     35  H   UNL     1      30.988 -21.116 -19.281  0.00  0.00    +0.144 HD
ATOM     36  H   UNL     1      32.085 -22.054 -18.373  0.00  0.00    +0.144 HD
ENDBRANCH  26  29
ENDBRANCH  25  26
ENDBRANCH   2  25
TORSDOF 7
ENDMDL
MODEL 7
REMARK VINA RESULT:     -10.3      9.969     15.704
REMARK  Name = 11633167
REMARK  7 active torsions:
REMARK  status: ('A' for Active; 'I' for Inactive)
REMARK    1  A    between atoms: C_1  and  C_8
REMARK    2  A    between atoms: C_2  and  C_25
REMARK    3  A    between atoms: C_4  and  O_17
REMARK    4  A    between atoms: O_17  and  C_18
REMARK    5  A    between atoms: C_18  and  C_20
REMARK    6  A    between atoms: C_25  and  N_26
REMARK    7  A    between atoms: N_26  and  C_29
REMARK                            x       y       z     vdW  Elec       q    Type
REMARK                         _______ _______ _______ _____ _____    ______ ____
ROOT
ATOM      1  C   UNL     1      33.226 -10.392 -23.702  0.00  0.00    -0.000 C 
ATOM      2  C   UNL     1      32.140  -8.314 -23.122  0.00  0.00    +0.031 C 
ATOM      3  C   UNL     1      32.073  -9.688 -23.357  0.00  0.00    +0.000 C 
ATOM      4  C   UNL     1      33.359  -7.647 -23.234  0.00  0.00    +0.137 C 
ATOM      5  C   UNL     1      34.445  -9.725 -23.814  0.00  0.00    +0.003 C 
ATOM      6  C   UNL     1      34.512  -8.352 -23.578  0.00  0.00    +0.037 C 
ENDROOT
BRANCH   1   8
ATOM      7  N   UNL     1      33.768 -15.161 -22.427  0.00  0.00    -0.312 N 
ATOM      8  C   UNL     1      33.157 -11.818 -23.946  0.00  0.00    +0.001 C 
ATOM      9  C   UNL     1      33.461 -14.075 -23.214  0.00  0.00    +0.048 C 
ATOM     10  C   UNL     1      33.013 -14.571 -24.441  0.00  0.00    +0.015 C 
ATOM     11  C   UNL     1      33.543 -12.705 -22.938  0.00  0.00    +0.015 C 
ATOM     12  C   UNL     1      32.707 -12.283 -25.179  0.00  0.00    +0.000 C 
ATOM     13  C   UNL     1      32.630 -13.656 -25.442  0.00  0.00    +0.001 C 
ATOM     14  C   UNL     1      33.062 -15.990 -24.361  0.00  0.00    +0.017 C 
ATOM     15  C   UNL     1      33.531 -16.323 -23.111  0.00  0.00    +0.062 C 
ATOM     16  H   UNL     1      34.110 -15.111 -21.505  0.00  0.00    +0.152 HD
ENDBRANCH   1   8
BRANCH   4  17
ATOM     17  O   UNL     1      33.443  -6.306 -23.008  0.00  0.00    -0.469 OA
BRANCH  17  18
ATOM     18  C   UNL     1      33.935  -5.498 -24.076  0.00  0.00    +0.251 C 
BRANCH  18  20
ATOM     19  N   UNL     1      31.761  -4.662 -24.735  0.00  0.00    -0.244 NA
ATOM     20  C   UNL     1      32.860  -5.347 -25.111  0.00  0.00    +0.103 C 
ATOM     21  C   UNL     1      33.049  -5.902 -26.362  0.00  0.00    +0.018 C 
ATOM     22  C   UNL     1      32.033  -5.744 -27.298  0.00  0.00    +0.003 C 
ATOM     23  C   UNL     1      30.795  -4.528 -25.672  0.00  0.00    +0.099 C 
ATOM     24  C   UNL     1      30.882  -5.045 -26.955  0.00  0.00    +0.021 C 
ENDBRANCH  18  20
ENDBRANCH  17  18
ENDBRANCH   4  17
BRANCH   2  25
ATOM     25  C   UNL     1      30.897  -7.575 -22.754  0.00  0.00    +0.117 C 
BRANCH  25  26
ATOM     26  N   UNL     1      30.817  -7.304 -21.318  0.00  0.00    -0.327 N 
ATOM     27  H   UNL     1      30.727  -6.370 -21.019  0.00  0.00    +0.147 HD
BRANCH  26  29
ATOM     28  N   UNL     1      31.665  -9.139 -18.214  0.00  0.00    -0.228 NA
ATOM     29  C   UNL     1      30.861  -8.294 -20.364  0.00  0.00    +0.077 C 
ATOM     30  C   UNL     1      31.596  -8.189 -19.173  0.00  0.00    +0.139 C 
ATOM     31  C   UNL     1      30.151  -9.497 -20.537  0.00  0.00    +0.019 C 
ATOM     32  C   UNL     1      30.197 -10.498 -19.572  0.00  0.00    +0.022 C 
ATOM     33  C   UNL     1      30.961 -10.271 -18.439  0.00  0.00    +0.100 C 
ATOM     34  N   UNL     1      32.324  -6.990 -18.967  0.00  0.00    -0.342 N 
ATOM     35  H   UNL     1      32.854  -6.872 -18.146  0.00  0.00    +0.144 HD
ATOM     36  H   UNL     1      32.299  -6.275 -19.644  0.00  0.00    +0.144 HD
ENDBRANCH  26  29
ENDBRANCH  25  26
ENDBRANCH   2  25
TORSDOF 7
ENDMDL
MODEL 8
REMARK VINA RESULT:     -10.1      2.109      8.320
REMARK  Name = 11633167
REMARK  7 active torsions:
REMARK  status: ('A' for Active; 'I' for Inactive)
REMARK    1  A    between atoms: C_1  and  C_8
REMARK    2  A    between atoms: C_2  and  C_25
REMARK    3  A    between atoms: C_4  and  O_17
REMARK    4  A    between atoms: O_17  and  C_18
REMARK    5  A    between atoms: C_18  and  C_20
REMARK    6  A    between atoms: C_25  and  N_26
REMARK    7  A    between atoms: N_26  and  C_29
REMARK                            x       y       z     vdW  Elec       q    Type
REMARK                         _______ _______ _______ _____ _____    ______ ____
ROOT
ATOM      1  C   UNL     1      32.836 -22.819 -15.797  0.00  0.00    -0.000 C 
ATOM      2  C   UNL     1      35.111 -22.020 -15.919  0.00  0.00    +0.031 C 
ATOM      3  C   UNL     1      34.081 -22.628 -15.201  0.00  0.00    +0.000 C 
ATOM      4  C   UNL     1      34.893 -21.603 -17.232  0.00  0.00    +0.137 C 
ATOM      5  C   UNL     1      32.617 -22.404 -17.109  0.00  0.00    +0.003 C 
ATOM      6  C   UNL     1      33.647 -21.796 -17.828  0.00  0.00    +0.037 C 
ENDROOT
BRANCH   1   8
ATOM      7  N   UNL     1      28.136 -24.271 -15.113  0.00  0.00    -0.312 N 
ATOM      8  C   UNL     1      31.767 -23.450 -15.052  0.00  0.00    +0.001 C 
ATOM      9  C   UNL     1      29.473 -24.097 -14.839  0.00  0.00    +0.048 C 
ATOM     10  C   UNL     1      29.716 -24.678 -13.591  0.00  0.00    +0.015 C 
ATOM     11  C   UNL     1      30.477 -23.477 -15.591  0.00  0.00    +0.015 C 
ATOM     12  C   UNL     1      32.038 -24.021 -13.810  0.00  0.00    +0.000 C 
ATOM     13  C   UNL     1      31.024 -24.638 -13.068  0.00  0.00    +0.001 C 
ATOM     14  C   UNL     1      28.479 -25.207 -13.129  0.00  0.00    +0.017 C 
ATOM     15  C   UNL     1      27.526 -24.940 -14.085  0.00  0.00    +0.062 C 
ATOM     16  H   UNL     1      27.682 -23.960 -15.929  0.00  0.00    +0.152 HD
ENDBRANCH   1   8
BRANCH   4  17
ATOM     17  O   UNL     1      35.887 -21.008 -17.948  0.00  0.00    -0.469 OA
BRANCH  17  18
ATOM     18  C   UNL     1      35.849 -21.164 -19.365  0.00  0.00    +0.251 C 
BRANCH  18  20
ATOM     19  N   UNL     1      36.332 -18.892 -20.049  0.00  0.00    -0.244 NA
ATOM     20  C   UNL     1      35.408 -19.873 -19.989  0.00  0.00    +0.103 C 
ATOM     21  C   UNL     1      34.114 -19.760 -20.457  0.00  0.00    +0.018 C 
ATOM     22  C   UNL     1      33.737 -18.551 -21.029  0.00  0.00    +0.003 C 
ATOM     23  C   UNL     1      35.930 -17.731 -20.611  0.00  0.00    +0.099 C 
ATOM     24  C   UNL     1      34.657 -17.511 -21.112  0.00  0.00    +0.021 C 
ENDBRANCH  18  20
ENDBRANCH  17  18
ENDBRANCH   4  17
BRANCH   2  25
ATOM     25  C   UNL     1      36.439 -21.822 -15.267  0.00  0.00    +0.117 C 
BRANCH  25  26
ATOM     26  N   UNL     1      37.187 -23.073 -15.140  0.00  0.00    -0.327 N 
ATOM     27  H   UNL     1      37.715 -23.386 -15.910  0.00  0.00    +0.147 HD
BRANCH  26  29
ATOM     28  N   UNL     1      38.093 -25.682 -12.671  0.00  0.00    -0.228 NA
ATOM     29  C   UNL     1      37.188 -23.834 -13.994  0.00  0.00    +0.077 C 
ATOM     30  C   UNL     1      38.062 -24.911 -13.782  0.00  0.00    +0.139 C 
ATOM     31  C   UNL     1      36.289 -23.563 -12.946  0.00  0.00    +0.019 C 
ATOM     32  C   UNL     1      36.291 -24.333 -11.787  0.00  0.00    +0.022 C 
ATOM     33  C   UNL     1      37.205 -25.372 -11.701  0.00  0.00    +0.100 C 
ATOM     34  N   UNL     1      38.981 -25.212 -14.818  0.00  0.00    -0.342 N 
ATOM     35  H   UNL     1      39.613 -25.960 -14.713  0.00  0.00    +0.144 HD
ATOM     36  H   UNL     1      38.988 -24.673 -15.643  0.00  0.00    +0.144 HD
ENDBRANCH  26  29
ENDBRANCH  25  26
ENDBRANCH   2  25
TORSDOF 7
ENDMDL
MODEL 9
REMARK VINA RESULT:     -10.1      1.933      7.884
REMARK  Name = 11633167
REMARK  7 active torsions:
REMARK  status: ('A' for Active; 'I' for Inactive)
REMARK    1  A    between atoms: C_1  and  C_8
REMARK    2  A    between atoms: C_2  and  C_25
REMARK    3  A    between atoms: C_4  and  O_17
REMARK    4  A    between atoms: O_17  and  C_18
REMARK    5  A    between atoms: C_18  and  C_20
REMARK    6  A    between atoms: C_25  and  N_26
REMARK    7  A    between atoms: N_26  and  C_29
REMARK                            x       y       z     vdW  Elec       q    Type
REMARK                         _______ _______ _______ _____ _____    ______ ____
ROOT
ATOM      1  C   UNL     1      34.749 -22.489 -15.776  0.00  0.00    -0.000 C 
ATOM      2  C   UNL     1      32.794 -22.300 -17.180  0.00  0.00    +0.031 C 
ATOM      3  C   UNL     1      33.382 -22.681 -15.974  0.00  0.00    +0.000 C 
ATOM      4  C   UNL     1      33.572 -21.730 -18.187  0.00  0.00    +0.137 C 
ATOM      5  C   UNL     1      35.528 -21.919 -16.782  0.00  0.00    +0.003 C 
ATOM      6  C   UNL     1      34.939 -21.538 -17.988  0.00  0.00    +0.037 C 
ENDROOT
BRANCH   1   8
ATOM      7  N   UNL     1      34.761 -23.251 -10.868  0.00  0.00    -0.312 N 
ATOM      8  C   UNL     1      35.361 -22.884 -14.524  0.00  0.00    +0.001 C 
ATOM      9  C   UNL     1      35.242 -23.210 -12.158  0.00  0.00    +0.048 C 
ATOM     10  C   UNL     1      36.566 -23.653 -12.116  0.00  0.00    +0.015 C 
ATOM     11  C   UNL     1      34.613 -22.820 -13.345  0.00  0.00    +0.015 C 
ATOM     12  C   UNL     1      36.683 -23.322 -14.513  0.00  0.00    +0.000 C 
ATOM     13  C   UNL     1      37.300 -23.709 -13.318  0.00  0.00    +0.001 C 
ATOM     14  C   UNL     1      36.861 -23.962 -10.759  0.00  0.00    +0.017 C 
ATOM     15  C   UNL     1      35.732 -23.704 -10.016  0.00  0.00    +0.062 C 
ATOM     16  H   UNL     1      33.850 -22.992 -10.598  0.00  0.00    +0.152 HD
ENDBRANCH   1   8
BRANCH   4  17
ATOM     17  O   UNL     1      33.014 -21.353 -19.371  0.00  0.00    -0.469 OA
BRANCH  17  18
ATOM     18  C   UNL     1      32.698 -19.971 -19.528  0.00  0.00    +0.251 C 
BRANCH  18  20
ATOM     19  N   UNL     1      34.842 -18.928 -19.948  0.00  0.00    -0.244 NA
ATOM     20  C   UNL     1      33.678 -19.351 -20.480  0.00  0.00    +0.103 C 
ATOM     21  C   UNL     1      33.344 -19.249 -21.816  0.00  0.00    +0.018 C 
ATOM     22  C   UNL     1      34.273 -18.669 -22.672  0.00  0.00    +0.003 C 
ATOM     23  C   UNL     1      35.721 -18.369 -20.809  0.00  0.00    +0.099 C 
ATOM     24  C   UNL     1      35.488 -18.218 -22.167  0.00  0.00    +0.021 C 
ENDBRANCH  18  20
ENDBRANCH  17  18
ENDBRANCH   4  17
BRANCH   2  25
ATOM     25  C   UNL     1      31.329 -22.512 -17.376  0.00  0.00    +0.117 C 
BRANCH  25  26
ATOM     26  N   UNL     1      30.549 -22.117 -16.203  0.00  0.00    -0.327 N 
ATOM     27  H   UNL     1      30.481 -21.159 -15.984  0.00  0.00    +0.147 HD
BRANCH  26  29
ATOM     28  N   UNL     1      27.862 -24.165 -14.685  0.00  0.00    -0.228 NA
ATOM     29  C   UNL     1      29.905 -23.021 -15.391  0.00  0.00    +0.077 C 
ATOM     30  C   UNL     1      28.529 -23.286 -15.466  0.00  0.00    +0.139 C 
ATOM     31  C   UNL     1      30.613 -23.747 -14.415  0.00  0.00    +0.019 C 
ATOM     32  C   UNL     1      29.961 -24.661 -13.594  0.00  0.00    +0.022 C 
ATOM     33  C   UNL     1      28.597 -24.831 -13.768  0.00  0.00    +0.100 C 
ATOM     34  N   UNL     1      27.785 -22.570 -16.438  0.00  0.00    -0.342 N 
ATOM     35  H   UNL     1      26.817 -22.724 -16.526  0.00  0.00    +0.144 HD
ATOM     36  H   UNL     1      28.237 -21.921 -17.024  0.00  0.00    +0.144 HD
ENDBRANCH  26  29
ENDBRANCH  25  26
ENDBRANCH   2  25
TORSDOF 7
ENDMDL
