MODEL 1
REMARK VINA RESULT:     -12.0      0.000      0.000
REMARK  Name = 46911863
REMARK  3 active torsions:
REMARK  status: ('A' for Active; 'I' for Inactive)
REMARK    1  A    between atoms: C_5  and  C_18
REMARK    2  A    between atoms: C_7  and  C_12
REMARK    3  A    between atoms: C_18  and  C_20
REMARK                            x       y       z     vdW  Elec       q    Type
REMARK                         _______ _______ _______ _____ _____    ______ ____
ROOT
ATOM      1  N   UNL     1      33.524 -21.982 -17.339  0.00  0.00    -0.190 N 
ATOM      2  N   UNL     1      34.521 -22.383 -16.512  0.00  0.00    -0.162 NA
ATOM      3  N   UNL     1      32.469 -21.078 -19.034  0.00  0.00    -0.126 NA
ATOM      4  N   UNL     1      31.530 -21.632 -18.188  0.00  0.00    -0.127 NA
ATOM      5  C   UNL     1      33.655 -21.298 -18.511  0.00  0.00    +0.228 A 
ATOM      6  C   UNL     1      32.172 -22.172 -17.173  0.00  0.00    +0.187 A 
ATOM      7  C   UNL     1      34.104 -23.015 -15.451  0.00  0.00    +0.104 C 
ATOM      8  C   UNL     1      31.751 -22.872 -16.026  0.00  0.00    +0.042 C 
ATOM      9  C   UNL     1      32.665 -23.309 -15.151  0.00  0.00    +0.024 C 
ENDROOT
BRANCH   7  12
ATOM     10  N   UNL     1      36.124 -24.687 -12.940  0.00  0.00    -0.208 N 
ATOM     11  N   UNL     1      36.974 -23.670 -13.166  0.00  0.00    -0.176 NA
ATOM     12  C   UNL     1      35.102 -23.501 -14.463  0.00  0.00    +0.056 C 
ATOM     13  C   UNL     1      34.988 -24.632 -13.691  0.00  0.00    +0.087 C 
ATOM     14  C   UNL     1      36.343 -22.949 -14.097  0.00  0.00    +0.121 C 
ATOM     15  C   UNL     1      36.464 -25.702 -11.972  0.00  0.00    +0.140 C 
ENDBRANCH   7  12
BRANCH   5  18
ATOM     16  F   UNL     1      35.639 -21.970 -19.638  0.00  0.00    -0.191 F 
ATOM     17  F   UNL     1      35.861 -20.538 -18.050  0.00  0.00    -0.191 F 
ATOM     18  C   UNL     1      35.007 -20.872 -19.085  0.00  0.00    +0.335 C 
BRANCH  18  20
ATOM     19  N   UNL     1      34.511 -16.631 -22.797  0.00  0.00    -0.244 NA
ATOM     20  C   UNL     1      34.869 -19.760 -20.068  0.00  0.00    +0.045 C 
ATOM     21  C   UNL     1      34.003 -19.886 -21.150  0.00  0.00    +0.003 C 
ATOM     22  C   UNL     1      33.870 -18.840 -22.079  0.00  0.00    +0.018 C 
ATOM     23  C   UNL     1      35.605 -18.593 -19.910  0.00  0.00    +0.003 C 
ATOM     24  C   UNL     1      34.614 -17.652 -21.925  0.00  0.00    +0.081 C 
ATOM     25  C   UNL     1      35.473 -17.554 -20.834  0.00  0.00    +0.019 C 
ATOM     26  C   UNL     1      33.005 -18.939 -23.177  0.00  0.00    +0.003 C 
ATOM     27  C   UNL     1      32.897 -17.888 -24.077  0.00  0.00    +0.021 C 
ATOM     28  C   UNL     1      33.665 -16.766 -23.843  0.00  0.00    +0.099 C 
ENDBRANCH  18  20
ENDBRANCH   5  18
TORSDOF 3
ENDMDL
MODEL 2
REMARK VINA RESULT:     -12.0      2.893      5.094
REMARK  Name = 46911863
REMARK  3 active torsions:
REMARK  status: ('A' for Active; 'I' for Inactive)
REMARK    1  A    between atoms: C_5  and  C_18
REMARK    2  A    between atoms: C_7  and  C_12
REMARK    3  A    between atoms: C_18  and  C_20
REMARK                            x       y       z     vdW  Elec       q    Type
REMARK                         _______ _______ _______ _____ _____    ______ ____
ROOT
ATOM      1  N   UNL     1      32.408 -22.764 -15.709  0.00  0.00    -0.190 N 
ATOM      2  N   UNL     1      31.062 -22.797 -15.874  0.00  0.00    -0.162 NA
ATOM      3  N   UNL     1      34.549 -22.584 -16.139  0.00  0.00    -0.126 NA
ATOM      4  N   UNL     1      34.401 -22.854 -14.794  0.00  0.00    -0.127 NA
ATOM      5  C   UNL     1      33.348 -22.533 -16.670  0.00  0.00    +0.228 A 
ATOM      6  C   UNL     1      33.113 -22.960 -14.544  0.00  0.00    +0.187 A 
ATOM      7  C   UNL     1      30.402 -23.049 -14.779  0.00  0.00    +0.104 C 
ATOM      8  C   UNL     1      32.373 -23.214 -13.373  0.00  0.00    +0.042 C 
ATOM      9  C   UNL     1      31.037 -23.264 -13.438  0.00  0.00    +0.024 C 
ENDROOT
BRANCH   7  12
ATOM     10  N   UNL     1      26.807 -22.571 -14.951  0.00  0.00    -0.208 N 
ATOM     11  N   UNL     1      26.778 -23.912 -14.857  0.00  0.00    -0.176 NA
ATOM     12  C   UNL     1      28.918 -23.117 -14.831  0.00  0.00    +0.056 C 
ATOM     13  C   UNL     1      28.065 -22.045 -14.940  0.00  0.00    +0.087 C 
ATOM     14  C   UNL     1      28.071 -24.239 -14.784  0.00  0.00    +0.121 C 
ATOM     15  C   UNL     1      25.571 -21.833 -15.053  0.00  0.00    +0.140 C 
ENDBRANCH   7  12
BRANCH   5  18
ATOM     16  F   UNL     1      31.687 -21.837 -18.223  0.00  0.00    -0.191 F 
ATOM     17  F   UNL     1      32.963 -23.459 -18.827  0.00  0.00    -0.191 F 
ATOM     18  C   UNL     1      32.999 -22.263 -18.133  0.00  0.00    +0.335 C 
BRANCH  18  20
ATOM     19  N   UNL     1      36.597 -18.584 -20.487  0.00  0.00    -0.244 NA
ATOM     20  C   UNL     1      33.939 -21.290 -18.760  0.00  0.00    +0.045 C 
ATOM     21  C   UNL     1      33.492 -20.427 -19.755  0.00  0.00    +0.003 C 
ATOM     22  C   UNL     1      34.375 -19.507 -20.348  0.00  0.00    +0.018 C 
ATOM     23  C   UNL     1      35.267 -21.241 -18.354  0.00  0.00    +0.003 C 
ATOM     24  C   UNL     1      35.724 -19.452 -19.940  0.00  0.00    +0.081 C 
ATOM     25  C   UNL     1      36.144 -20.328 -18.943  0.00  0.00    +0.019 C 
ATOM     26  C   UNL     1      33.952 -18.626 -21.351  0.00  0.00    +0.003 C 
ATOM     27  C   UNL     1      34.848 -17.730 -21.916  0.00  0.00    +0.021 C 
ATOM     28  C   UNL     1      36.148 -17.750 -21.453  0.00  0.00    +0.099 C 
ENDBRANCH  18  20
ENDBRANCH   5  18
TORSDOF 3
ENDMDL
MODEL 3
REMARK VINA RESULT:     -12.0      0.990      1.536
REMARK  Name = 46911863
REMARK  3 active torsions:
REMARK  status: ('A' for Active; 'I' for Inactive)
REMARK    1  A    between atoms: C_5  and  C_18
REMARK    2  A    between atoms: C_7  and  C_12
REMARK    3  A    between atoms: C_18  and  C_20
REMARK                            x       y       z     vdW  Elec       q    Type
REMARK                         _______ _______ _______ _____ _____    ______ ____
ROOT
ATOM      1  N   UNL     1      33.505 -21.665 -17.741  0.00  0.00    -0.190 N 
ATOM      2  N   UNL     1      34.578 -22.013 -16.989  0.00  0.00    -0.162 NA
ATOM      3  N   UNL     1      32.285 -20.804 -19.346  0.00  0.00    -0.126 NA
ATOM      4  N   UNL     1      31.441 -21.432 -18.452  0.00  0.00    -0.127 NA
ATOM      5  C   UNL     1      33.514 -20.954 -18.905  0.00  0.00    +0.228 A 
ATOM      6  C   UNL     1      32.181 -21.946 -17.493  0.00  0.00    +0.187 A 
ATOM      7  C   UNL     1      34.273 -22.688 -15.917  0.00  0.00    +0.104 C 
ATOM      8  C   UNL     1      31.883 -22.691 -16.335  0.00  0.00    +0.042 C 
ATOM      9  C   UNL     1      32.879 -23.081 -15.530  0.00  0.00    +0.024 C 
ENDROOT
BRANCH   7  12
ATOM     10  N   UNL     1      36.479 -24.114 -13.410  0.00  0.00    -0.208 N 
ATOM     11  N   UNL     1      37.409 -23.356 -14.018  0.00  0.00    -0.176 NA
ATOM     12  C   UNL     1      35.364 -23.125 -15.005  0.00  0.00    +0.056 C 
ATOM     13  C   UNL     1      35.237 -24.010 -13.963  0.00  0.00    +0.087 C 
ATOM     14  C   UNL     1      36.721 -22.754 -14.991  0.00  0.00    +0.121 C 
ATOM     15  C   UNL     1      36.849 -24.933 -12.280  0.00  0.00    +0.140 C 
ENDBRANCH   7  12
BRANCH   5  18
ATOM     16  F   UNL     1      35.549 -21.497 -20.010  0.00  0.00    -0.191 F 
ATOM     17  F   UNL     1      35.616 -19.889 -18.585  0.00  0.00    -0.191 F 
ATOM     18  C   UNL     1      34.795 -20.431 -19.556  0.00  0.00    +0.335 C 
BRANCH  18  20
ATOM     19  N   UNL     1      33.703 -16.752 -23.714  0.00  0.00    -0.244 NA
ATOM     20  C   UNL     1      34.508 -19.454 -20.645  0.00  0.00    +0.045 C 
ATOM     21  C   UNL     1      34.477 -18.090 -20.371  0.00  0.00    +0.003 C 
ATOM     22  C   UNL     1      34.207 -17.166 -21.395  0.00  0.00    +0.018 C 
ATOM     23  C   UNL     1      34.270 -19.900 -21.939  0.00  0.00    +0.003 C 
ATOM     24  C   UNL     1      33.965 -17.611 -22.710  0.00  0.00    +0.081 C 
ATOM     25  C   UNL     1      34.001 -18.981 -22.955  0.00  0.00    +0.019 C 
ATOM     26  C   UNL     1      34.170 -15.787 -21.147  0.00  0.00    +0.003 C 
ATOM     27  C   UNL     1      33.902 -14.900 -22.179  0.00  0.00    +0.021 C 
ATOM     28  C   UNL     1      33.677 -15.429 -23.434  0.00  0.00    +0.099 C 
ENDBRANCH  18  20
ENDBRANCH   5  18
TORSDOF 3
ENDMDL
MODEL 4
REMARK VINA RESULT:     -11.8      1.906      2.852
REMARK  Name = 46911863
REMARK  3 active torsions:
REMARK  status: ('A' for Active; 'I' for Inactive)
REMARK    1  A    between atoms: C_5  and  C_18
REMARK    2  A    between atoms: C_7  and  C_12
REMARK    3  A    between atoms: C_18  and  C_20
REMARK                            x       y       z     vdW  Elec       q    Type
REMARK                         _______ _______ _______ _____ _____    ______ ____
ROOT
ATOM      1  N   UNL     1      31.969 -22.798 -15.561  0.00  0.00    -0.190 N 
ATOM      2  N   UNL     1      33.001 -23.289 -14.830  0.00  0.00    -0.162 NA
ATOM      3  N   UNL     1      30.804 -22.012 -17.242  0.00  0.00    -0.126 NA
ATOM      4  N   UNL     1      29.982 -22.063 -16.135  0.00  0.00    -0.127 NA
ATOM      5  C   UNL     1      31.987 -22.456 -16.881  0.00  0.00    +0.228 A 
ATOM      6  C   UNL     1      30.689 -22.536 -15.130  0.00  0.00    +0.187 A 
ATOM      7  C   UNL     1      32.701 -23.521 -13.583  0.00  0.00    +0.104 C 
ATOM      8  C   UNL     1      30.388 -22.811 -13.782  0.00  0.00    +0.042 C 
ATOM      9  C   UNL     1      31.345 -23.300 -12.983  0.00  0.00    +0.024 C 
ENDROOT
BRANCH   7  12
ATOM     10  N   UNL     1      35.578 -24.974 -11.913  0.00  0.00    -0.208 N 
ATOM     11  N   UNL     1      34.900 -24.655 -10.797  0.00  0.00    -0.176 NA
ATOM     12  C   UNL     1      33.750 -24.056 -12.677  0.00  0.00    +0.056 C 
ATOM     13  C   UNL     1      34.933 -24.637 -13.066  0.00  0.00    +0.087 C 
ATOM     14  C   UNL     1      33.783 -24.095 -11.270  0.00  0.00    +0.121 C 
ATOM     15  C   UNL     1      36.868 -25.614 -11.810  0.00  0.00    +0.140 C 
ENDBRANCH   7  12
BRANCH   5  18
ATOM     16  F   UNL     1      33.187 -23.792 -18.441  0.00  0.00    -0.191 F 
ATOM     17  F   UNL     1      34.346 -22.746 -16.962  0.00  0.00    -0.191 F 
ATOM     18  C   UNL     1      33.229 -22.588 -17.762  0.00  0.00    +0.335 C 
BRANCH  18  20
ATOM     19  N   UNL     1      33.749 -18.206 -21.304  0.00  0.00    -0.244 NA
ATOM     20  C   UNL     1      33.376 -21.434 -18.693  0.00  0.00    +0.045 C 
ATOM     21  C   UNL     1      34.639 -20.927 -18.985  0.00  0.00    +0.003 C 
ATOM     22  C   UNL     1      34.782 -19.839 -19.864  0.00  0.00    +0.018 C 
ATOM     23  C   UNL     1      32.254 -20.858 -19.275  0.00  0.00    +0.003 C 
ATOM     24  C   UNL     1      33.647 -19.250 -20.458  0.00  0.00    +0.081 C 
ATOM     25  C   UNL     1      32.397 -19.777 -20.148  0.00  0.00    +0.019 C 
ATOM     26  C   UNL     1      36.041 -19.309 -20.176  0.00  0.00    +0.003 C 
ATOM     27  C   UNL     1      36.149 -18.235 -21.047  0.00  0.00    +0.021 C 
ATOM     28  C   UNL     1      34.982 -17.724 -21.580  0.00  0.00    +0.099 C 
ENDBRANCH  18  20
ENDBRANCH   5  18
TORSDOF 3
ENDMDL
MODEL 5
REMARK VINA RESULT:     -11.2      5.294      8.721
REMARK  Name = 46911863
REMARK  3 active torsions:
REMARK  status: ('A' for Active; 'I' for Inactive)
REMARK    1  A    between atoms: C_5  and  C_18
REMARK    2  A    between atoms: C_7  and  C_12
REMARK    3  A    between atoms: C_18  and  C_20
REMARK                            x       y       z     vdW  Elec       q    Type
REMARK                         _______ _______ _______ _____ _____    ______ ____
ROOT
ATOM      1  N   UNL     1      33.298 -15.805 -22.946  0.00  0.00    -0.190 N 
ATOM      2  N   UNL     1      33.892 -16.427 -21.898  0.00  0.00    -0.162 NA
ATOM      3  N   UNL     1      32.348 -14.263 -24.180  0.00  0.00    -0.126 NA
ATOM      4  N   UNL     1      32.409 -15.427 -24.918  0.00  0.00    -0.127 NA
ATOM      5  C   UNL     1      32.884 -14.507 -23.005  0.00  0.00    +0.228 A 
ATOM      6  C   UNL     1      32.981 -16.348 -24.170  0.00  0.00    +0.187 A 
ATOM      7  C   UNL     1      34.175 -17.679 -22.118  0.00  0.00    +0.104 C 
ATOM      8  C   UNL     1      33.313 -17.699 -24.386  0.00  0.00    +0.042 C 
ATOM      9  C   UNL     1      33.904 -18.395 -23.407  0.00  0.00    +0.024 C 
ENDROOT
BRANCH   7  12
ATOM     10  N   UNL     1      35.224 -19.972 -19.505  0.00  0.00    -0.208 N 
ATOM     11  N   UNL     1      36.333 -19.212 -19.496  0.00  0.00    -0.176 NA
ATOM     12  C   UNL     1      34.825 -18.472 -21.041  0.00  0.00    +0.056 C 
ATOM     13  C   UNL     1      34.289 -19.570 -20.413  0.00  0.00    +0.087 C 
ATOM     14  C   UNL     1      36.083 -18.298 -20.436  0.00  0.00    +0.121 C 
ATOM     15  C   UNL     1      35.115 -21.093 -18.602  0.00  0.00    +0.140 C 
ENDBRANCH   7  12
BRANCH   5  18
ATOM     16  F   UNL     1      34.301 -13.668 -21.289  0.00  0.00    -0.191 F 
ATOM     17  F   UNL     1      32.222 -13.909 -20.800  0.00  0.00    -0.191 F 
ATOM     18  C   UNL     1      33.043 -13.526 -21.844  0.00  0.00    +0.335 C 
BRANCH  18  20
ATOM     19  N   UNL     1      32.076  -8.192 -23.467  0.00  0.00    -0.244 NA
ATOM     20  C   UNL     1      32.781 -12.119 -22.264  0.00  0.00    +0.045 C 
ATOM     21  C   UNL     1      31.884 -11.331 -21.549  0.00  0.00    +0.003 C 
ATOM     22  C   UNL     1      31.635 -10.004 -21.941  0.00  0.00    +0.018 C 
ATOM     23  C   UNL     1      33.431 -11.588 -23.371  0.00  0.00    +0.003 C 
ATOM     24  C   UNL     1      32.292  -9.459 -23.064  0.00  0.00    +0.081 C 
ATOM     25  C   UNL     1      33.183 -10.270 -23.760  0.00  0.00    +0.019 C 
ATOM     26  C   UNL     1      30.738  -9.189 -21.239  0.00  0.00    +0.003 C 
ATOM     27  C   UNL     1      30.514  -7.883 -21.652  0.00  0.00    +0.021 C 
ATOM     28  C   UNL     1      31.202  -7.437 -22.762  0.00  0.00    +0.099 C 
ENDBRANCH  18  20
ENDBRANCH   5  18
TORSDOF 3
ENDMDL
MODEL 6
REMARK VINA RESULT:     -11.2      3.081      9.692
REMARK  Name = 46911863
REMARK  3 active torsions:
REMARK  status: ('A' for Active; 'I' for Inactive)
REMARK    1  A    between atoms: C_5  and  C_18
REMARK    2  A    between atoms: C_7  and  C_12
REMARK    3  A    between atoms: C_18  and  C_20
REMARK                            x       y       z     vdW  Elec       q    Type
REMARK                         _______ _______ _______ _____ _____    ______ ____
ROOT
ATOM      1  N   UNL     1      33.528 -16.874 -23.127  0.00  0.00    -0.190 N 
ATOM      2  N   UNL     1      33.533 -15.587 -22.700  0.00  0.00    -0.162 NA
ATOM      3  N   UNL     1      33.925 -19.026 -23.241  0.00  0.00    -0.126 NA
ATOM      4  N   UNL     1      33.138 -18.677 -24.319  0.00  0.00    -0.127 NA
ATOM      5  C   UNL     1      34.147 -17.937 -22.540  0.00  0.00    +0.228 A 
ATOM      6  C   UNL     1      32.904 -17.383 -24.243  0.00  0.00    +0.187 A 
ATOM      7  C   UNL     1      32.860 -14.775 -23.466  0.00  0.00    +0.104 C 
ATOM      8  C   UNL     1      32.171 -16.485 -25.043  0.00  0.00    +0.042 C 
ATOM      9  C   UNL     1      32.118 -15.192 -24.699  0.00  0.00    +0.024 C 
ENDROOT
BRANCH   7  12
ATOM     10  N   UNL     1      32.995 -11.159 -23.155  0.00  0.00    -0.208 N 
ATOM     11  N   UNL     1      32.381 -11.391 -21.981  0.00  0.00    -0.176 NA
ATOM     12  C   UNL     1      32.795 -13.334 -23.107  0.00  0.00    +0.056 C 
ATOM     13  C   UNL     1      33.265 -12.290 -23.867  0.00  0.00    +0.087 C 
ATOM     14  C   UNL     1      32.263 -12.721 -21.957  0.00  0.00    +0.121 C 
ATOM     15  C   UNL     1      33.302  -9.805 -23.549  0.00  0.00    +0.140 C 
ENDBRANCH   7  12
BRANCH   5  18
ATOM     16  F   UNL     1      34.676 -16.625 -20.628  0.00  0.00    -0.191 F 
ATOM     17  F   UNL     1      36.304 -17.660 -21.576  0.00  0.00    -0.191 F 
ATOM     18  C   UNL     1      34.968 -17.821 -21.256  0.00  0.00    +0.335 C 
BRANCH  18  20
ATOM     19  N   UNL     1      34.197 -22.249 -17.818  0.00  0.00    -0.244 NA
ATOM     20  C   UNL     1      34.755 -18.986 -20.351  0.00  0.00    +0.045 C 
ATOM     21  C   UNL     1      33.465 -19.379 -20.008  0.00  0.00    +0.003 C 
ATOM     22  C   UNL     1      33.259 -20.478 -19.155  0.00  0.00    +0.018 C 
ATOM     23  C   UNL     1      35.843 -19.686 -19.844  0.00  0.00    +0.003 C 
ATOM     24  C   UNL     1      34.359 -21.193 -18.638  0.00  0.00    +0.081 C 
ATOM     25  C   UNL     1      35.638 -20.777 -18.996  0.00  0.00    +0.019 C 
ATOM     26  C   UNL     1      31.971 -20.895 -18.795  0.00  0.00    +0.003 C 
ATOM     27  C   UNL     1      31.801 -21.984 -17.951  0.00  0.00    +0.021 C 
ATOM     28  C   UNL     1      32.937 -22.621 -17.495  0.00  0.00    +0.099 C 
ENDBRANCH  18  20
ENDBRANCH   5  18
TORSDOF 3
ENDMDL
MODEL 7
REMARK VINA RESULT:     -11.2      6.975     12.437
REMARK  Name = 46911863
REMARK  3 active torsions:
REMARK  status: ('A' for Active; 'I' for Inactive)
REMARK    1  A    between atoms: C_5  and  C_18
REMARK    2  A    between atoms: C_7  and  C_12
REMARK    3  A    between atoms: C_18  and  C_20
REMARK                            x       y       z     vdW  Elec       q    Type
REMARK                         _______ _______ _______ _____ _____    ______ ____
ROOT
ATOM      1  N   UNL     1      31.615 -11.380 -21.280  0.00  0.00    -0.190 N 
ATOM      2  N   UNL     1      31.786 -10.243 -21.997  0.00  0.00    -0.162 NA
ATOM      3  N   UNL     1      31.702 -13.483 -20.667  0.00  0.00    -0.126 NA
ATOM      4  N   UNL     1      30.996 -12.785 -19.709  0.00  0.00    -0.127 NA
ATOM      5  C   UNL     1      32.064 -12.628 -21.597  0.00  0.00    +0.228 A 
ATOM      6  C   UNL     1      30.949 -11.524 -20.084  0.00  0.00    +0.187 A 
ATOM      7  C   UNL     1      31.239  -9.191 -21.457  0.00  0.00    +0.104 C 
ATOM      8  C   UNL     1      30.382 -10.367 -19.515  0.00  0.00    +0.042 C 
ATOM      9  C   UNL     1      30.501  -9.195 -20.152  0.00  0.00    +0.024 C 
ENDROOT
BRANCH   7  12
ATOM     10  N   UNL     1      32.149  -6.128 -23.181  0.00  0.00    -0.208 N 
ATOM     11  N   UNL     1      30.830  -5.876 -23.109  0.00  0.00    -0.176 NA
ATOM     12  C   UNL     1      31.353  -7.881 -22.151  0.00  0.00    +0.056 C 
ATOM     13  C   UNL     1      32.514  -7.316 -22.622  0.00  0.00    +0.087 C 
ATOM     14  C   UNL     1      30.350  -6.950 -22.478  0.00  0.00    +0.121 C 
ATOM     15  C   UNL     1      33.028  -5.173 -23.812  0.00  0.00    +0.140 C 
ENDBRANCH   7  12
BRANCH   5  18
ATOM     16  F   UNL     1      34.044 -12.207 -22.848  0.00  0.00    -0.191 F 
ATOM     17  F   UNL     1      32.213 -12.396 -23.960  0.00  0.00    -0.191 F 
ATOM     18  C   UNL     1      32.865 -12.930 -22.864  0.00  0.00    +0.335 C 
BRANCH  18  20
ATOM     19  N   UNL     1      33.798 -18.472 -23.526  0.00  0.00    -0.244 NA
ATOM     20  C   UNL     1      33.116 -14.391 -23.029  0.00  0.00    +0.045 C 
ATOM     21  C   UNL     1      33.773 -15.105 -22.032  0.00  0.00    +0.003 C 
ATOM     22  C   UNL     1      34.010 -16.482 -22.184  0.00  0.00    +0.018 C 
ATOM     23  C   UNL     1      32.695 -15.046 -24.179  0.00  0.00    +0.003 C 
ATOM     24  C   UNL     1      33.586 -17.154 -23.349  0.00  0.00    +0.081 C 
ATOM     25  C   UNL     1      32.932 -16.414 -24.330  0.00  0.00    +0.019 C 
ATOM     26  C   UNL     1      34.669 -17.226 -21.195  0.00  0.00    +0.003 C 
ATOM     27  C   UNL     1      34.888 -18.585 -21.375  0.00  0.00    +0.021 C 
ATOM     28  C   UNL     1      34.436 -19.155 -22.548  0.00  0.00    +0.099 C 
ENDBRANCH  18  20
ENDBRANCH   5  18
TORSDOF 3
ENDMDL
MODEL 8
REMARK VINA RESULT:     -11.2      2.336      3.674
REMARK  Name = 46911863
REMARK  3 active torsions:
REMARK  status: ('A' for Active; 'I' for Inactive)
REMARK    1  A    between atoms: C_5  and  C_18
REMARK    2  A    between atoms: C_7  and  C_12
REMARK    3  A    between atoms: C_18  and  C_20
REMARK                            x       y       z     vdW  Elec       q    Type
REMARK                         _______ _______ _______ _____ _____    ______ ____
ROOT
ATOM      1  N   UNL     1      34.269 -22.379 -15.945  0.00  0.00    -0.190 N 
ATOM      2  N   UNL     1      33.030 -22.840 -15.641  0.00  0.00    -0.162 NA
ATOM      3  N   UNL     1      35.951 -21.524 -17.060  0.00  0.00    -0.126 NA
ATOM      4  N   UNL     1      36.389 -21.830 -15.787  0.00  0.00    -0.127 NA
ATOM      5  C   UNL     1      34.683 -21.858 -17.136  0.00  0.00    +0.228 A 
ATOM      6  C   UNL     1      35.373 -22.342 -15.125  0.00  0.00    +0.187 A 
ATOM      7  C   UNL     1      32.919 -23.291 -14.424  0.00  0.00    +0.104 C 
ATOM      8  C   UNL     1      35.219 -22.822 -13.810  0.00  0.00    +0.042 C 
ATOM      9  C   UNL     1      34.030 -23.296 -13.417  0.00  0.00    +0.024 C 
ENDROOT
BRANCH   7  12
ATOM     10  N   UNL     1      29.496 -24.372 -13.876  0.00  0.00    -0.208 N 
ATOM     11  N   UNL     1      29.993 -24.848 -12.721  0.00  0.00    -0.176 NA
ATOM     12  C   UNL     1      31.610 -23.829 -13.971  0.00  0.00    +0.056 C 
ATOM     13  C   UNL     1      30.424 -23.752 -14.661  0.00  0.00    +0.087 C 
ATOM     14  C   UNL     1      31.284 -24.513 -12.785  0.00  0.00    +0.121 C 
ATOM     15  C   UNL     1      28.096 -24.545 -14.180  0.00  0.00    +0.140 C 
ENDBRANCH   7  12
BRANCH   5  18
ATOM     16  F   UNL     1      32.473 -21.460 -17.921  0.00  0.00    -0.191 F 
ATOM     17  F   UNL     1      33.627 -22.936 -18.975  0.00  0.00    -0.191 F 
ATOM     18  C   UNL     1      33.763 -21.711 -18.348  0.00  0.00    +0.335 C 
BRANCH  18  20
ATOM     19  N   UNL     1      35.633 -17.723 -21.900  0.00  0.00    -0.244 NA
ATOM     20  C   UNL     1      34.247 -20.661 -19.289  0.00  0.00    +0.045 C 
ATOM     21  C   UNL     1      33.423 -20.208 -20.316  0.00  0.00    +0.003 C 
ATOM     22  C   UNL     1      33.875 -19.218 -21.205  0.00  0.00    +0.018 C 
ATOM     23  C   UNL     1      35.522 -20.128 -19.147  0.00  0.00    +0.003 C 
ATOM     24  C   UNL     1      35.168 -18.672 -21.066  0.00  0.00    +0.081 C 
ATOM     25  C   UNL     1      35.970 -19.144 -20.031  0.00  0.00    +0.019 C 
ATOM     26  C   UNL     1      33.067 -18.744 -22.248  0.00  0.00    +0.003 C 
ATOM     27  C   UNL     1      33.543 -17.765 -23.108  0.00  0.00    +0.021 C 
ATOM     28  C   UNL     1      34.821 -17.292 -22.893  0.00  0.00    +0.099 C 
ENDBRANCH  18  20
ENDBRANCH   5  18
TORSDOF 3
ENDMDL
MODEL 9
REMARK VINA RESULT:     -11.0      5.555      8.974
REMARK  Name = 46911863
REMARK  3 active torsions:
REMARK  status: ('A' for Active; 'I' for Inactive)
REMARK    1  A    between atoms: C_5  and  C_18
REMARK    2  A    between atoms: C_7  and  C_12
REMARK    3  A    between atoms: C_18  and  C_20
REMARK                            x       y       z     vdW  Elec       q    Type
REMARK                         _______ _______ _______ _____ _____    ______ ____
ROOT
ATOM      1  N   UNL     1      33.258 -15.268 -22.583  0.00  0.00    -0.190 N 
ATOM      2  N   UNL     1      33.776 -16.062 -21.614  0.00  0.00    -0.162 NA
ATOM      3  N   UNL     1      32.304 -13.569 -23.587  0.00  0.00    -0.126 NA
ATOM      4  N   UNL     1      32.601 -14.521 -24.541  0.00  0.00    -0.127 NA
ATOM      5  C   UNL     1      32.704 -14.032 -22.424  0.00  0.00    +0.228 A 
ATOM      6  C   UNL     1      33.174 -15.537 -23.930  0.00  0.00    +0.187 A 
ATOM      7  C   UNL     1      34.232 -17.201 -22.054  0.00  0.00    +0.104 C 
ATOM      8  C   UNL     1      33.690 -16.768 -24.379  0.00  0.00    +0.042 C 
ATOM      9  C   UNL     1      34.223 -17.619 -23.494  0.00  0.00    +0.024 C 
ENDROOT
BRANCH   7  12
ATOM     10  N   UNL     1      35.097 -19.841 -19.715  0.00  0.00    -0.208 N 
ATOM     11  N   UNL     1      36.287 -19.217 -19.687  0.00  0.00    -0.176 NA
ATOM     12  C   UNL     1      34.822 -18.163 -21.087  0.00  0.00    +0.056 C 
ATOM     13  C   UNL     1      34.184 -19.250 -20.538  0.00  0.00    +0.087 C 
ATOM     14  C   UNL     1      36.113 -18.192 -20.526  0.00  0.00    +0.121 C 
ATOM     15  C   UNL     1      34.889 -21.025 -18.917  0.00  0.00    +0.140 C 
ENDBRANCH   7  12
BRANCH   5  18
ATOM     16  F   UNL     1      33.831 -13.301 -20.461  0.00  0.00    -0.191 F 
ATOM     17  F   UNL     1      31.866 -14.135 -20.200  0.00  0.00    -0.191 F 
ATOM     18  C   UNL     1      32.589 -13.337 -21.067  0.00  0.00    +0.335 C 
BRANCH  18  20
ATOM     19  N   UNL     1      30.307  -8.177 -21.498  0.00  0.00    -0.244 NA
ATOM     20  C   UNL     1      31.995 -11.975 -21.188  0.00  0.00    +0.045 C 
ATOM     21  C   UNL     1      32.490 -11.076 -22.128  0.00  0.00    +0.003 C 
ATOM     22  C   UNL     1      31.932  -9.791 -22.246  0.00  0.00    +0.018 C 
ATOM     23  C   UNL     1      30.943 -11.596 -20.364  0.00  0.00    +0.003 C 
ATOM     24  C   UNL     1      30.864  -9.400 -21.412  0.00  0.00    +0.081 C 
ATOM     25  C   UNL     1      30.389 -10.319 -20.481  0.00  0.00    +0.019 C 
ATOM     26  C   UNL     1      32.411  -8.866 -23.183  0.00  0.00    +0.003 C 
ATOM     27  C   UNL     1      31.839  -7.606 -23.275  0.00  0.00    +0.021 C 
ATOM     28  C   UNL     1      30.798  -7.313 -22.417  0.00  0.00    +0.099 C 
ENDBRANCH  18  20
ENDBRANCH   5  18
TORSDOF 3
ENDMDL
