MODEL 1
REMARK VINA RESULT:     -11.8      0.000      0.000
REMARK  Name = 24963046
REMARK  6 active torsions:
REMARK  status: ('A' for Active; 'I' for Inactive)
REMARK    1  A    between atoms: N_1  and  C_27
REMARK    2  A    between atoms: C_4  and  C_16
REMARK    3  A    between atoms: C_13  and  C_22
REMARK    4  A    between atoms: N_21  and  C_24
REMARK    5  A    between atoms: C_27  and  C_28
REMARK    6  A    between atoms: C_28  and  N_30
REMARK                            x       y       z     vdW  Elec       q    Type
REMARK                         _______ _______ _______ _____ _____    ______ ____
ROOT
ATOM      1  N   UNL     1      32.998 -23.426 -15.981  0.00  0.00    -0.270 N 
ATOM      2  N   UNL     1      34.135 -22.047 -17.468  0.00  0.00    -0.338 NA
ATOM      3  N   UNL     1      31.728 -22.179 -17.469  0.00  0.00    -0.170 NA
ATOM      4  C   UNL     1      34.036 -19.289 -20.591  0.00  0.00    -0.000 C 
ATOM      5  C   UNL     1      32.847 -19.803 -20.084  0.00  0.00    +0.004 C 
ATOM      6  C   UNL     1      32.876 -20.734 -19.030  0.00  0.00    +0.050 C 
ATOM      7  C   UNL     1      32.949 -22.510 -17.019  0.00  0.00    +0.145 C 
ATOM      8  C   UNL     1      35.249 -19.702 -20.049  0.00  0.00    +0.003 C 
ATOM      9  C   UNL     1      34.095 -21.158 -18.475  0.00  0.00    +0.146 C 
ATOM     10  C   UNL     1      35.269 -20.627 -19.002  0.00  0.00    +0.033 C 
ATOM     11  C   UNL     1      31.724 -21.286 -18.478  0.00  0.00    +0.114 C 
ATOM     12  H   UNL     1      32.146 -23.779 -15.634  0.00  0.00    +0.159 HD
ENDROOT
BRANCH   4  16
ATOM     13  C   UNL     1      33.801 -16.041 -22.411  0.00  0.00    +0.053 C 
ATOM     14  C   UNL     1      33.829 -16.982 -21.381  0.00  0.00    +0.004 C 
ATOM     15  C   UNL     1      33.956 -16.451 -23.734  0.00  0.00    +0.004 C 
ATOM     16  C   UNL     1      34.011 -18.333 -21.676  0.00  0.00    -0.004 C 
ATOM     17  C   UNL     1      34.166 -18.743 -23.000  0.00  0.00    -0.022 C 
ATOM     18  C   UNL     1      34.139 -17.802 -24.030  0.00  0.00    -0.004 C 
ATOM     19  C   UNL     1      34.364 -20.182 -23.355  0.00  0.00    +0.031 C 
BRANCH  13  22
ATOM     20  O   UNL     1      34.179 -13.754 -22.779  0.00  0.00    -0.270 OA
ATOM     21  N   UNL     1      32.786 -14.322 -21.017  0.00  0.00    -0.302 N 
ATOM     22  C   UNL     1      33.611 -14.632 -22.104  0.00  0.00    +0.246 C 
ATOM     23  H   UNL     1      32.365 -15.063 -20.523  0.00  0.00    +0.150 HD
BRANCH  21  24
ATOM     24  C   UNL     1      32.523 -12.977 -20.583  0.00  0.00    +0.072 C 
ATOM     25  C   UNL     1      31.449 -12.150 -21.225  0.00  0.00    +0.021 C 
ATOM     26  C   UNL     1      31.279 -12.639 -19.817  0.00  0.00    +0.021 C 
ENDBRANCH  21  24
ENDBRANCH  13  22
ENDBRANCH   4  16
BRANCH   1  27
ATOM     27  C   UNL     1      34.224 -23.891 -15.379  0.00  0.00    +0.075 C 
BRANCH  27  28
ATOM     28  C   UNL     1      34.018 -24.087 -13.882  0.00  0.00    -0.055 C 
BRANCH  28  30
ATOM     29  O   UNL     1      37.512 -25.841 -12.357  0.00  0.00    -0.358 OA
ATOM     30  N   UNL     1      34.963 -25.074 -13.364  0.00  0.00    +0.391 N 
ATOM     31  C   UNL     1      35.388 -24.722 -12.001  0.00  0.00    -0.045 C 
ATOM     32  C   UNL     1      36.134 -25.188 -14.244  0.00  0.00    -0.045 C 
ATOM     33  C   UNL     1      36.383 -25.758 -11.486  0.00  0.00    +0.119 C 
ATOM     34  C   UNL     1      37.110 -26.215 -13.676  0.00  0.00    +0.119 C 
ATOM     35  H   UNL     1      34.487 -25.976 -13.333  0.00  0.00    -0.079 HD
ENDBRANCH  28  30
ENDBRANCH  27  28
ENDBRANCH   1  27
TORSDOF 6
ENDMDL
MODEL 2
REMARK VINA RESULT:     -11.3      3.467     12.000
REMARK  Name = 24963046
REMARK  6 active torsions:
REMARK  status: ('A' for Active; 'I' for Inactive)
REMARK    1  A    between atoms: N_1  and  C_27
REMARK    2  A    between atoms: C_4  and  C_16
REMARK    3  A    between atoms: C_13  and  C_22
REMARK    4  A    between atoms: N_21  and  C_24
REMARK    5  A    between atoms: C_27  and  C_28
REMARK    6  A    between atoms: C_28  and  N_30
REMARK                            x       y       z     vdW  Elec       q    Type
REMARK                         _______ _______ _______ _____ _____    ______ ____
ROOT
ATOM      1  N   UNL     1      32.723 -12.615 -24.934  0.00  0.00    -0.270 N 
ATOM      2  N   UNL     1      33.258 -13.780 -22.996  0.00  0.00    -0.338 NA
ATOM      3  N   UNL     1      33.087 -14.898 -25.125  0.00  0.00    -0.170 NA
ATOM      4  C   UNL     1      34.205 -17.383 -21.125  0.00  0.00    -0.000 C 
ATOM      5  C   UNL     1      33.966 -17.356 -22.496  0.00  0.00    +0.004 C 
ATOM      6  C   UNL     1      33.646 -16.143 -23.130  0.00  0.00    +0.050 C 
ATOM      7  C   UNL     1      33.036 -13.819 -24.326  0.00  0.00    +0.145 C 
ATOM      8  C   UNL     1      34.127 -16.204 -20.392  0.00  0.00    +0.003 C 
ATOM      9  C   UNL     1      33.563 -14.946 -22.400  0.00  0.00    +0.146 C 
ATOM     10  C   UNL     1      33.809 -15.002 -21.031  0.00  0.00    +0.033 C 
ATOM     11  C   UNL     1      33.395 -16.048 -24.496  0.00  0.00    +0.114 C 
ATOM     12  H   UNL     1      32.556 -12.614 -25.905  0.00  0.00    +0.159 HD
ENDROOT
BRANCH   4  16
ATOM     13  C   UNL     1      33.798 -20.609 -19.296  0.00  0.00    +0.053 C 
ATOM     14  C   UNL     1      33.505 -19.404 -19.934  0.00  0.00    +0.004 C 
ATOM     15  C   UNL     1      35.120 -21.040 -19.194  0.00  0.00    +0.004 C 
ATOM     16  C   UNL     1      34.534 -18.629 -20.468  0.00  0.00    -0.004 C 
ATOM     17  C   UNL     1      35.857 -19.060 -20.365  0.00  0.00    -0.022 C 
ATOM     18  C   UNL     1      36.150 -20.266 -19.728  0.00  0.00    -0.004 C 
ATOM     19  C   UNL     1      36.987 -18.257 -20.927  0.00  0.00    +0.031 C 
BRANCH  13  22
ATOM     20  O   UNL     1      31.597 -21.423 -19.263  0.00  0.00    -0.270 OA
ATOM     21  N   UNL     1      33.019 -22.159 -17.588  0.00  0.00    -0.302 N 
ATOM     22  C   UNL     1      32.725 -21.417 -18.739  0.00  0.00    +0.246 C 
ATOM     23  H   UNL     1      33.932 -22.112 -17.221  0.00  0.00    +0.150 HD
BRANCH  21  24
ATOM     24  C   UNL     1      32.055 -22.986 -16.915  0.00  0.00    +0.072 C 
ATOM     25  C   UNL     1      32.049 -23.113 -15.420  0.00  0.00    +0.021 C 
ATOM     26  C   UNL     1      30.938 -22.383 -16.117  0.00  0.00    +0.021 C 
ENDBRANCH  21  24
ENDBRANCH  13  22
ENDBRANCH   4  16
BRANCH   1  27
ATOM     27  C   UNL     1      32.627 -11.361 -24.226  0.00  0.00    +0.075 C 
BRANCH  27  28
ATOM     28  C   UNL     1      33.801 -10.467 -24.606  0.00  0.00    -0.055 C 
BRANCH  28  30
ATOM     29  O   UNL     1      32.803  -6.991 -22.475  0.00  0.00    -0.358 OA
ATOM     30  N   UNL     1      33.503  -9.072 -24.287  0.00  0.00    +0.391 N 
ATOM     31  C   UNL     1      34.471  -8.541 -23.317  0.00  0.00    -0.045 C 
ATOM     32  C   UNL     1      32.137  -8.938 -23.761  0.00  0.00    -0.045 C 
ATOM     33  C   UNL     1      34.132  -7.090 -22.990  0.00  0.00    +0.119 C 
ATOM     34  C   UNL     1      31.854  -7.476 -23.426  0.00  0.00    +0.119 C 
ATOM     35  H   UNL     1      33.576  -8.532 -25.149  0.00  0.00    -0.079 HD
ENDBRANCH  28  30
ENDBRANCH  27  28
ENDBRANCH   1  27
TORSDOF 6
ENDMDL
MODEL 3
REMARK VINA RESULT:     -11.0      1.895     11.183
REMARK  Name = 24963046
REMARK  6 active torsions:
REMARK  status: ('A' for Active; 'I' for Inactive)
REMARK    1  A    between atoms: N_1  and  C_27
REMARK    2  A    between atoms: C_4  and  C_16
REMARK    3  A    between atoms: C_13  and  C_22
REMARK    4  A    between atoms: N_21  and  C_24
REMARK    5  A    between atoms: C_27  and  C_28
REMARK    6  A    between atoms: C_28  and  N_30
REMARK                            x       y       z     vdW  Elec       q    Type
REMARK                         _______ _______ _______ _____ _____    ______ ____
ROOT
ATOM      1  N   UNL     1      34.670 -18.763 -21.839  0.00  0.00    -0.270 N 
ATOM      2  N   UNL     1      33.436 -20.013 -20.317  0.00  0.00    -0.338 NA
ATOM      3  N   UNL     1      35.796 -19.635 -20.008  0.00  0.00    -0.170 NA
ATOM      4  C   UNL     1      33.282 -22.248 -16.802  0.00  0.00    -0.000 C 
ATOM      5  C   UNL     1      34.489 -21.694 -17.219  0.00  0.00    +0.004 C 
ATOM      6  C   UNL     1      34.545 -20.940 -18.404  0.00  0.00    +0.050 C 
ATOM      7  C   UNL     1      34.634 -19.503 -20.669  0.00  0.00    +0.145 C 
ATOM      8  C   UNL     1      32.136 -22.048 -17.564  0.00  0.00    +0.003 C 
ATOM      9  C   UNL     1      33.394 -20.732 -19.182  0.00  0.00    +0.146 C 
ATOM     10  C   UNL     1      32.200 -21.296 -18.741  0.00  0.00    +0.033 C 
ATOM     11  C   UNL     1      35.719 -20.361 -18.875  0.00  0.00    +0.114 C 
ATOM     12  H   UNL     1      35.533 -18.378 -22.119  0.00  0.00    +0.159 HD
ENDROOT
BRANCH   4  16
ATOM     13  C   UNL     1      34.354 -24.358 -13.918  0.00  0.00    +0.053 C 
ATOM     14  C   UNL     1      34.389 -23.605 -15.092  0.00  0.00    +0.004 C 
ATOM     15  C   UNL     1      33.150 -24.531 -13.237  0.00  0.00    +0.004 C 
ATOM     16  C   UNL     1      33.220 -23.025 -15.584  0.00  0.00    -0.004 C 
ATOM     17  C   UNL     1      32.015 -23.199 -14.902  0.00  0.00    -0.022 C 
ATOM     18  C   UNL     1      31.980 -23.951 -13.728  0.00  0.00    -0.004 C 
ATOM     19  C   UNL     1      30.742 -22.592 -15.399  0.00  0.00    +0.031 C 
BRANCH  13  22
ATOM     20  O   UNL     1      35.686 -25.232 -12.195  0.00  0.00    -0.270 OA
ATOM     21  N   UNL     1      36.601 -25.203 -14.324  0.00  0.00    -0.302 N 
ATOM     22  C   UNL     1      35.573 -24.963 -13.405  0.00  0.00    +0.246 C 
ATOM     23  H   UNL     1      36.449 -24.967 -15.268  0.00  0.00    +0.150 HD
BRANCH  21  24
ATOM     24  C   UNL     1      37.868 -25.776 -13.959  0.00  0.00    +0.072 C 
ATOM     25  C   UNL     1      39.159 -25.127 -14.364  0.00  0.00    +0.021 C 
ATOM     26  C   UNL     1      38.740 -25.133 -12.923  0.00  0.00    +0.021 C 
ENDBRANCH  21  24
ENDBRANCH  13  22
ENDBRANCH   4  16
BRANCH   1  27
ATOM     27  C   UNL     1      33.515 -18.522 -22.671  0.00  0.00    +0.075 C 
BRANCH  27  28
ATOM     28  C   UNL     1      33.834 -17.433 -23.687  0.00  0.00    -0.055 C 
BRANCH  28  30
ATOM     29  O   UNL     1      33.496 -13.335 -22.843  0.00  0.00    -0.358 OA
ATOM     30  N   UNL     1      33.302 -16.147 -23.239  0.00  0.00    +0.391 N 
ATOM     31  C   UNL     1      33.202 -15.205 -24.363  0.00  0.00    -0.045 C 
ATOM     32  C   UNL     1      34.141 -15.577 -22.176  0.00  0.00    -0.045 C 
ATOM     33  C   UNL     1      32.656 -13.868 -23.869  0.00  0.00    +0.119 C 
ATOM     34  C   UNL     1      33.572 -14.232 -21.734  0.00  0.00    +0.119 C 
ATOM     35  H   UNL     1      32.367 -16.310 -22.866  0.00  0.00    -0.079 HD
ENDBRANCH  28  30
ENDBRANCH  27  28
ENDBRANCH   1  27
TORSDOF 6
ENDMDL
MODEL 4
REMARK VINA RESULT:     -10.5      1.825      2.282
REMARK  Name = 24963046
REMARK  6 active torsions:
REMARK  status: ('A' for Active; 'I' for Inactive)
REMARK    1  A    between atoms: N_1  and  C_27
REMARK    2  A    between atoms: C_4  and  C_16
REMARK    3  A    between atoms: C_13  and  C_22
REMARK    4  A    between atoms: N_21  and  C_24
REMARK    5  A    between atoms: C_27  and  C_28
REMARK    6  A    between atoms: C_28  and  N_30
REMARK                            x       y       z     vdW  Elec       q    Type
REMARK                         _______ _______ _______ _____ _____    ______ ____
ROOT
ATOM      1  N   UNL     1      34.998 -22.556 -16.162  0.00  0.00    -0.270 N 
ATOM      2  N   UNL     1      35.592 -20.947 -17.730  0.00  0.00    -0.338 NA
ATOM      3  N   UNL     1      33.378 -21.900 -17.688  0.00  0.00    -0.170 NA
ATOM      4  C   UNL     1      34.552 -18.552 -20.980  0.00  0.00    -0.000 C 
ATOM      5  C   UNL     1      33.613 -19.419 -20.430  0.00  0.00    +0.004 C 
ATOM      6  C   UNL     1      33.960 -20.229 -19.334  0.00  0.00    +0.050 C 
ATOM      7  C   UNL     1      34.638 -21.767 -17.242  0.00  0.00    +0.145 C 
ATOM      8  C   UNL     1      35.832 -18.493 -20.438  0.00  0.00    +0.003 C 
ATOM      9  C   UNL     1      35.249 -20.178 -18.778  0.00  0.00    +0.146 C 
ATOM     10  C   UNL     1      36.168 -19.301 -19.348  0.00  0.00    +0.033 C 
ATOM     11  C   UNL     1      33.068 -21.115 -18.738  0.00  0.00    +0.114 C 
ATOM     12  H   UNL     1      34.320 -23.164 -15.785  0.00  0.00    +0.159 HD
ENDROOT
BRANCH   4  16
ATOM     13  C   UNL     1      33.742 -15.519 -22.994  0.00  0.00    +0.053 C 
ATOM     14  C   UNL     1      34.081 -16.342 -21.921  0.00  0.00    +0.004 C 
ATOM     15  C   UNL     1      33.524 -16.072 -24.256  0.00  0.00    +0.004 C 
ATOM     16  C   UNL     1      34.200 -17.719 -22.108  0.00  0.00    -0.004 C 
ATOM     17  C   UNL     1      33.981 -18.272 -23.371  0.00  0.00    -0.022 C 
ATOM     18  C   UNL     1      33.644 -17.448 -24.445  0.00  0.00    -0.004 C 
ATOM     19  C   UNL     1      34.101 -19.744 -23.611  0.00  0.00    +0.031 C 
BRANCH  13  22
ATOM     20  O   UNL     1      34.053 -13.543 -21.767  0.00  0.00    -0.270 OA
ATOM     21  N   UNL     1      32.974 -13.356 -23.809  0.00  0.00    -0.302 N 
ATOM     22  C   UNL     1      33.617 -14.083 -22.799  0.00  0.00    +0.246 C 
ATOM     23  H   UNL     1      32.651 -13.843 -24.602  0.00  0.00    +0.150 HD
BRANCH  21  24
ATOM     24  C   UNL     1      32.759 -11.936 -23.746  0.00  0.00    +0.072 C 
ATOM     25  C   UNL     1      33.868 -10.969 -24.039  0.00  0.00    +0.021 C 
ATOM     26  C   UNL     1      32.715 -11.103 -24.991  0.00  0.00    +0.021 C 
ENDBRANCH  21  24
ENDBRANCH  13  22
ENDBRANCH   4  16
BRANCH   1  27
ATOM     27  C   UNL     1      36.308 -22.539 -15.558  0.00  0.00    +0.075 C 
BRANCH  27  28
ATOM     28  C   UNL     1      36.404 -23.640 -14.510  0.00  0.00    -0.055 C 
BRANCH  28  30
ATOM     29  O   UNL     1      34.064 -24.132 -11.060  0.00  0.00    -0.358 OA
ATOM     30  N   UNL     1      35.493 -23.367 -13.400  0.00  0.00    +0.391 N 
ATOM     31  C   UNL     1      36.173 -23.549 -12.110  0.00  0.00    -0.045 C 
ATOM     32  C   UNL     1      34.308 -24.233 -13.472  0.00  0.00    -0.045 C 
ATOM     33  C   UNL     1      35.200 -23.271 -10.968  0.00  0.00    +0.119 C 
ATOM     34  C   UNL     1      33.379 -23.937 -12.298  0.00  0.00    +0.119 C 
ATOM     35  H   UNL     1      35.192 -22.395 -13.475  0.00  0.00    -0.079 HD
ENDBRANCH  28  30
ENDBRANCH  27  28
ENDBRANCH   1  27
TORSDOF 6
ENDMDL
MODEL 5
REMARK VINA RESULT:     -10.4      2.641      3.622
REMARK  Name = 24963046
REMARK  6 active torsions:
REMARK  status: ('A' for Active; 'I' for Inactive)
REMARK    1  A    between atoms: N_1  and  C_27
REMARK    2  A    between atoms: C_4  and  C_16
REMARK    3  A    between atoms: C_13  and  C_22
REMARK    4  A    between atoms: N_21  and  C_24
REMARK    5  A    between atoms: C_27  and  C_28
REMARK    6  A    between atoms: C_28  and  N_30
REMARK                            x       y       z     vdW  Elec       q    Type
REMARK                         _______ _______ _______ _____ _____    ______ ____
ROOT
ATOM      1  N   UNL     1      33.897 -23.305 -15.832  0.00  0.00    -0.270 N 
ATOM      2  N   UNL     1      32.999 -22.007 -17.539  0.00  0.00    -0.338 NA
ATOM      3  N   UNL     1      35.366 -22.017 -17.083  0.00  0.00    -0.170 NA
ATOM      4  C   UNL     1      33.560 -19.291 -20.651  0.00  0.00    -0.000 C 
ATOM      5  C   UNL     1      34.655 -19.739 -19.917  0.00  0.00    +0.004 C 
ATOM      6  C   UNL     1      34.469 -20.654 -18.866  0.00  0.00    +0.050 C 
ATOM      7  C   UNL     1      34.098 -22.402 -16.864  0.00  0.00    +0.145 C 
ATOM      8  C   UNL     1      32.288 -19.757 -20.338  0.00  0.00    +0.003 C 
ATOM      9  C   UNL     1      33.188 -21.131 -18.541  0.00  0.00    +0.146 C 
ATOM     10  C   UNL     1      32.112 -20.667 -19.293  0.00  0.00    +0.033 C 
ATOM     11  C   UNL     1      35.520 -21.140 -18.094  0.00  0.00    +0.114 C 
ATOM     12  H   UNL     1      34.682 -23.611 -15.323  0.00  0.00    +0.159 HD
ENDROOT
BRANCH   4  16
ATOM     13  C   UNL     1      33.775 -16.058 -22.500  0.00  0.00    +0.053 C 
ATOM     14  C   UNL     1      33.600 -16.986 -21.474  0.00  0.00    +0.004 C 
ATOM     15  C   UNL     1      34.097 -16.493 -23.785  0.00  0.00    +0.004 C 
ATOM     16  C   UNL     1      33.746 -18.348 -21.732  0.00  0.00    -0.004 C 
ATOM     17  C   UNL     1      34.069 -18.783 -23.018  0.00  0.00    -0.022 C 
ATOM     18  C   UNL     1      34.245 -17.856 -24.045  0.00  0.00    -0.004 C 
ATOM     19  C   UNL     1      34.235 -20.236 -23.333  0.00  0.00    +0.031 C 
BRANCH  13  22
ATOM     20  O   UNL     1      34.188 -13.792 -22.948  0.00  0.00    -0.270 OA
ATOM     21  N   UNL     1      32.835 -14.278 -21.131  0.00  0.00    -0.302 N 
ATOM     22  C   UNL     1      33.622 -14.637 -22.232  0.00  0.00    +0.246 C 
ATOM     23  H   UNL     1      32.414 -14.995 -20.603  0.00  0.00    +0.150 HD
BRANCH  21  24
ATOM     24  C   UNL     1      32.611 -12.916 -20.731  0.00  0.00    +0.072 C 
ATOM     25  C   UNL     1      31.530 -12.088 -21.361  0.00  0.00    +0.021 C 
ATOM     26  C   UNL     1      31.402 -12.530 -19.933  0.00  0.00    +0.021 C 
ENDBRANCH  21  24
ENDBRANCH  13  22
ENDBRANCH   4  16
BRANCH   1  27
ATOM     27  C   UNL     1      32.601 -23.823 -15.462  0.00  0.00    +0.075 C 
BRANCH  27  28
ATOM     28  C   UNL     1      32.083 -23.079 -14.237  0.00  0.00    -0.055 C 
BRANCH  28  30
ATOM     29  O   UNL     1      28.100 -24.071 -15.111  0.00  0.00    -0.358 OA
ATOM     30  N   UNL     1      30.623 -23.128 -14.193  0.00  0.00    +0.391 N 
ATOM     31  C   UNL     1      30.156 -24.489 -13.891  0.00  0.00    -0.045 C 
ATOM     32  C   UNL     1      30.046 -22.666 -15.463  0.00  0.00    -0.045 C 
ATOM     33  C   UNL     1      28.631 -24.517 -13.862  0.00  0.00    +0.119 C 
ATOM     34  C   UNL     1      28.523 -22.737 -15.395  0.00  0.00    +0.119 C 
ATOM     35  H   UNL     1      30.313 -22.505 -13.447  0.00  0.00    -0.079 HD
ENDBRANCH  28  30
ENDBRANCH  27  28
ENDBRANCH   1  27
TORSDOF 6
ENDMDL
MODEL 6
REMARK VINA RESULT:     -10.4      5.408      9.434
REMARK  Name = 24963046
REMARK  6 active torsions:
REMARK  status: ('A' for Active; 'I' for Inactive)
REMARK    1  A    between atoms: N_1  and  C_27
REMARK    2  A    between atoms: C_4  and  C_16
REMARK    3  A    between atoms: C_13  and  C_22
REMARK    4  A    between atoms: N_21  and  C_24
REMARK    5  A    between atoms: C_27  and  C_28
REMARK    6  A    between atoms: C_28  and  N_30
REMARK                            x       y       z     vdW  Elec       q    Type
REMARK                         _______ _______ _______ _____ _____    ______ ____
ROOT
ATOM      1  N   UNL     1      32.589 -17.236 -24.628  0.00  0.00    -0.270 N 
ATOM      2  N   UNL     1      33.009 -15.266 -23.468  0.00  0.00    -0.338 NA
ATOM      3  N   UNL     1      32.247 -15.238 -25.754  0.00  0.00    -0.170 NA
ATOM      4  C   UNL     1      33.103 -11.100 -23.394  0.00  0.00    -0.000 C 
ATOM      5  C   UNL     1      32.706 -11.763 -24.551  0.00  0.00    +0.004 C 
ATOM      6  C   UNL     1      32.673 -13.169 -24.580  0.00  0.00    +0.050 C 
ATOM      7  C   UNL     1      32.616 -15.851 -24.619  0.00  0.00    +0.145 C 
ATOM      8  C   UNL     1      33.465 -11.836 -22.271  0.00  0.00    +0.003 C 
ATOM      9  C   UNL     1      33.037 -13.923 -23.452  0.00  0.00    +0.146 C 
ATOM     10  C   UNL     1      33.429 -13.233 -22.308  0.00  0.00    +0.033 C 
ATOM     11  C   UNL     1      32.286 -13.892 -25.704  0.00  0.00    +0.114 C 
ATOM     12  H   UNL     1      32.305 -17.689 -25.455  0.00  0.00    +0.159 HD
ENDROOT
BRANCH   4  16
ATOM     13  C   UNL     1      32.256  -7.580 -22.493  0.00  0.00    +0.053 C 
ATOM     14  C   UNL     1      32.239  -8.974 -22.541  0.00  0.00    +0.004 C 
ATOM     15  C   UNL     1      33.174  -6.867 -23.263  0.00  0.00    +0.004 C 
ATOM     16  C   UNL     1      33.139  -9.655 -23.361  0.00  0.00    -0.004 C 
ATOM     17  C   UNL     1      34.058  -8.940 -24.131  0.00  0.00    -0.022 C 
ATOM     18  C   UNL     1      34.075  -7.546 -24.082  0.00  0.00    -0.004 C 
ATOM     19  C   UNL     1      35.039  -9.635 -25.021  0.00  0.00    +0.031 C 
BRANCH  13  22
ATOM     20  O   UNL     1      30.110  -6.813 -21.933  0.00  0.00    -0.270 OA
ATOM     21  N   UNL     1      31.839  -6.248 -20.497  0.00  0.00    -0.302 N 
ATOM     22  C   UNL     1      31.317  -6.870 -21.638  0.00  0.00    +0.246 C 
ATOM     23  H   UNL     1      32.804  -6.331 -20.320  0.00  0.00    +0.150 HD
BRANCH  21  24
ATOM     24  C   UNL     1      31.037  -5.495 -19.573  0.00  0.00    +0.072 C 
ATOM     25  C   UNL     1      30.464  -6.133 -18.342  0.00  0.00    +0.021 C 
ATOM     26  C   UNL     1      31.562  -5.117 -18.220  0.00  0.00    +0.021 C 
ENDBRANCH  21  24
ENDBRANCH  13  22
ENDBRANCH   4  16
BRANCH   1  27
ATOM     27  C   UNL     1      32.953 -18.053 -23.495  0.00  0.00    +0.075 C 
BRANCH  27  28
ATOM     28  C   UNL     1      34.378 -17.727 -23.065  0.00  0.00    -0.055 C 
BRANCH  28  30
ATOM     29  O   UNL     1      35.510 -19.906 -19.661  0.00  0.00    -0.358 OA
ATOM     30  N   UNL     1      34.589 -18.113 -21.671  0.00  0.00    +0.391 N 
ATOM     31  C   UNL     1      36.022 -18.279 -21.388  0.00  0.00    -0.045 C 
ATOM     32  C   UNL     1      33.866 -19.354 -21.358  0.00  0.00    -0.045 C 
ATOM     33  C   UNL     1      36.217 -18.694 -19.932  0.00  0.00    +0.119 C 
ATOM     34  C   UNL     1      34.111 -19.742 -19.903  0.00  0.00    +0.119 C 
ATOM     35  H   UNL     1      34.225 -17.365 -21.081  0.00  0.00    -0.079 HD
ENDBRANCH  28  30
ENDBRANCH  27  28
ENDBRANCH   1  27
TORSDOF 6
ENDMDL
MODEL 7
REMARK VINA RESULT:     -10.1      3.945     11.940
REMARK  Name = 24963046
REMARK  6 active torsions:
REMARK  status: ('A' for Active; 'I' for Inactive)
REMARK    1  A    between atoms: N_1  and  C_27
REMARK    2  A    between atoms: C_4  and  C_16
REMARK    3  A    between atoms: C_13  and  C_22
REMARK    4  A    between atoms: N_21  and  C_24
REMARK    5  A    between atoms: C_27  and  C_28
REMARK    6  A    between atoms: C_28  and  N_30
REMARK                            x       y       z     vdW  Elec       q    Type
REMARK                         _______ _______ _______ _____ _____    ______ ____
ROOT
ATOM      1  N   UNL     1      32.709  -9.663 -24.288  0.00  0.00    -0.270 N 
ATOM      2  N   UNL     1      33.132 -11.473 -22.894  0.00  0.00    -0.338 NA
ATOM      3  N   UNL     1      32.857 -11.758 -25.272  0.00  0.00    -0.170 NA
ATOM      4  C   UNL     1      33.737 -15.570 -22.422  0.00  0.00    -0.000 C 
ATOM      5  C   UNL     1      33.501 -15.046 -23.690  0.00  0.00    +0.004 C 
ATOM      6  C   UNL     1      33.296 -13.665 -23.853  0.00  0.00    +0.050 C 
ATOM      7  C   UNL     1      32.908 -11.026 -24.147  0.00  0.00    +0.145 C 
ATOM      8  C   UNL     1      33.769 -14.719 -21.323  0.00  0.00    +0.003 C 
ATOM      9  C   UNL     1      33.326 -12.795 -22.750  0.00  0.00    +0.146 C 
ATOM     10  C   UNL     1      33.565 -13.347 -21.494  0.00  0.00    +0.033 C 
ATOM     11  C   UNL     1      33.056 -13.078 -25.091  0.00  0.00    +0.114 C 
ATOM     12  H   UNL     1      32.543  -9.309 -25.193  0.00  0.00    +0.159 HD
ENDROOT
BRANCH   4  16
ATOM     13  C   UNL     1      34.921 -18.801 -20.981  0.00  0.00    +0.053 C 
ATOM     14  C   UNL     1      34.705 -17.436 -21.168  0.00  0.00    +0.004 C 
ATOM     15  C   UNL     1      34.377 -19.722 -21.877  0.00  0.00    +0.004 C 
ATOM     16  C   UNL     1      33.947 -16.991 -22.250  0.00  0.00    -0.004 C 
ATOM     17  C   UNL     1      33.403 -17.912 -23.146  0.00  0.00    -0.022 C 
ATOM     18  C   UNL     1      33.618 -19.278 -22.959  0.00  0.00    -0.004 C 
ATOM     19  C   UNL     1      32.584 -17.473 -24.318  0.00  0.00    +0.031 C 
BRANCH  13  22
ATOM     20  O   UNL     1      36.683 -18.605 -19.444  0.00  0.00    -0.270 OA
ATOM     21  N   UNL     1      35.342 -20.487 -19.275  0.00  0.00    -0.302 N 
ATOM     22  C   UNL     1      35.712 -19.266 -19.853  0.00  0.00    +0.246 C 
ATOM     23  H   UNL     1      34.563 -20.962 -19.646  0.00  0.00    +0.150 HD
BRANCH  21  24
ATOM     24  C   UNL     1      36.041 -21.081 -18.169  0.00  0.00    +0.072 C 
ATOM     25  C   UNL     1      36.096 -20.405 -16.831  0.00  0.00    +0.021 C 
ATOM     26  C   UNL     1      35.298 -21.665 -17.005  0.00  0.00    +0.021 C 
ENDBRANCH  21  24
ENDBRANCH  13  22
ENDBRANCH   4  16
BRANCH   1  27
ATOM     27  C   UNL     1      32.730  -8.731 -23.186  0.00  0.00    +0.075 C 
BRANCH  27  28
ATOM     28  C   UNL     1      31.325  -8.199 -22.937  0.00  0.00    -0.055 C 
BRANCH  28  30
ATOM     29  O   UNL     1      31.861  -8.180 -18.774  0.00  0.00    -0.358 OA
ATOM     30  N   UNL     1      31.126  -7.936 -21.513  0.00  0.00    +0.391 N 
ATOM     31  C   UNL     1      32.266  -7.195 -20.955  0.00  0.00    -0.045 C 
ATOM     32  C   UNL     1      30.929  -9.190 -20.773  0.00  0.00    -0.045 C 
ATOM     33  C   UNL     1      32.041  -6.943 -19.467  0.00  0.00    +0.119 C 
ATOM     34  C   UNL     1      30.735  -8.891 -19.290  0.00  0.00    +0.119 C 
ATOM     35  H   UNL     1      30.286  -7.364 -21.416  0.00  0.00    -0.079 HD
ENDBRANCH  28  30
ENDBRANCH  27  28
ENDBRANCH   1  27
TORSDOF 6
ENDMDL
MODEL 8
REMARK VINA RESULT:     -10.0      4.621     13.398
REMARK  Name = 24963046
REMARK  6 active torsions:
REMARK  status: ('A' for Active; 'I' for Inactive)
REMARK    1  A    between atoms: N_1  and  C_27
REMARK    2  A    between atoms: C_4  and  C_16
REMARK    3  A    between atoms: C_13  and  C_22
REMARK    4  A    between atoms: N_21  and  C_24
REMARK    5  A    between atoms: C_27  and  C_28
REMARK    6  A    between atoms: C_28  and  N_30
REMARK                            x       y       z     vdW  Elec       q    Type
REMARK                         _______ _______ _______ _____ _____    ______ ____
ROOT
ATOM      1  N   UNL     1      32.171  -8.271 -22.936  0.00  0.00    -0.270 N 
ATOM      2  N   UNL     1      32.213 -10.434 -22.086  0.00  0.00    -0.338 NA
ATOM      3  N   UNL     1      33.072  -9.932 -24.281  0.00  0.00    -0.170 NA
ATOM      4  C   UNL     1      33.188 -14.458 -22.570  0.00  0.00    -0.000 C 
ATOM      5  C   UNL     1      33.461 -13.552 -23.591  0.00  0.00    +0.004 C 
ATOM      6  C   UNL     1      33.132 -12.194 -23.431  0.00  0.00    +0.050 C 
ATOM      7  C   UNL     1      32.501  -9.605 -23.111  0.00  0.00    +0.145 C 
ATOM      8  C   UNL     1      32.593 -14.010 -21.396  0.00  0.00    +0.003 C 
ATOM      9  C   UNL     1      32.530 -11.730 -22.250  0.00  0.00    +0.146 C 
ATOM     10  C   UNL     1      32.270 -12.659 -21.245  0.00  0.00    +0.033 C 
ATOM     11  C   UNL     1      33.378 -11.238 -24.412  0.00  0.00    +0.114 C 
ATOM     12  H   UNL     1      32.371  -7.644 -23.668  0.00  0.00    +0.159 HD
ENDROOT
BRANCH   4  16
ATOM     13  C   UNL     1      34.566 -17.849 -21.852  0.00  0.00    +0.053 C 
ATOM     14  C   UNL     1      34.233 -16.502 -21.719  0.00  0.00    +0.004 C 
ATOM     15  C   UNL     1      34.189 -18.552 -22.996  0.00  0.00    +0.004 C 
ATOM     16  C   UNL     1      33.523 -15.856 -22.731  0.00  0.00    -0.004 C 
ATOM     17  C   UNL     1      33.145 -16.559 -23.876  0.00  0.00    -0.022 C 
ATOM     18  C   UNL     1      33.478 -17.907 -24.008  0.00  0.00    -0.004 C 
ATOM     19  C   UNL     1      32.383 -15.900 -24.981  0.00  0.00    +0.031 C 
BRANCH  13  22
ATOM     20  O   UNL     1      36.510 -18.271 -20.606  0.00  0.00    -0.270 OA
ATOM     21  N   UNL     1      34.611 -19.470 -20.035  0.00  0.00    -0.302 N 
ATOM     22  C   UNL     1      35.307 -18.524 -20.797  0.00  0.00    +0.246 C 
ATOM     23  H   UNL     1      33.659 -19.625 -20.237  0.00  0.00    +0.150 HD
BRANCH  21  24
ATOM     24  C   UNL     1      35.215 -20.229 -18.975  0.00  0.00    +0.072 C 
ATOM     25  C   UNL     1      34.460 -21.316 -18.268  0.00  0.00    +0.021 C 
ATOM     26  C   UNL     1      35.606 -21.663 -19.172  0.00  0.00    +0.021 C 
ENDBRANCH  21  24
ENDBRANCH  13  22
ENDBRANCH   4  16
BRANCH   1  27
ATOM     27  C   UNL     1      31.552  -7.749 -21.741  0.00  0.00    +0.075 C 
BRANCH  27  28
ATOM     28  C   UNL     1      32.384  -6.594 -21.196  0.00  0.00    -0.055 C 
BRANCH  28  30
ATOM     29  O   UNL     1      29.367  -3.770 -21.935  0.00  0.00    -0.358 OA
ATOM     30  N   UNL     1      31.584  -5.372 -21.145  0.00  0.00    +0.391 N 
ATOM     31  C   UNL     1      30.222  -5.659 -20.672  0.00  0.00    -0.045 C 
ATOM     32  C   UNL     1      31.534  -4.725 -22.464  0.00  0.00    -0.045 C 
ATOM     33  C   UNL     1      29.404  -4.371 -20.639  0.00  0.00    +0.119 C 
ATOM     34  C   UNL     1      30.686  -3.459 -22.387  0.00  0.00    +0.119 C 
ATOM     35  H   UNL     1      32.031  -4.734 -20.485  0.00  0.00    -0.079 HD
ENDBRANCH  28  30
ENDBRANCH  27  28
ENDBRANCH   1  27
TORSDOF 6
ENDMDL
MODEL 9
REMARK VINA RESULT:     -10.0      4.397     12.793
REMARK  Name = 24963046
REMARK  6 active torsions:
REMARK  status: ('A' for Active; 'I' for Inactive)
REMARK    1  A    between atoms: N_1  and  C_27
REMARK    2  A    between atoms: C_4  and  C_16
REMARK    3  A    between atoms: C_13  and  C_22
REMARK    4  A    between atoms: N_21  and  C_24
REMARK    5  A    between atoms: C_27  and  C_28
REMARK    6  A    between atoms: C_28  and  N_30
REMARK                            x       y       z     vdW  Elec       q    Type
REMARK                         _______ _______ _______ _____ _____    ______ ____
ROOT
ATOM      1  N   UNL     1      30.575  -8.765 -20.140  0.00  0.00    -0.270 N 
ATOM      2  N   UNL     1      31.702 -10.272 -21.503  0.00  0.00    -0.338 NA
ATOM      3  N   UNL     1      30.679 -10.973 -19.437  0.00  0.00    -0.170 NA
ATOM      4  C   UNL     1      33.014 -14.161 -22.231  0.00  0.00    -0.000 C 
ATOM      5  C   UNL     1      32.288 -13.880 -21.078  0.00  0.00    +0.004 C 
ATOM      6  C   UNL     1      31.844 -12.569 -20.829  0.00  0.00    +0.050 C 
ATOM      7  C   UNL     1      31.004 -10.062 -20.368  0.00  0.00    +0.145 C 
ATOM      8  C   UNL     1      33.295 -13.140 -23.132  0.00  0.00    +0.003 C 
ATOM      9  C   UNL     1      32.122 -11.529 -21.731  0.00  0.00    +0.146 C 
ATOM     10  C   UNL     1      32.849 -11.840 -22.877  0.00  0.00    +0.033 C 
ATOM     11  C   UNL     1      31.115 -12.222 -19.696  0.00  0.00    +0.114 C 
ATOM     12  H   UNL     1      30.062  -8.584 -19.319  0.00  0.00    +0.159 HD
ENDROOT
BRANCH   4  16
ATOM     13  C   UNL     1      34.490 -17.543 -21.676  0.00  0.00    +0.053 C 
ATOM     14  C   UNL     1      34.040 -16.242 -21.449  0.00  0.00    +0.004 C 
ATOM     15  C   UNL     1      34.372 -18.110 -22.945  0.00  0.00    +0.004 C 
ATOM     16  C   UNL     1      33.473 -15.508 -22.491  0.00  0.00    -0.004 C 
ATOM     17  C   UNL     1      33.356 -16.076 -23.760  0.00  0.00    -0.022 C 
ATOM     18  C   UNL     1      33.805 -17.377 -23.987  0.00  0.00    -0.004 C 
ATOM     19  C   UNL     1      32.754 -15.320 -24.902  0.00  0.00    +0.031 C 
BRANCH  13  22
ATOM     20  O   UNL     1      36.184 -17.988 -20.115  0.00  0.00    -0.270 OA
ATOM     21  N   UNL     1      34.363 -19.419 -20.130  0.00  0.00    -0.302 N 
ATOM     22  C   UNL     1      35.080 -18.309 -20.590  0.00  0.00    +0.246 C 
ATOM     23  H   UNL     1      33.494 -19.621 -20.548  0.00  0.00    +0.150 HD
BRANCH  21  24
ATOM     24  C   UNL     1      34.830 -20.281 -19.079  0.00  0.00    +0.072 C 
ATOM     25  C   UNL     1      33.954 -21.358 -18.510  0.00  0.00    +0.021 C 
ATOM     26  C   UNL     1      35.149 -21.723 -19.342  0.00  0.00    +0.021 C 
ENDBRANCH  21  24
ENDBRANCH  13  22
ENDBRANCH   4  16
BRANCH   1  27
ATOM     27  C   UNL     1      30.835  -7.665 -21.037  0.00  0.00    +0.075 C 
BRANCH  27  28
ATOM     28  C   UNL     1      32.012  -6.848 -20.518  0.00  0.00    -0.055 C 
BRANCH  28  30
ATOM     29  O   UNL     1      33.150  -5.625 -24.368  0.00  0.00    -0.358 OA
ATOM     30  N   UNL     1      32.635  -6.103 -21.609  0.00  0.00    +0.391 N 
ATOM     31  C   UNL     1      31.614  -5.520 -22.492  0.00  0.00    -0.045 C 
ATOM     32  C   UNL     1      33.536  -6.967 -22.384  0.00  0.00    -0.045 C 
ATOM     33  C   UNL     1      32.287  -4.758 -23.629  0.00  0.00    +0.119 C 
ATOM     34  C   UNL     1      34.165  -6.170 -23.523  0.00  0.00    +0.119 C 
ATOM     35  H   UNL     1      33.181  -5.345 -21.198  0.00  0.00    -0.079 HD
ENDBRANCH  28  30
ENDBRANCH  27  28
ENDBRANCH   1  27
TORSDOF 6
ENDMDL
