MODEL 1
REMARK VINA RESULT:     -12.5      0.000      0.000
REMARK  Name = 24864821
REMARK  5 active torsions:
REMARK  status: ('A' for Active; 'I' for Inactive)
REMARK    1  A    between atoms: C_5  and  C_16
REMARK    2  A    between atoms: C_7  and  C_10
REMARK    3  A    between atoms: C_16  and  O_17
REMARK    4  A    between atoms: O_17  and  C_20
REMARK    5  A    between atoms: C_25  and  O_28
REMARK                            x       y       z     vdW  Elec       q    Type
REMARK                         _______ _______ _______ _____ _____    ______ ____
ROOT
ATOM      1  N   UNL     1      35.395 -22.741 -14.944  0.00  0.00    -0.191 N 
ATOM      2  N   UNL     1      34.062 -22.521 -15.062  0.00  0.00    -0.163 NA
ATOM      3  N   UNL     1      37.561 -22.570 -15.230  0.00  0.00    -0.128 NA
ATOM      4  N   UNL     1      37.326 -23.562 -14.300  0.00  0.00    -0.127 NA
ATOM      5  C   UNL     1      36.396 -22.091 -15.605  0.00  0.00    +0.208 A 
ATOM      6  C   UNL     1      36.025 -23.657 -14.134  0.00  0.00    +0.186 A 
ATOM      7  C   UNL     1      33.333 -23.287 -14.299  0.00  0.00    +0.101 C 
ATOM      8  C   UNL     1      35.211 -24.482 -13.334  0.00  0.00    +0.042 C 
ATOM      9  C   UNL     1      33.880 -24.338 -13.383  0.00  0.00    +0.024 C 
ENDROOT
BRANCH   7  10
ATOM     10  C   UNL     1      31.854 -23.139 -14.335  0.00  0.00    +0.019 C 
ATOM     11  C   UNL     1      31.105 -23.337 -13.175  0.00  0.00    +0.002 C 
ATOM     12  C   UNL     1      31.216 -22.801 -15.528  0.00  0.00    +0.002 C 
ATOM     13  C   UNL     1      29.718 -23.196 -13.209  0.00  0.00    +0.000 C 
ATOM     14  C   UNL     1      29.829 -22.660 -15.562  0.00  0.00    +0.000 C 
ATOM     15  C   UNL     1      29.079 -22.858 -14.403  0.00  0.00    +0.000 C 
ENDBRANCH   7  10
BRANCH   5  16
ATOM     16  C   UNL     1      36.146 -20.996 -16.600  0.00  0.00    +0.272 C 
BRANCH  16  17
ATOM     17  O   UNL     1      35.878 -21.579 -17.874  0.00  0.00    -0.467 OA
BRANCH  17  20
ATOM     18  N   UNL     1      32.434 -20.327 -19.814  0.00  0.00    -0.248 NA
ATOM     19  C   UNL     1      34.817 -20.152 -19.506  0.00  0.00    +0.030 C 
ATOM     20  C   UNL     1      34.758 -21.152 -18.525  0.00  0.00    +0.138 C 
ATOM     21  C   UNL     1      33.614 -19.765 -20.133  0.00  0.00    +0.066 C 
ATOM     22  C   UNL     1      36.032 -19.542 -19.864  0.00  0.00    +0.059 C 
ATOM     23  C   UNL     1      33.673 -18.771 -21.107  0.00  0.00    +0.109 C 
ATOM     24  C   UNL     1      33.543 -21.733 -18.194  0.00  0.00    +0.057 C 
ATOM     25  C   UNL     1      34.881 -18.166 -21.463  0.00  0.00    +0.118 C 
ATOM     26  C   UNL     1      36.062 -18.552 -20.840  0.00  0.00    +0.011 C 
ATOM     27  C   UNL     1      32.419 -21.289 -18.863  0.00  0.00    +0.102 C 
BRANCH  25  28
ATOM     28  O   UNL     1      34.900 -17.199 -22.421  0.00  0.00    -0.476 OA
ATOM     29  C   UNL     1      33.799 -17.164 -23.329  0.00  0.00    +0.252 C 
ENDBRANCH  25  28
ENDBRANCH  17  20
ENDBRANCH  16  17
ENDBRANCH   5  16
TORSDOF 5
ENDMDL
MODEL 2
REMARK VINA RESULT:     -11.1      5.716      9.607
REMARK  Name = 24864821
REMARK  5 active torsions:
REMARK  status: ('A' for Active; 'I' for Inactive)
REMARK    1  A    between atoms: C_5  and  C_16
REMARK    2  A    between atoms: C_7  and  C_10
REMARK    3  A    between atoms: C_16  and  O_17
REMARK    4  A    between atoms: O_17  and  C_20
REMARK    5  A    between atoms: C_25  and  O_28
REMARK                            x       y       z     vdW  Elec       q    Type
REMARK                         _______ _______ _______ _____ _____    ______ ____
ROOT
ATOM      1  N   UNL     1      33.807 -16.838 -22.610  0.00  0.00    -0.191 N 
ATOM      2  N   UNL     1      33.849 -17.549 -21.455  0.00  0.00    -0.163 NA
ATOM      3  N   UNL     1      33.731 -15.154 -24.010  0.00  0.00    -0.128 NA
ATOM      4  N   UNL     1      33.765 -16.323 -24.743  0.00  0.00    -0.127 NA
ATOM      5  C   UNL     1      33.756 -15.481 -22.738  0.00  0.00    +0.208 A 
ATOM      6  C   UNL     1      33.811 -17.327 -23.895  0.00  0.00    +0.186 A 
ATOM      7  C   UNL     1      33.903 -18.839 -21.633  0.00  0.00    +0.101 C 
ATOM      8  C   UNL     1      33.852 -18.726 -24.056  0.00  0.00    +0.042 C 
ATOM      9  C   UNL     1      33.896 -19.511 -22.972  0.00  0.00    +0.024 C 
ENDROOT
BRANCH   7  10
ATOM     10  C   UNL     1      33.957 -19.728 -20.442  0.00  0.00    +0.019 C 
ATOM     11  C   UNL     1      32.776 -20.207 -19.875  0.00  0.00    +0.002 C 
ATOM     12  C   UNL     1      35.189 -20.083 -19.894  0.00  0.00    +0.002 C 
ATOM     13  C   UNL     1      32.828 -21.042 -18.760  0.00  0.00    +0.000 C 
ATOM     14  C   UNL     1      35.240 -20.918 -18.778  0.00  0.00    +0.000 C 
ATOM     15  C   UNL     1      34.060 -21.398 -18.210  0.00  0.00    +0.000 C 
ENDBRANCH   7  10
BRANCH   5  16
ATOM     16  C   UNL     1      33.735 -14.547 -21.563  0.00  0.00    +0.272 C 
BRANCH  16  17
ATOM     17  O   UNL     1      33.486 -13.221 -22.029  0.00  0.00    -0.467 OA
BRANCH  17  20
ATOM     18  N   UNL     1      30.501 -11.137 -20.046  0.00  0.00    -0.248 NA
ATOM     19  C   UNL     1      32.176 -11.210 -21.775  0.00  0.00    +0.030 C 
ATOM     20  C   UNL     1      32.508 -12.517 -21.391  0.00  0.00    +0.138 C 
ATOM     21  C   UNL     1      31.153 -10.549 -21.065  0.00  0.00    +0.066 C 
ATOM     22  C   UNL     1      32.836 -10.565 -22.835  0.00  0.00    +0.059 C 
ATOM     23  C   UNL     1      30.824  -9.251 -21.447  0.00  0.00    +0.109 C 
ATOM     24  C   UNL     1      31.838 -13.126 -20.340  0.00  0.00    +0.057 C 
ATOM     25  C   UNL     1      31.480  -8.609 -22.501  0.00  0.00    +0.118 C 
ATOM     26  C   UNL     1      32.487  -9.267 -23.195  0.00  0.00    +0.011 C 
ATOM     27  C   UNL     1      30.850 -12.399 -19.706  0.00  0.00    +0.102 C 
BRANCH  25  28
ATOM     28  O   UNL     1      31.130  -7.340 -22.847  0.00  0.00    -0.476 OA
ATOM     29  C   UNL     1      30.005  -6.771 -22.176  0.00  0.00    +0.252 C 
ENDBRANCH  25  28
ENDBRANCH  17  20
ENDBRANCH  16  17
ENDBRANCH   5  16
TORSDOF 5
ENDMDL
MODEL 3
REMARK VINA RESULT:     -10.9      1.834      4.263
REMARK  Name = 24864821
REMARK  5 active torsions:
REMARK  status: ('A' for Active; 'I' for Inactive)
REMARK    1  A    between atoms: C_5  and  C_16
REMARK    2  A    between atoms: C_7  and  C_10
REMARK    3  A    between atoms: C_16  and  O_17
REMARK    4  A    between atoms: O_17  and  C_20
REMARK    5  A    between atoms: C_25  and  O_28
REMARK                            x       y       z     vdW  Elec       q    Type
REMARK                         _______ _______ _______ _____ _____    ______ ____
ROOT
ATOM      1  N   UNL     1      32.712 -23.008 -16.016  0.00  0.00    -0.191 N 
ATOM      2  N   UNL     1      33.891 -23.521 -15.582  0.00  0.00    -0.163 NA
ATOM      3  N   UNL     1      31.189 -22.116 -17.315  0.00  0.00    -0.128 NA
ATOM      4  N   UNL     1      30.624 -22.335 -16.076  0.00  0.00    -0.127 NA
ATOM      5  C   UNL     1      32.437 -22.524 -17.261  0.00  0.00    +0.208 A 
ATOM      6  C   UNL     1      31.544 -22.871 -15.304  0.00  0.00    +0.186 A 
ATOM      7  C   UNL     1      33.865 -23.919 -14.340  0.00  0.00    +0.101 C 
ATOM      8  C   UNL     1      31.552 -23.294 -13.960  0.00  0.00    +0.042 C 
ATOM      9  C   UNL     1      32.671 -23.815 -13.441  0.00  0.00    +0.024 C 
ENDROOT
BRANCH   7  10
ATOM     10  C   UNL     1      35.096 -24.504 -13.748  0.00  0.00    +0.019 C 
ATOM     11  C   UNL     1      35.709 -23.884 -12.659  0.00  0.00    +0.002 C 
ATOM     12  C   UNL     1      35.637 -25.675 -14.279  0.00  0.00    +0.002 C 
ATOM     13  C   UNL     1      36.862 -24.435 -12.102  0.00  0.00    +0.000 C 
ATOM     14  C   UNL     1      36.791 -26.226 -13.722  0.00  0.00    +0.000 C 
ATOM     15  C   UNL     1      37.405 -25.606 -12.633  0.00  0.00    +0.000 C 
ENDBRANCH   7  10
BRANCH   5  16
ATOM     16  C   UNL     1      33.448 -22.487 -18.370  0.00  0.00    +0.272 C 
BRANCH  16  17
ATOM     17  O   UNL     1      33.205 -21.341 -19.183  0.00  0.00    -0.467 OA
BRANCH  17  20
ATOM     18  N   UNL     1      36.451 -18.838 -19.809  0.00  0.00    -0.248 NA
ATOM     19  C   UNL     1      34.259 -19.590 -20.467  0.00  0.00    +0.030 C 
ATOM     20  C   UNL     1      34.262 -20.508 -19.408  0.00  0.00    +0.138 C 
ATOM     21  C   UNL     1      35.390 -18.764 -20.633  0.00  0.00    +0.066 C 
ATOM     22  C   UNL     1      33.168 -19.485 -21.348  0.00  0.00    +0.059 C 
ATOM     23  C   UNL     1      35.387 -17.853 -21.686  0.00  0.00    +0.109 C 
ATOM     24  C   UNL     1      35.354 -20.588 -18.556  0.00  0.00    +0.057 C 
ATOM     25  C   UNL     1      34.303 -17.748 -22.561  0.00  0.00    +0.118 C 
ATOM     26  C   UNL     1      33.192 -18.566 -22.391  0.00  0.00    +0.011 C 
ATOM     27  C   UNL     1      36.415 -19.737 -18.798  0.00  0.00    +0.102 C 
BRANCH  25  28
ATOM     28  O   UNL     1      34.335 -16.844 -23.577  0.00  0.00    -0.476 OA
ATOM     29  C   UNL     1      34.119 -15.475 -23.236  0.00  0.00    +0.252 C 
ENDBRANCH  25  28
ENDBRANCH  17  20
ENDBRANCH  16  17
ENDBRANCH   5  16
TORSDOF 5
ENDMDL
MODEL 4
REMARK VINA RESULT:     -10.8      7.985     13.461
REMARK  Name = 24864821
REMARK  5 active torsions:
REMARK  status: ('A' for Active; 'I' for Inactive)
REMARK    1  A    between atoms: C_5  and  C_16
REMARK    2  A    between atoms: C_7  and  C_10
REMARK    3  A    between atoms: C_16  and  O_17
REMARK    4  A    between atoms: O_17  and  C_20
REMARK    5  A    between atoms: C_25  and  O_28
REMARK                            x       y       z     vdW  Elec       q    Type
REMARK                         _______ _______ _______ _____ _____    ______ ____
ROOT
ATOM      1  N   UNL     1      31.375  -9.769 -20.675  0.00  0.00    -0.191 N 
ATOM      2  N   UNL     1      31.830  -8.971 -21.672  0.00  0.00    -0.163 NA
ATOM      3  N   UNL     1      30.701 -11.544 -19.579  0.00  0.00    -0.128 NA
ATOM      4  N   UNL     1      30.664 -10.466 -18.718  0.00  0.00    -0.127 NA
ATOM      5  C   UNL     1      31.127 -11.109 -20.743  0.00  0.00    +0.208 A 
ATOM      6  C   UNL     1      31.071  -9.407 -19.383  0.00  0.00    +0.186 A 
ATOM      7  C   UNL     1      31.986  -7.726 -21.320  0.00  0.00    +0.101 C 
ATOM      8  C   UNL     1      31.232  -8.051 -19.037  0.00  0.00    +0.042 C 
ATOM      9  C   UNL     1      31.678  -7.186 -19.957  0.00  0.00    +0.024 C 
ENDROOT
BRANCH   7  10
ATOM     10  C   UNL     1      32.484  -6.750 -22.325  0.00  0.00    +0.019 C 
ATOM     11  C   UNL     1      33.767  -6.888 -22.854  0.00  0.00    +0.002 C 
ATOM     12  C   UNL     1      31.667  -5.699 -22.741  0.00  0.00    +0.002 C 
ATOM     13  C   UNL     1      34.233  -5.974 -23.798  0.00  0.00    +0.000 C 
ATOM     14  C   UNL     1      32.133  -4.786 -23.686  0.00  0.00    +0.000 C 
ATOM     15  C   UNL     1      33.417  -4.921 -24.215  0.00  0.00    +0.000 C 
ENDBRANCH   7  10
BRANCH   5  16
ATOM     16  C   UNL     1      31.331 -11.918 -21.991  0.00  0.00    +0.272 C 
BRANCH  16  17
ATOM     17  O   UNL     1      32.578 -12.604 -21.902  0.00  0.00    -0.467 OA
BRANCH  17  20
ATOM     18  N   UNL     1      33.299 -15.476 -24.804  0.00  0.00    -0.248 NA
ATOM     19  C   UNL     1      33.384 -14.801 -22.493  0.00  0.00    +0.030 C 
ATOM     20  C   UNL     1      32.824 -13.563 -22.839  0.00  0.00    +0.138 C 
ATOM     21  C   UNL     1      33.608 -15.740 -23.520  0.00  0.00    +0.066 C 
ATOM     22  C   UNL     1      33.719 -15.111 -21.163  0.00  0.00    +0.059 C 
ATOM     23  C   UNL     1      34.164 -16.969 -23.175  0.00  0.00    +0.109 C 
ATOM     24  C   UNL     1      32.504 -13.288 -24.161  0.00  0.00    +0.057 C 
ATOM     25  C   UNL     1      34.497 -17.277 -21.854  0.00  0.00    +0.118 C 
ATOM     26  C   UNL     1      34.275 -16.346 -20.847  0.00  0.00    +0.011 C 
ATOM     27  C   UNL     1      32.759 -14.271 -25.097  0.00  0.00    +0.102 C 
BRANCH  25  28
ATOM     28  O   UNL     1      35.038 -18.489 -21.555  0.00  0.00    -0.476 OA
ATOM     29  C   UNL     1      34.325 -19.308 -20.628  0.00  0.00    +0.252 C 
ENDBRANCH  25  28
ENDBRANCH  17  20
ENDBRANCH  16  17
ENDBRANCH   5  16
TORSDOF 5
ENDMDL
MODEL 5
REMARK VINA RESULT:     -10.7      5.778      9.687
REMARK  Name = 24864821
REMARK  5 active torsions:
REMARK  status: ('A' for Active; 'I' for Inactive)
REMARK    1  A    between atoms: C_5  and  C_16
REMARK    2  A    between atoms: C_7  and  C_10
REMARK    3  A    between atoms: C_16  and  O_17
REMARK    4  A    between atoms: O_17  and  C_20
REMARK    5  A    between atoms: C_25  and  O_28
REMARK                            x       y       z     vdW  Elec       q    Type
REMARK                         _______ _______ _______ _____ _____    ______ ____
ROOT
ATOM      1  N   UNL     1      33.795 -16.845 -22.581  0.00  0.00    -0.191 N 
ATOM      2  N   UNL     1      33.796 -17.555 -21.425  0.00  0.00    -0.163 NA
ATOM      3  N   UNL     1      33.763 -15.162 -23.983  0.00  0.00    -0.128 NA
ATOM      4  N   UNL     1      33.837 -16.330 -24.714  0.00  0.00    -0.127 NA
ATOM      5  C   UNL     1      33.738 -15.488 -22.711  0.00  0.00    +0.208 A 
ATOM      6  C   UNL     1      33.856 -17.334 -23.865  0.00  0.00    +0.186 A 
ATOM      7  C   UNL     1      33.868 -18.845 -21.600  0.00  0.00    +0.101 C 
ATOM      8  C   UNL     1      33.915 -18.732 -24.023  0.00  0.00    +0.042 C 
ATOM      9  C   UNL     1      33.921 -19.517 -22.938  0.00  0.00    +0.024 C 
ENDROOT
BRANCH   7  10
ATOM     10  C   UNL     1      33.880 -19.733 -20.408  0.00  0.00    +0.019 C 
ATOM     11  C   UNL     1      32.681 -20.205 -19.877  0.00  0.00    +0.002 C 
ATOM     12  C   UNL     1      35.093 -20.096 -19.822  0.00  0.00    +0.002 C 
ATOM     13  C   UNL     1      32.693 -21.039 -18.760  0.00  0.00    +0.000 C 
ATOM     14  C   UNL     1      35.106 -20.931 -18.705  0.00  0.00    +0.000 C 
ATOM     15  C   UNL     1      33.906 -21.403 -18.173  0.00  0.00    +0.000 C 
ENDBRANCH   7  10
BRANCH   5  16
ATOM     16  C   UNL     1      33.662 -14.554 -21.539  0.00  0.00    +0.272 C 
BRANCH  16  17
ATOM     17  O   UNL     1      32.401 -13.889 -21.556  0.00  0.00    -0.467 OA
BRANCH  17  20
ATOM     18  N   UNL     1      32.424  -9.936 -22.808  0.00  0.00    -0.248 NA
ATOM     19  C   UNL     1      31.845 -11.577 -21.142  0.00  0.00    +0.030 C 
ATOM     20  C   UNL     1      32.397 -12.582 -21.947  0.00  0.00    +0.138 C 
ATOM     21  C   UNL     1      31.880 -10.250 -21.617  0.00  0.00    +0.066 C 
ATOM     22  C   UNL     1      31.269 -11.868 -19.893  0.00  0.00    +0.059 C 
ATOM     23  C   UNL     1      31.331  -9.252 -20.816  0.00  0.00    +0.109 C 
ATOM     24  C   UNL     1      32.959 -12.262 -23.175  0.00  0.00    +0.057 C 
ATOM     25  C   UNL     1      30.759  -9.541 -19.575  0.00  0.00    +0.118 C 
ATOM     26  C   UNL     1      30.727 -10.851 -19.113  0.00  0.00    +0.011 C 
ATOM     27  C   UNL     1      32.947 -10.935 -23.555  0.00  0.00    +0.102 C 
BRANCH  25  28
ATOM     28  O   UNL     1      30.233  -8.539 -18.819  0.00  0.00    -0.476 OA
ATOM     29  C   UNL     1      30.884  -7.269 -18.881  0.00  0.00    +0.252 C 
ENDBRANCH  25  28
ENDBRANCH  17  20
ENDBRANCH  16  17
ENDBRANCH   5  16
TORSDOF 5
ENDMDL
MODEL 6
REMARK VINA RESULT:     -10.7      4.599     10.250
REMARK  Name = 24864821
REMARK  5 active torsions:
REMARK  status: ('A' for Active; 'I' for Inactive)
REMARK    1  A    between atoms: C_5  and  C_16
REMARK    2  A    between atoms: C_7  and  C_10
REMARK    3  A    between atoms: C_16  and  O_17
REMARK    4  A    between atoms: O_17  and  C_20
REMARK    5  A    between atoms: C_25  and  O_28
REMARK                            x       y       z     vdW  Elec       q    Type
REMARK                         _______ _______ _______ _____ _____    ______ ____
ROOT
ATOM      1  N   UNL     1      33.194 -14.822 -23.074  0.00  0.00    -0.191 N 
ATOM      2  N   UNL     1      32.797 -14.015 -22.058  0.00  0.00    -0.163 NA
ATOM      3  N   UNL     1      34.058 -16.515 -24.165  0.00  0.00    -0.128 NA
ATOM      4  N   UNL     1      33.546 -15.625 -25.086  0.00  0.00    -0.127 NA
ATOM      5  C   UNL     1      33.839 -16.019 -22.968  0.00  0.00    +0.208 A 
ATOM      6  C   UNL     1      33.029 -14.613 -24.424  0.00  0.00    +0.186 A 
ATOM      7  C   UNL     1      32.190 -12.931 -22.454  0.00  0.00    +0.101 C 
ATOM      8  C   UNL     1      32.387 -13.425 -24.822  0.00  0.00    +0.042 C 
ATOM      9  C   UNL     1      31.958 -12.565 -23.888  0.00  0.00    +0.024 C 
ENDROOT
BRANCH   7  10
ATOM     10  C   UNL     1      31.703 -11.967 -21.433  0.00  0.00    +0.019 C 
ATOM     11  C   UNL     1      31.540 -10.622 -21.766  0.00  0.00    +0.002 C 
ATOM     12  C   UNL     1      31.407 -12.407 -20.144  0.00  0.00    +0.002 C 
ATOM     13  C   UNL     1      31.081  -9.718 -20.808  0.00  0.00    +0.000 C 
ATOM     14  C   UNL     1      30.948 -11.503 -19.186  0.00  0.00    +0.000 C 
ATOM     15  C   UNL     1      30.785 -10.158 -19.518  0.00  0.00    +0.000 C 
ENDBRANCH   7  10
BRANCH   5  16
ATOM     16  C   UNL     1      34.218 -16.633 -21.652  0.00  0.00    +0.272 C 
BRANCH  16  17
ATOM     17  O   UNL     1      33.868 -18.016 -21.666  0.00  0.00    -0.467 OA
BRANCH  17  20
ATOM     18  N   UNL     1      35.854 -20.436 -18.948  0.00  0.00    -0.248 NA
ATOM     19  C   UNL     1      33.793 -19.749 -19.988  0.00  0.00    +0.030 C 
ATOM     20  C   UNL     1      34.500 -18.822 -20.766  0.00  0.00    +0.138 C 
ATOM     21  C   UNL     1      34.519 -20.546 -19.079  0.00  0.00    +0.066 C 
ATOM     22  C   UNL     1      32.399 -19.890 -20.098  0.00  0.00    +0.059 C 
ATOM     23  C   UNL     1      33.816 -21.465 -18.306  0.00  0.00    +0.109 C 
ATOM     24  C   UNL     1      35.877 -18.707 -20.634  0.00  0.00    +0.057 C 
ATOM     25  C   UNL     1      32.430 -21.606 -18.416  0.00  0.00    +0.118 C 
ATOM     26  C   UNL     1      31.721 -20.817 -19.313  0.00  0.00    +0.011 C 
ATOM     27  C   UNL     1      36.501 -19.531 -19.718  0.00  0.00    +0.102 C 
BRANCH  25  28
ATOM     28  O   UNL     1      31.777 -22.517 -17.645  0.00  0.00    -0.476 OA
ATOM     29  C   UNL     1      32.479 -23.033 -16.514  0.00  0.00    +0.252 C 
ENDBRANCH  25  28
ENDBRANCH  17  20
ENDBRANCH  16  17
ENDBRANCH   5  16
TORSDOF 5
ENDMDL
MODEL 7
REMARK VINA RESULT:     -10.7      8.500     13.778
REMARK  Name = 24864821
REMARK  5 active torsions:
REMARK  status: ('A' for Active; 'I' for Inactive)
REMARK    1  A    between atoms: C_5  and  C_16
REMARK    2  A    between atoms: C_7  and  C_10
REMARK    3  A    between atoms: C_16  and  O_17
REMARK    4  A    between atoms: O_17  and  C_20
REMARK    5  A    between atoms: C_25  and  O_28
REMARK                            x       y       z     vdW  Elec       q    Type
REMARK                         _______ _______ _______ _____ _____    ______ ____
ROOT
ATOM      1  N   UNL     1      33.204  -8.971 -23.138  0.00  0.00    -0.191 N 
ATOM      2  N   UNL     1      32.413  -8.454 -22.165  0.00  0.00    -0.163 NA
ATOM      3  N   UNL     1      34.158 -10.401 -24.498  0.00  0.00    -0.128 NA
ATOM      4  N   UNL     1      34.664  -9.146 -24.769  0.00  0.00    -0.127 NA
ATOM      5  C   UNL     1      33.288 -10.278 -23.521  0.00  0.00    +0.208 A 
ATOM      6  C   UNL     1      34.086  -8.295 -23.949  0.00  0.00    +0.186 A 
ATOM      7  C   UNL     1      32.532  -7.164 -22.021  0.00  0.00    +0.101 C 
ATOM      8  C   UNL     1      34.206  -6.905 -23.757  0.00  0.00    +0.042 C 
ATOM      9  C   UNL     1      33.463  -6.304 -22.819  0.00  0.00    +0.024 C 
ENDROOT
BRANCH   7  10
ATOM     10  C   UNL     1      31.712  -6.478 -20.987  0.00  0.00    +0.019 C 
ATOM     11  C   UNL     1      30.630  -5.686 -21.368  0.00  0.00    +0.002 C 
ATOM     12  C   UNL     1      32.026  -6.628 -19.637  0.00  0.00    +0.002 C 
ATOM     13  C   UNL     1      29.861  -5.044 -20.399  0.00  0.00    +0.000 C 
ATOM     14  C   UNL     1      31.256  -5.987 -18.667  0.00  0.00    +0.000 C 
ATOM     15  C   UNL     1      30.173  -5.194 -19.047  0.00  0.00    +0.000 C 
ENDBRANCH   7  10
BRANCH   5  16
ATOM     16  C   UNL     1      32.481 -11.372 -22.886  0.00  0.00    +0.272 C 
BRANCH  16  17
ATOM     17  O   UNL     1      33.300 -12.530 -22.741  0.00  0.00    -0.467 OA
BRANCH  17  20
ATOM     18  N   UNL     1      32.442 -15.693 -25.281  0.00  0.00    -0.248 NA
ATOM     19  C   UNL     1      33.393 -14.895 -23.217  0.00  0.00    +0.030 C 
ATOM     20  C   UNL     1      33.028 -13.586 -23.561  0.00  0.00    +0.138 C 
ATOM     21  C   UNL     1      33.077 -15.932 -24.118  0.00  0.00    +0.066 C 
ATOM     22  C   UNL     1      34.057 -15.181 -22.011  0.00  0.00    +0.059 C 
ATOM     23  C   UNL     1      33.440 -17.231 -23.775  0.00  0.00    +0.109 C 
ATOM     24  C   UNL     1      32.374 -13.336 -24.758  0.00  0.00    +0.057 C 
ATOM     25  C   UNL     1      34.099 -17.516 -22.577  0.00  0.00    +0.118 C 
ATOM     26  C   UNL     1      34.409 -16.489 -21.694  0.00  0.00    +0.011 C 
ATOM     27  C   UNL     1      32.106 -14.417 -25.576  0.00  0.00    +0.102 C 
BRANCH  25  28
ATOM     28  O   UNL     1      34.437 -18.799 -22.276  0.00  0.00    -0.476 OA
ATOM     29  C   UNL     1      33.810 -19.385 -21.135  0.00  0.00    +0.252 C 
ENDBRANCH  25  28
ENDBRANCH  17  20
ENDBRANCH  16  17
ENDBRANCH   5  16
TORSDOF 5
ENDMDL
MODEL 8
REMARK VINA RESULT:     -10.6      2.773      6.762
REMARK  Name = 24864821
REMARK  5 active torsions:
REMARK  status: ('A' for Active; 'I' for Inactive)
REMARK    1  A    between atoms: C_5  and  C_16
REMARK    2  A    between atoms: C_7  and  C_10
REMARK    3  A    between atoms: C_16  and  O_17
REMARK    4  A    between atoms: O_17  and  C_20
REMARK    5  A    between atoms: C_25  and  O_28
REMARK                            x       y       z     vdW  Elec       q    Type
REMARK                         _______ _______ _______ _____ _____    ______ ____
ROOT
ATOM      1  N   UNL     1      35.288 -23.025 -15.140  0.00  0.00    -0.191 N 
ATOM      2  N   UNL     1      34.474 -22.584 -16.132  0.00  0.00    -0.163 NA
ATOM      3  N   UNL     1      36.012 -24.095 -13.371  0.00  0.00    -0.128 NA
ATOM      4  N   UNL     1      37.048 -23.330 -13.865  0.00  0.00    -0.127 NA
ATOM      5  C   UNL     1      34.968 -23.901 -14.144  0.00  0.00    +0.208 A 
ATOM      6  C   UNL     1      36.605 -22.692 -14.926  0.00  0.00    +0.186 A 
ATOM      7  C   UNL     1      35.051 -21.754 -16.955  0.00  0.00    +0.101 C 
ATOM      8  C   UNL     1      37.195 -21.779 -15.822  0.00  0.00    +0.042 C 
ATOM      9  C   UNL     1      36.470 -21.289 -16.835  0.00  0.00    +0.024 C 
ENDROOT
BRANCH   7  10
ATOM     10  C   UNL     1      34.263 -21.202 -18.089  0.00  0.00    +0.019 C 
ATOM     11  C   UNL     1      34.902 -20.476 -19.094  0.00  0.00    +0.002 C 
ATOM     12  C   UNL     1      32.886 -21.412 -18.148  0.00  0.00    +0.002 C 
ATOM     13  C   UNL     1      34.162 -19.960 -20.158  0.00  0.00    +0.000 C 
ATOM     14  C   UNL     1      32.147 -20.897 -19.212  0.00  0.00    +0.000 C 
ATOM     15  C   UNL     1      32.784 -20.170 -20.218  0.00  0.00    +0.000 C 
ENDBRANCH   7  10
BRANCH   5  16
ATOM     16  C   UNL     1      33.609 -24.522 -14.002  0.00  0.00    +0.272 C 
BRANCH  16  17
ATOM     17  O   UNL     1      32.636 -23.486 -13.881  0.00  0.00    -0.467 OA
BRANCH  17  20
ATOM     18  N   UNL     1      28.757 -24.699 -13.057  0.00  0.00    -0.248 NA
ATOM     19  C   UNL     1      30.284 -23.427 -14.419  0.00  0.00    +0.030 C 
ATOM     20  C   UNL     1      31.352 -23.872 -13.629  0.00  0.00    +0.138 C 
ATOM     21  C   UNL     1      28.986 -23.871 -14.093  0.00  0.00    +0.066 C 
ATOM     22  C   UNL     1      30.485 -22.562 -15.509  0.00  0.00    +0.059 C 
ATOM     23  C   UNL     1      27.925 -23.428 -14.879  0.00  0.00    +0.109 C 
ATOM     24  C   UNL     1      31.120 -24.725 -12.560  0.00  0.00    +0.057 C 
ATOM     25  C   UNL     1      28.125 -22.569 -15.962  0.00  0.00    +0.118 C 
ATOM     26  C   UNL     1      29.407 -22.135 -16.277  0.00  0.00    +0.011 C 
ATOM     27  C   UNL     1      29.815 -25.106 -12.319  0.00  0.00    +0.102 C 
BRANCH  25  28
ATOM     28  O   UNL     1      27.063 -22.159 -16.709  0.00  0.00    -0.476 OA
ATOM     29  C   UNL     1      25.893 -21.747 -16.002  0.00  0.00    +0.252 C 
ENDBRANCH  25  28
ENDBRANCH  17  20
ENDBRANCH  16  17
ENDBRANCH   5  16
TORSDOF 5
ENDMDL
MODEL 9
REMARK VINA RESULT:     -10.5      2.954      8.547
REMARK  Name = 24864821
REMARK  5 active torsions:
REMARK  status: ('A' for Active; 'I' for Inactive)
REMARK    1  A    between atoms: C_5  and  C_16
REMARK    2  A    between atoms: C_7  and  C_10
REMARK    3  A    between atoms: C_16  and  O_17
REMARK    4  A    between atoms: O_17  and  C_20
REMARK    5  A    between atoms: C_25  and  O_28
REMARK                            x       y       z     vdW  Elec       q    Type
REMARK                         _______ _______ _______ _____ _____    ______ ____
ROOT
ATOM      1  N   UNL     1      34.355 -21.723 -17.454  0.00  0.00    -0.191 N 
ATOM      2  N   UNL     1      34.834 -20.894 -18.414  0.00  0.00    -0.163 NA
ATOM      3  N   UNL     1      34.260 -23.030 -15.697  0.00  0.00    -0.128 NA
ATOM      4  N   UNL     1      32.997 -22.955 -16.247  0.00  0.00    -0.127 NA
ATOM      5  C   UNL     1      35.059 -22.289 -16.431  0.00  0.00    +0.208 A 
ATOM      6  C   UNL     1      33.063 -22.169 -17.299  0.00  0.00    +0.186 A 
ATOM      7  C   UNL     1      33.929 -20.495 -19.264  0.00  0.00    +0.101 C 
ATOM      8  C   UNL     1      32.111 -21.736 -18.243  0.00  0.00    +0.042 C 
ATOM      9  C   UNL     1      32.491 -20.913 -19.229  0.00  0.00    +0.024 C 
ENDROOT
BRANCH   7  10
ATOM     10  C   UNL     1      34.330 -19.578 -20.363  0.00  0.00    +0.019 C 
ATOM     11  C   UNL     1      35.583 -18.967 -20.340  0.00  0.00    +0.002 C 
ATOM     12  C   UNL     1      33.452 -19.330 -21.419  0.00  0.00    +0.002 C 
ATOM     13  C   UNL     1      35.959 -18.109 -21.373  0.00  0.00    +0.000 C 
ATOM     14  C   UNL     1      33.828 -18.472 -22.451  0.00  0.00    +0.000 C 
ATOM     15  C   UNL     1      35.082 -17.860 -22.429  0.00  0.00    +0.000 C 
ENDBRANCH   7  10
BRANCH   5  16
ATOM     16  C   UNL     1      36.528 -22.062 -16.222  0.00  0.00    +0.272 C 
BRANCH  16  17
ATOM     17  O   UNL     1      36.797 -22.019 -14.822  0.00  0.00    -0.467 OA
BRANCH  17  20
ATOM     18  N   UNL     1      37.904 -25.602 -13.053  0.00  0.00    -0.248 NA
ATOM     19  C   UNL     1      36.477 -23.661 -13.082  0.00  0.00    +0.030 C 
ATOM     20  C   UNL     1      37.144 -23.194 -14.224  0.00  0.00    +0.138 C 
ATOM     21  C   UNL     1      36.896 -24.885 -12.522  0.00  0.00    +0.066 C 
ATOM     22  C   UNL     1      35.421 -22.939 -12.500  0.00  0.00    +0.059 C 
ATOM     23  C   UNL     1      36.234 -25.348 -11.388  0.00  0.00    +0.109 C 
ATOM     24  C   UNL     1      38.183 -23.930 -14.774  0.00  0.00    +0.057 C 
ATOM     25  C   UNL     1      35.183 -24.631 -10.810  0.00  0.00    +0.118 C 
ATOM     26  C   UNL     1      34.776 -23.424 -11.367  0.00  0.00    +0.011 C 
ATOM     27  C   UNL     1      38.521 -25.118 -14.156  0.00  0.00    +0.102 C 
BRANCH  25  28
ATOM     28  O   UNL     1      34.559 -25.116  -9.702  0.00  0.00    -0.476 OA
ATOM     29  C   UNL     1      34.472 -24.246  -8.573  0.00  0.00    +0.252 C 
ENDBRANCH  25  28
ENDBRANCH  17  20
ENDBRANCH  16  17
ENDBRANCH   5  16
TORSDOF 5
ENDMDL
