MODEL 1
REMARK VINA RESULT:     -11.4      0.000      0.000
REMARK  Name = 16122642
REMARK  7 active torsions:
REMARK  status: ('A' for Active; 'I' for Inactive)
REMARK    1  A    between atoms: C_2  and  C_10
REMARK    2  A    between atoms: C_3  and  O_18
REMARK    3  A    between atoms: O_18  and  C_19
REMARK    4  A    between atoms: C_19  and  C_20
REMARK    5  A    between atoms: C_20  and  N_21
REMARK    6  A    between atoms: C_20  and  C_25
REMARK    7  A    between atoms: C_25  and  C_27
REMARK                            x       y       z     vdW  Elec       q    Type
REMARK                         _______ _______ _______ _____ _____    ______ ____
ROOT
ATOM      1  N   UNL     1      32.563 -14.070 -25.451  0.00  0.00    -0.239 NA
ATOM      2  C   UNL     1      33.091 -12.279 -23.925  0.00  0.00    +0.022 C 
ATOM      3  C   UNL     1      33.211 -14.554 -23.173  0.00  0.00    +0.158 C 
ATOM      4  C   UNL     1      33.347 -13.194 -22.916  0.00  0.00    +0.040 C 
ATOM      5  C   UNL     1      32.707 -12.756 -25.164  0.00  0.00    +0.099 C 
ATOM      6  C   UNL     1      32.820 -14.936 -24.447  0.00  0.00    +0.136 C 
ENDROOT
BRANCH   2  10
ATOM      7  N   UNL     1      32.555  -6.818 -22.048  0.00  0.00    -0.280 N 
ATOM      8  N   UNL     1      33.543  -6.845 -22.963  0.00  0.00    -0.173 NA
ATOM      9  C   UNL     1      32.620  -8.894 -22.635  0.00  0.00    +0.032 A 
ATOM     10  C   UNL     1      33.226 -10.854 -23.687  0.00  0.00    +0.002 C 
ATOM     11  C   UNL     1      33.612  -8.130 -23.351  0.00  0.00    +0.102 A 
ATOM     12  C   UNL     1      32.365 -10.255 -22.745  0.00  0.00    +0.003 C 
ATOM     13  C   UNL     1      31.963  -8.025 -21.811  0.00  0.00    +0.053 A 
ATOM     14  C   UNL     1      34.224 -10.141 -24.423  0.00  0.00    +0.002 C 
ATOM     15  C   UNL     1      34.458  -8.755 -24.287  0.00  0.00    +0.021 C 
ATOM     16  C   UNL     1      30.866  -8.180 -20.841  0.00  0.00    +0.051 C 
ATOM     17  H   UNL     1      32.280  -5.993 -21.587  0.00  0.00    +0.189 HD
ENDBRANCH   2  10
BRANCH   3  18
ATOM     18  O   UNL     1      33.453 -15.476 -22.210  0.00  0.00    -0.476 OA
BRANCH  18  19
ATOM     19  C   UNL     1      34.469 -16.447 -22.471  0.00  0.00    +0.184 C 
BRANCH  19  20
ATOM     20  C   UNL     1      33.958 -17.854 -22.137  0.00  0.00    -0.017 C 
BRANCH  20  21
ATOM     21  N   UNL     1      33.690 -18.558 -23.394  0.00  0.00    +0.384 N 
ATOM     22  H   UNL     1      33.773 -17.905 -24.173  0.00  0.00    -0.089 HD
ATOM     23  H   UNL     1      32.746 -18.943 -23.373  0.00  0.00    -0.089 HD
ATOM     24  H   UNL     1      34.364 -19.315 -23.511  0.00  0.00    -0.089 HD
ENDBRANCH  20  21
BRANCH  20  25
ATOM     25  C   UNL     1      34.969 -18.688 -21.321  0.00  0.00    +0.008 C 
BRANCH  25  27
ATOM     26 BR   UNL     1      32.420 -22.553 -17.241  0.00  0.00    -0.049 Br
ATOM     27  C   UNL     1      34.344 -19.634 -20.324  0.00  0.00    -0.024 C 
ATOM     28  C   UNL     1      32.964 -19.703 -20.224  0.00  0.00    -0.004 C 
ATOM     29  C   UNL     1      35.164 -20.415 -19.526  0.00  0.00    -0.004 C 
ATOM     30  C   UNL     1      32.388 -20.576 -19.302  0.00  0.00    +0.006 C 
ATOM     31  C   UNL     1      34.588 -21.288 -18.604  0.00  0.00    +0.006 C 
ATOM     32  C   UNL     1      33.201 -21.369 -18.492  0.00  0.00    +0.035 C 
ENDBRANCH  25  27
ENDBRANCH  20  25
ENDBRANCH  19  20
ENDBRANCH  18  19
ENDBRANCH   3  18
TORSDOF 7
ENDMDL
MODEL 2
REMARK VINA RESULT:     -11.1      4.482      8.072
REMARK  Name = 16122642
REMARK  7 active torsions:
REMARK  status: ('A' for Active; 'I' for Inactive)
REMARK    1  A    between atoms: C_2  and  C_10
REMARK    2  A    between atoms: C_3  and  O_18
REMARK    3  A    between atoms: O_18  and  C_19
REMARK    4  A    between atoms: C_19  and  C_20
REMARK    5  A    between atoms: C_20  and  N_21
REMARK    6  A    between atoms: C_20  and  C_25
REMARK    7  A    between atoms: C_25  and  C_27
REMARK                            x       y       z     vdW  Elec       q    Type
REMARK                         _______ _______ _______ _____ _____    ______ ____
ROOT
ATOM      1  N   UNL     1      35.560 -20.780 -18.602  0.00  0.00    -0.239 NA
ATOM      2  C   UNL     1      34.175 -19.691 -20.249  0.00  0.00    +0.022 C 
ATOM      3  C   UNL     1      33.197 -21.272 -18.733  0.00  0.00    +0.158 C 
ATOM      4  C   UNL     1      33.062 -20.379 -19.791  0.00  0.00    +0.040 C 
ATOM      5  C   UNL     1      35.390 -19.919 -19.632  0.00  0.00    +0.099 C 
ATOM      6  C   UNL     1      34.456 -21.434 -18.178  0.00  0.00    +0.136 C 
ENDROOT
BRANCH   2  10
ATOM      7  N   UNL     1      33.748 -14.971 -23.591  0.00  0.00    -0.280 N 
ATOM      8  N   UNL     1      33.757 -16.049 -24.399  0.00  0.00    -0.173 NA
ATOM      9  C   UNL     1      33.909 -16.617 -22.205  0.00  0.00    +0.032 A 
ATOM     10  C   UNL     1      34.066 -18.752 -21.351  0.00  0.00    +0.002 C 
ATOM     11  C   UNL     1      33.858 -17.098 -23.565  0.00  0.00    +0.102 A 
ATOM     12  C   UNL     1      34.013 -17.378 -21.047  0.00  0.00    +0.003 C 
ATOM     13  C   UNL     1      33.836 -15.254 -22.260  0.00  0.00    +0.053 A 
ATOM     14  C   UNL     1      34.019 -19.279 -22.680  0.00  0.00    +0.002 C 
ATOM     15  C   UNL     1      33.914 -18.478 -23.838  0.00  0.00    +0.021 C 
ATOM     16  C   UNL     1      33.840 -14.197 -21.235  0.00  0.00    +0.051 C 
ATOM     17  H   UNL     1      33.681 -14.051 -23.934  0.00  0.00    +0.189 HD
ENDBRANCH   2  10
BRANCH   3  18
ATOM     18  O   UNL     1      32.130 -21.961 -18.259  0.00  0.00    -0.476 OA
BRANCH  18  19
ATOM     19  C   UNL     1      32.363 -22.875 -17.186  0.00  0.00    +0.184 C 
BRANCH  19  20
ATOM     20  C   UNL     1      31.691 -22.370 -15.903  0.00  0.00    -0.017 C 
BRANCH  20  21
ATOM     21  N   UNL     1      30.238 -22.411 -16.096  0.00  0.00    +0.384 N 
ATOM     22  H   UNL     1      30.031 -22.511 -17.089  0.00  0.00    -0.089 HD
ATOM     23  H   UNL     1      29.824 -21.547 -15.747  0.00  0.00    -0.089 HD
ATOM     24  H   UNL     1      29.849 -23.205 -15.586  0.00  0.00    -0.089 HD
ENDBRANCH  20  21
BRANCH  20  25
ATOM     25  C   UNL     1      32.038 -23.220 -14.661  0.00  0.00    +0.008 C 
BRANCH  25  27
ATOM     26 BR   UNL     1      38.046 -24.448 -13.982  0.00  0.00    -0.049 Br
ATOM     27  C   UNL     1      33.508 -23.519 -14.494  0.00  0.00    -0.024 C 
ATOM     28  C   UNL     1      34.422 -22.479 -14.533  0.00  0.00    -0.004 C 
ATOM     29  C   UNL     1      33.915 -24.830 -14.307  0.00  0.00    -0.004 C 
ATOM     30  C   UNL     1      35.780 -22.757 -14.379  0.00  0.00    +0.006 C 
ATOM     31  C   UNL     1      35.273 -25.108 -14.153  0.00  0.00    +0.006 C 
ATOM     32  C   UNL     1      36.206 -24.072 -14.189  0.00  0.00    +0.035 C 
ENDBRANCH  25  27
ENDBRANCH  20  25
ENDBRANCH  19  20
ENDBRANCH  18  19
ENDBRANCH   3  18
TORSDOF 7
ENDMDL
MODEL 3
REMARK VINA RESULT:     -11.1      3.713     10.215
REMARK  Name = 16122642
REMARK  7 active torsions:
REMARK  status: ('A' for Active; 'I' for Inactive)
REMARK    1  A    between atoms: C_2  and  C_10
REMARK    2  A    between atoms: C_3  and  O_18
REMARK    3  A    between atoms: O_18  and  C_19
REMARK    4  A    between atoms: C_19  and  C_20
REMARK    5  A    between atoms: C_20  and  N_21
REMARK    6  A    between atoms: C_20  and  C_25
REMARK    7  A    between atoms: C_25  and  C_27
REMARK                            x       y       z     vdW  Elec       q    Type
REMARK                         _______ _______ _______ _____ _____    ______ ____
ROOT
ATOM      1  N   UNL     1      33.050 -16.048 -24.808  0.00  0.00    -0.239 NA
ATOM      2  C   UNL     1      33.960 -16.605 -22.645  0.00  0.00    +0.022 C 
ATOM      3  C   UNL     1      33.573 -14.306 -23.215  0.00  0.00    +0.158 C 
ATOM      4  C   UNL     1      34.006 -15.262 -22.302  0.00  0.00    +0.040 C 
ATOM      5  C   UNL     1      33.478 -16.948 -23.894  0.00  0.00    +0.099 C 
ATOM      6  C   UNL     1      33.107 -14.748 -24.443  0.00  0.00    +0.136 C 
ENDROOT
BRANCH   2  10
ATOM      7  N   UNL     1      34.331 -20.975 -18.851  0.00  0.00    -0.280 N 
ATOM      8  N   UNL     1      35.579 -20.520 -19.080  0.00  0.00    -0.173 NA
ATOM      9  C   UNL     1      34.015 -19.374 -20.263  0.00  0.00    +0.032 A 
ATOM     10  C   UNL     1      34.404 -17.625 -21.714  0.00  0.00    +0.002 C 
ATOM     11  C   UNL     1      35.418 -19.517 -19.961  0.00  0.00    +0.102 A 
ATOM     12  C   UNL     1      33.430 -18.456 -21.126  0.00  0.00    +0.003 C 
ATOM     13  C   UNL     1      33.350 -20.321 -19.537  0.00  0.00    +0.053 A 
ATOM     14  C   UNL     1      35.806 -17.726 -21.447  0.00  0.00    +0.002 C 
ATOM     15  C   UNL     1      36.370 -18.672 -20.563  0.00  0.00    +0.021 C 
ATOM     16  C   UNL     1      31.930 -20.687 -19.407  0.00  0.00    +0.051 C 
ATOM     17  H   UNL     1      34.143 -21.719 -18.236  0.00  0.00    +0.189 HD
ENDBRANCH   2  10
BRANCH   3  18
ATOM     18  O   UNL     1      33.605 -12.986 -22.912  0.00  0.00    -0.476 OA
BRANCH  18  19
ATOM     19  C   UNL     1      33.111 -12.075 -23.897  0.00  0.00    +0.184 C 
BRANCH  19  20
ATOM     20  C   UNL     1      33.483 -10.635 -23.523  0.00  0.00    -0.017 C 
BRANCH  20  21
ATOM     21  N   UNL     1      34.584 -10.203 -24.389  0.00  0.00    +0.384 N 
ATOM     22  H   UNL     1      35.419 -10.745 -24.172  0.00  0.00    -0.089 HD
ATOM     23  H   UNL     1      34.771  -9.212 -24.232  0.00  0.00    -0.089 HD
ATOM     24  H   UNL     1      34.327 -10.350 -25.365  0.00  0.00    -0.089 HD
ENDBRANCH  20  21
BRANCH  20  25
ATOM     25  C   UNL     1      32.314  -9.642 -23.695  0.00  0.00    +0.008 C 
BRANCH  25  27
ATOM     26 BR   UNL     1      31.461  -5.821 -18.925  0.00  0.00    -0.049 Br
ATOM     27  C   UNL     1      32.105  -8.707 -22.529  0.00  0.00    -0.024 C 
ATOM     28  C   UNL     1      32.852  -7.542 -22.450  0.00  0.00    -0.004 C 
ATOM     29  C   UNL     1      31.171  -9.031 -21.559  0.00  0.00    -0.004 C 
ATOM     30  C   UNL     1      32.659  -6.679 -21.372  0.00  0.00    +0.006 C 
ATOM     31  C   UNL     1      30.979  -8.168 -20.481  0.00  0.00    +0.006 C 
ATOM     32  C   UNL     1      31.722  -6.991 -20.387  0.00  0.00    +0.035 C 
ENDBRANCH  25  27
ENDBRANCH  20  25
ENDBRANCH  19  20
ENDBRANCH  18  19
ENDBRANCH   3  18
TORSDOF 7
ENDMDL
MODEL 4
REMARK VINA RESULT:     -11.1      6.012     12.427
REMARK  Name = 16122642
REMARK  7 active torsions:
REMARK  status: ('A' for Active; 'I' for Inactive)
REMARK    1  A    between atoms: C_2  and  C_10
REMARK    2  A    between atoms: C_3  and  O_18
REMARK    3  A    between atoms: O_18  and  C_19
REMARK    4  A    between atoms: C_19  and  C_20
REMARK    5  A    between atoms: C_20  and  N_21
REMARK    6  A    between atoms: C_20  and  C_25
REMARK    7  A    between atoms: C_25  and  C_27
REMARK                            x       y       z     vdW  Elec       q    Type
REMARK                         _______ _______ _______ _____ _____    ______ ____
ROOT
ATOM      1  N   UNL     1      36.065 -21.778 -15.834  0.00  0.00    -0.239 NA
ATOM      2  C   UNL     1      33.765 -22.504 -15.849  0.00  0.00    +0.022 C 
ATOM      3  C   UNL     1      34.749 -21.633 -17.857  0.00  0.00    +0.158 C 
ATOM      4  C   UNL     1      33.652 -22.167 -17.189  0.00  0.00    +0.040 C 
ATOM      5  C   UNL     1      34.978 -22.295 -15.219  0.00  0.00    +0.099 C 
ATOM      6  C   UNL     1      35.922 -21.461 -17.140  0.00  0.00    +0.136 C 
ENDROOT
BRANCH   2  10
ATOM      7  N   UNL     1      28.503 -24.058 -13.970  0.00  0.00    -0.280 N 
ATOM      8  N   UNL     1      29.415 -24.602 -13.141  0.00  0.00    -0.173 NA
ATOM      9  C   UNL     1      30.380 -23.389 -14.802  0.00  0.00    +0.032 A 
ATOM     10  C   UNL     1      32.638 -23.063 -15.125  0.00  0.00    +0.002 C 
ATOM     11  C   UNL     1      30.602 -24.205 -13.632  0.00  0.00    +0.102 A 
ATOM     12  C   UNL     1      31.342 -22.785 -15.601  0.00  0.00    +0.003 C 
ATOM     13  C   UNL     1      29.028 -23.317 -14.989  0.00  0.00    +0.053 A 
ATOM     14  C   UNL     1      32.911 -23.864 -13.972  0.00  0.00    +0.002 C 
ATOM     15  C   UNL     1      31.909 -24.466 -13.180  0.00  0.00    +0.021 C 
ATOM     16  C   UNL     1      28.177 -22.651 -15.989  0.00  0.00    +0.051 C 
ATOM     17  H   UNL     1      27.535 -24.184 -13.851  0.00  0.00    +0.189 HD
ENDBRANCH   2  10
BRANCH   3  18
ATOM     18  O   UNL     1      34.672 -21.294 -19.167  0.00  0.00    -0.476 OA
BRANCH  18  19
ATOM     19  C   UNL     1      33.693 -20.319 -19.535  0.00  0.00    +0.184 C 
BRANCH  19  20
ATOM     20  C   UNL     1      34.353 -19.166 -20.300  0.00  0.00    -0.017 C 
BRANCH  20  21
ATOM     21  N   UNL     1      35.761 -19.091 -19.899  0.00  0.00    +0.384 N 
ATOM     22  H   UNL     1      35.904 -18.268 -19.315  0.00  0.00    -0.089 HD
ATOM     23  H   UNL     1      36.349 -19.025 -20.730  0.00  0.00    -0.089 HD
ATOM     24  H   UNL     1      36.009 -19.929 -19.372  0.00  0.00    -0.089 HD
ENDBRANCH  20  21
BRANCH  20  25
ATOM     25  C   UNL     1      34.296 -19.343 -21.833  0.00  0.00    +0.008 C 
BRANCH  25  27
ATOM     26 BR   UNL     1      32.669 -14.272 -24.950  0.00  0.00    -0.049 Br
ATOM     27  C   UNL     1      33.897 -18.103 -22.595  0.00  0.00    -0.024 C 
ATOM     28  C   UNL     1      33.110 -18.226 -23.730  0.00  0.00    -0.004 C 
ATOM     29  C   UNL     1      34.326 -16.864 -22.148  0.00  0.00    -0.004 C 
ATOM     30  C   UNL     1      32.743 -17.080 -24.434  0.00  0.00    +0.006 C 
ATOM     31  C   UNL     1      33.959 -15.718 -22.852  0.00  0.00    +0.006 C 
ATOM     32  C   UNL     1      33.166 -15.826 -23.995  0.00  0.00    +0.035 C 
ENDBRANCH  25  27
ENDBRANCH  20  25
ENDBRANCH  19  20
ENDBRANCH  18  19
ENDBRANCH   3  18
TORSDOF 7
ENDMDL
MODEL 5
REMARK VINA RESULT:     -11.1      4.653      8.182
REMARK  Name = 16122642
REMARK  7 active torsions:
REMARK  status: ('A' for Active; 'I' for Inactive)
REMARK    1  A    between atoms: C_2  and  C_10
REMARK    2  A    between atoms: C_3  and  O_18
REMARK    3  A    between atoms: O_18  and  C_19
REMARK    4  A    between atoms: C_19  and  C_20
REMARK    5  A    between atoms: C_20  and  N_21
REMARK    6  A    between atoms: C_20  and  C_25
REMARK    7  A    between atoms: C_25  and  C_27
REMARK                            x       y       z     vdW  Elec       q    Type
REMARK                         _______ _______ _______ _____ _____    ______ ____
ROOT
ATOM      1  N   UNL     1      32.164 -21.377 -18.764  0.00  0.00    -0.239 NA
ATOM      2  C   UNL     1      33.647 -19.938 -20.007  0.00  0.00    +0.022 C 
ATOM      3  C   UNL     1      34.542 -21.406 -18.333  0.00  0.00    +0.158 C 
ATOM      4  C   UNL     1      34.738 -20.434 -19.308  0.00  0.00    +0.040 C 
ATOM      5  C   UNL     1      32.393 -20.434 -19.706  0.00  0.00    +0.099 C 
ATOM      6  C   UNL     1      33.247 -21.840 -18.101  0.00  0.00    +0.136 C 
ENDROOT
BRANCH   2  10
ATOM      7  N   UNL     1      34.146 -14.991 -22.992  0.00  0.00    -0.280 N 
ATOM      8  N   UNL     1      34.295 -16.013 -23.858  0.00  0.00    -0.173 NA
ATOM      9  C   UNL     1      33.935 -16.732 -21.734  0.00  0.00    +0.032 A 
ATOM     10  C   UNL     1      33.820 -18.925 -21.031  0.00  0.00    +0.002 C 
ATOM     11  C   UNL     1      34.169 -17.119 -23.104  0.00  0.00    +0.102 A 
ATOM     12  C   UNL     1      33.752 -17.572 -20.643  0.00  0.00    +0.003 C 
ATOM     13  C   UNL     1      33.927 -15.367 -21.699  0.00  0.00    +0.053 A 
ATOM     14  C   UNL     1      34.049 -19.359 -22.374  0.00  0.00    +0.002 C 
ATOM     15  C   UNL     1      34.232 -18.479 -23.463  0.00  0.00    +0.021 C 
ATOM     16  C   UNL     1      33.744 -14.381 -20.620  0.00  0.00    +0.051 C 
ATOM     17  H   UNL     1      34.191 -14.049 -23.271  0.00  0.00    +0.189 HD
ENDBRANCH   2  10
BRANCH   3  18
ATOM     18  O   UNL     1      35.586 -21.912 -17.631  0.00  0.00    -0.476 OA
BRANCH  18  19
ATOM     19  C   UNL     1      35.684 -21.553 -16.251  0.00  0.00    +0.184 C 
BRANCH  19  20
ATOM     20  C   UNL     1      35.402 -22.771 -15.364  0.00  0.00    -0.017 C 
BRANCH  20  21
ATOM     21  N   UNL     1      36.684 -23.339 -14.938  0.00  0.00    +0.384 N 
ATOM     22  H   UNL     1      37.395 -23.137 -15.640  0.00  0.00    -0.089 HD
ATOM     23  H   UNL     1      36.590 -24.349 -14.831  0.00  0.00    -0.089 HD
ATOM     24  H   UNL     1      36.959 -22.927 -14.046  0.00  0.00    -0.089 HD
ENDBRANCH  20  21
BRANCH  20  25
ATOM     25  C   UNL     1      34.582 -22.426 -14.102  0.00  0.00    +0.008 C 
BRANCH  25  27
ATOM     26 BR   UNL     1      28.929 -24.896 -13.943  0.00  0.00    -0.049 Br
ATOM     27  C   UNL     1      33.200 -23.030 -14.064  0.00  0.00    -0.024 C 
ATOM     28  C   UNL     1      32.285 -22.697 -15.050  0.00  0.00    -0.004 C 
ATOM     29  C   UNL     1      32.871 -23.907 -13.043  0.00  0.00    -0.004 C 
ATOM     30  C   UNL     1      31.007 -23.255 -15.014  0.00  0.00    +0.006 C 
ATOM     31  C   UNL     1      31.593 -24.465 -13.007  0.00  0.00    +0.006 C 
ATOM     32  C   UNL     1      30.661 -24.140 -13.992  0.00  0.00    +0.035 C 
ENDBRANCH  25  27
ENDBRANCH  20  25
ENDBRANCH  19  20
ENDBRANCH  18  19
ENDBRANCH   3  18
TORSDOF 7
ENDMDL
MODEL 6
REMARK VINA RESULT:     -11.0      5.832     13.043
REMARK  Name = 16122642
REMARK  7 active torsions:
REMARK  status: ('A' for Active; 'I' for Inactive)
REMARK    1  A    between atoms: C_2  and  C_10
REMARK    2  A    between atoms: C_3  and  O_18
REMARK    3  A    between atoms: O_18  and  C_19
REMARK    4  A    between atoms: C_19  and  C_20
REMARK    5  A    between atoms: C_20  and  N_21
REMARK    6  A    between atoms: C_20  and  C_25
REMARK    7  A    between atoms: C_25  and  C_27
REMARK                            x       y       z     vdW  Elec       q    Type
REMARK                         _______ _______ _______ _____ _____    ______ ____
ROOT
ATOM      1  N   UNL     1      31.930 -22.402 -17.641  0.00  0.00    -0.239 NA
ATOM      2  C   UNL     1      33.684 -22.729 -16.019  0.00  0.00    +0.022 C 
ATOM      3  C   UNL     1      34.115 -21.429 -17.988  0.00  0.00    +0.158 C 
ATOM      4  C   UNL     1      34.556 -21.974 -16.787  0.00  0.00    +0.040 C 
ATOM      5  C   UNL     1      32.394 -22.915 -16.479  0.00  0.00    +0.099 C 
ATOM      6  C   UNL     1      32.804 -21.670 -18.367  0.00  0.00    +0.136 C 
ENDROOT
BRANCH   2  10
ATOM      7  N   UNL     1      36.653 -25.192 -11.688  0.00  0.00    -0.280 N 
ATOM      8  N   UNL     1      35.401 -24.957 -11.249  0.00  0.00    -0.173 NA
ATOM      9  C   UNL     1      35.697 -24.287 -13.399  0.00  0.00    +0.032 A 
ATOM     10  C   UNL     1      34.115 -23.310 -14.760  0.00  0.00    +0.002 C 
ATOM     11  C   UNL     1      34.774 -24.390 -12.295  0.00  0.00    +0.102 A 
ATOM     12  C   UNL     1      35.445 -23.761 -14.660  0.00  0.00    +0.003 C 
ATOM     13  C   UNL     1      36.887 -24.809 -12.976  0.00  0.00    +0.053 A 
ATOM     14  C   UNL     1      33.162 -23.389 -13.696  0.00  0.00    +0.002 C 
ATOM     15  C   UNL     1      33.450 -23.930 -12.424  0.00  0.00    +0.021 C 
ATOM     16  C   UNL     1      38.200 -24.990 -13.618  0.00  0.00    +0.051 C 
ATOM     17  H   UNL     1      37.343 -25.608 -11.125  0.00  0.00    +0.189 HD
ENDBRANCH   2  10
BRANCH   3  18
ATOM     18  O   UNL     1      34.942 -20.685 -18.764  0.00  0.00    -0.476 OA
BRANCH  18  19
ATOM     19  C   UNL     1      34.416 -20.193 -19.998  0.00  0.00    +0.184 C 
BRANCH  19  20
ATOM     20  C   UNL     1      34.974 -18.795 -20.293  0.00  0.00    -0.017 C 
BRANCH  20  21
ATOM     21  N   UNL     1      36.373 -18.755 -19.857  0.00  0.00    +0.384 N 
ATOM     22  H   UNL     1      36.774 -19.690 -19.915  0.00  0.00    -0.089 HD
ATOM     23  H   UNL     1      36.419 -18.424 -18.893  0.00  0.00    -0.089 HD
ATOM     24  H   UNL     1      36.899 -18.121 -20.459  0.00  0.00    -0.089 HD
ENDBRANCH  20  21
BRANCH  20  25
ATOM     25  C   UNL     1      34.924 -18.425 -21.791  0.00  0.00    +0.008 C 
BRANCH  25  27
ATOM     26 BR   UNL     1      32.831 -12.740 -22.967  0.00  0.00    -0.049 Br
ATOM     27  C   UNL     1      34.411 -17.035 -22.079  0.00  0.00    -0.024 C 
ATOM     28  C   UNL     1      34.166 -16.659 -23.391  0.00  0.00    -0.004 C 
ATOM     29  C   UNL     1      34.196 -16.160 -21.027  0.00  0.00    -0.004 C 
ATOM     30  C   UNL     1      33.693 -15.374 -23.656  0.00  0.00    +0.006 C 
ATOM     31  C   UNL     1      33.723 -14.875 -21.293  0.00  0.00    +0.006 C 
ATOM     32  C   UNL     1      33.471 -14.482 -22.607  0.00  0.00    +0.035 C 
ENDBRANCH  25  27
ENDBRANCH  20  25
ENDBRANCH  19  20
ENDBRANCH  18  19
ENDBRANCH   3  18
TORSDOF 7
ENDMDL
MODEL 7
REMARK VINA RESULT:     -10.9      6.518     13.701
REMARK  Name = 16122642
REMARK  7 active torsions:
REMARK  status: ('A' for Active; 'I' for Inactive)
REMARK    1  A    between atoms: C_2  and  C_10
REMARK    2  A    between atoms: C_3  and  O_18
REMARK    3  A    between atoms: O_18  and  C_19
REMARK    4  A    between atoms: C_19  and  C_20
REMARK    5  A    between atoms: C_20  and  N_21
REMARK    6  A    between atoms: C_20  and  C_25
REMARK    7  A    between atoms: C_25  and  C_27
REMARK                            x       y       z     vdW  Elec       q    Type
REMARK                         _______ _______ _______ _____ _____    ______ ____
ROOT
ATOM      1  N   UNL     1      30.867 -22.747 -15.217  0.00  0.00    -0.239 NA
ATOM      2  C   UNL     1      33.094 -23.447 -14.613  0.00  0.00    +0.022 C 
ATOM      3  C   UNL     1      32.632 -22.769 -16.868  0.00  0.00    +0.158 C 
ATOM      4  C   UNL     1      33.530 -23.230 -15.912  0.00  0.00    +0.040 C 
ATOM      5  C   UNL     1      31.769 -23.194 -14.314  0.00  0.00    +0.099 C 
ATOM      6  C   UNL     1      31.323 -22.545 -16.473  0.00  0.00    +0.136 C 
ENDROOT
BRANCH   2  10
ATOM      7  N   UNL     1      37.594 -25.617 -11.668  0.00  0.00    -0.280 N 
ATOM      8  N   UNL     1      36.635 -25.297 -10.779  0.00  0.00    -0.173 NA
ATOM      9  C   UNL     1      36.015 -24.836 -12.915  0.00  0.00    +0.032 A 
ATOM     10  C   UNL     1      34.008 -23.927 -13.593  0.00  0.00    +0.002 C 
ATOM     11  C   UNL     1      35.630 -24.804 -11.524  0.00  0.00    +0.102 A 
ATOM     12  C   UNL     1      35.263 -24.417 -14.005  0.00  0.00    +0.003 C 
ATOM     13  C   UNL     1      37.275 -25.361 -12.970  0.00  0.00    +0.053 A 
ATOM     14  C   UNL     1      33.580 -23.874 -12.229  0.00  0.00    +0.002 C 
ATOM     15  C   UNL     1      34.369 -24.309 -11.142  0.00  0.00    +0.021 C 
ATOM     16  C   UNL     1      38.206 -25.648 -14.074  0.00  0.00    +0.051 C 
ATOM     17  H   UNL     1      38.457 -26.006 -11.401  0.00  0.00    +0.189 HD
ENDBRANCH   2  10
BRANCH   3  18
ATOM     18  O   UNL     1      33.025 -22.547 -18.146  0.00  0.00    -0.476 OA
BRANCH  18  19
ATOM     19  C   UNL     1      34.047 -21.570 -18.357  0.00  0.00    +0.184 C 
BRANCH  19  20
ATOM     20  C   UNL     1      33.785 -20.798 -19.656  0.00  0.00    -0.017 C 
BRANCH  20  21
ATOM     21  N   UNL     1      32.507 -20.094 -19.524  0.00  0.00    +0.384 N 
ATOM     22  H   UNL     1      31.862 -20.422 -20.242  0.00  0.00    -0.089 HD
ATOM     23  H   UNL     1      32.658 -19.091 -19.637  0.00  0.00    -0.089 HD
ATOM     24  H   UNL     1      32.111 -20.276 -18.602  0.00  0.00    -0.089 HD
ENDBRANCH  20  21
BRANCH  20  25
ATOM     25  C   UNL     1      34.881 -19.759 -19.976  0.00  0.00    +0.008 C 
BRANCH  25  27
ATOM     26 BR   UNL     1      33.315 -15.616 -24.273  0.00  0.00    -0.049 Br
ATOM     27  C   UNL     1      34.499 -18.745 -21.027  0.00  0.00    -0.024 C 
ATOM     28  C   UNL     1      34.591 -17.394 -20.733  0.00  0.00    -0.004 C 
ATOM     29  C   UNL     1      34.062 -19.185 -22.265  0.00  0.00    -0.004 C 
ATOM     30  C   UNL     1      34.237 -16.457 -21.704  0.00  0.00    +0.006 C 
ATOM     31  C   UNL     1      33.708 -18.248 -23.237  0.00  0.00    +0.006 C 
ATOM     32  C   UNL     1      33.796 -16.885 -22.957  0.00  0.00    +0.035 C 
ENDBRANCH  25  27
ENDBRANCH  20  25
ENDBRANCH  19  20
ENDBRANCH  18  19
ENDBRANCH   3  18
TORSDOF 7
ENDMDL
MODEL 8
REMARK VINA RESULT:     -10.8      4.261     10.704
REMARK  Name = 16122642
REMARK  7 active torsions:
REMARK  status: ('A' for Active; 'I' for Inactive)
REMARK    1  A    between atoms: C_2  and  C_10
REMARK    2  A    between atoms: C_3  and  O_18
REMARK    3  A    between atoms: O_18  and  C_19
REMARK    4  A    between atoms: C_19  and  C_20
REMARK    5  A    between atoms: C_20  and  N_21
REMARK    6  A    between atoms: C_20  and  C_25
REMARK    7  A    between atoms: C_25  and  C_27
REMARK                            x       y       z     vdW  Elec       q    Type
REMARK                         _______ _______ _______ _____ _____    ______ ____
ROOT
ATOM      1  N   UNL     1      33.043 -16.400 -24.733  0.00  0.00    -0.239 NA
ATOM      2  C   UNL     1      33.971 -16.874 -22.558  0.00  0.00    +0.022 C 
ATOM      3  C   UNL     1      33.566 -14.599 -23.208  0.00  0.00    +0.158 C 
ATOM      4  C   UNL     1      34.011 -15.519 -22.264  0.00  0.00    +0.040 C 
ATOM      5  C   UNL     1      33.484 -17.264 -23.791  0.00  0.00    +0.099 C 
ATOM      6  C   UNL     1      33.095 -15.088 -24.416  0.00  0.00    +0.136 C 
ENDROOT
BRANCH   2  10
ATOM      7  N   UNL     1      34.398 -21.122 -18.633  0.00  0.00    -0.280 N 
ATOM      8  N   UNL     1      35.638 -20.649 -18.867  0.00  0.00    -0.173 NA
ATOM      9  C   UNL     1      34.061 -19.570 -20.095  0.00  0.00    +0.032 A 
ATOM     10  C   UNL     1      34.428 -17.857 -21.594  0.00  0.00    +0.002 C 
ATOM     11  C   UNL     1      35.465 -19.676 -19.779  0.00  0.00    +0.102 A 
ATOM     12  C   UNL     1      33.465 -18.689 -20.989  0.00  0.00    +0.003 C 
ATOM     13  C   UNL     1      33.410 -20.508 -19.346  0.00  0.00    +0.053 A 
ATOM     14  C   UNL     1      35.829 -17.923 -21.314  0.00  0.00    +0.002 C 
ATOM     15  C   UNL     1      36.404 -18.831 -20.399  0.00  0.00    +0.021 C 
ATOM     16  C   UNL     1      31.996 -20.897 -19.215  0.00  0.00    +0.051 C 
ATOM     17  H   UNL     1      34.219 -21.851 -17.998  0.00  0.00    +0.189 HD
ENDBRANCH   2  10
BRANCH   3  18
ATOM     18  O   UNL     1      33.591 -13.269 -22.953  0.00  0.00    -0.476 OA
BRANCH  18  19
ATOM     19  C   UNL     1      33.358 -12.386 -24.052  0.00  0.00    +0.184 C 
BRANCH  19  20
ATOM     20  C   UNL     1      32.875 -11.021 -23.545  0.00  0.00    -0.017 C 
BRANCH  20  21
ATOM     21  N   UNL     1      32.387 -11.185 -22.173  0.00  0.00    +0.384 N 
ATOM     22  H   UNL     1      33.171 -11.402 -21.558  0.00  0.00    -0.089 HD
ATOM     23  H   UNL     1      31.710 -11.947 -22.141  0.00  0.00    -0.089 HD
ATOM     24  H   UNL     1      31.942 -10.321 -21.864  0.00  0.00    -0.089 HD
ENDBRANCH  20  21
BRANCH  20  25
ATOM     25  C   UNL     1      33.984  -9.948 -23.540  0.00  0.00    +0.008 C 
BRANCH  25  27
ATOM     26 BR   UNL     1      31.952  -4.138 -23.982  0.00  0.00    -0.049 Br
ATOM     27  C   UNL     1      33.486  -8.527 -23.648  0.00  0.00    -0.024 C 
ATOM     28  C   UNL     1      32.320  -8.267 -24.350  0.00  0.00    -0.004 C 
ATOM     29  C   UNL     1      34.205  -7.510 -23.043  0.00  0.00    -0.004 C 
ATOM     30  C   UNL     1      31.861  -6.954 -24.450  0.00  0.00    +0.006 C 
ATOM     31  C   UNL     1      33.746  -6.196 -23.143  0.00  0.00    +0.006 C 
ATOM     32  C   UNL     1      32.574  -5.918 -23.846  0.00  0.00    +0.035 C 
ENDBRANCH  25  27
ENDBRANCH  20  25
ENDBRANCH  19  20
ENDBRANCH  18  19
ENDBRANCH   3  18
TORSDOF 7
ENDMDL
MODEL 9
REMARK VINA RESULT:     -10.7      1.209      2.058
REMARK  Name = 16122642
REMARK  7 active torsions:
REMARK  status: ('A' for Active; 'I' for Inactive)
REMARK    1  A    between atoms: C_2  and  C_10
REMARK    2  A    between atoms: C_3  and  O_18
REMARK    3  A    between atoms: O_18  and  C_19
REMARK    4  A    between atoms: C_19  and  C_20
REMARK    5  A    between atoms: C_20  and  N_21
REMARK    6  A    between atoms: C_20  and  C_25
REMARK    7  A    between atoms: C_25  and  C_27
REMARK                            x       y       z     vdW  Elec       q    Type
REMARK                         _______ _______ _______ _____ _____    ______ ____
ROOT
ATOM      1  N   UNL     1      32.907 -14.391 -24.628  0.00  0.00    -0.239 NA
ATOM      2  C   UNL     1      32.582 -12.958 -22.716  0.00  0.00    +0.022 C 
ATOM      3  C   UNL     1      33.650 -15.088 -22.435  0.00  0.00    +0.158 C 
ATOM      4  C   UNL     1      33.183 -13.897 -21.891  0.00  0.00    +0.040 C 
ATOM      5  C   UNL     1      32.467 -13.244 -24.063  0.00  0.00    +0.099 C 
ATOM      6  C   UNL     1      33.489 -15.285 -23.798  0.00  0.00    +0.136 C 
ENDROOT
BRANCH   2  10
ATOM      7  N   UNL     1      31.369  -7.390 -21.640  0.00  0.00    -0.280 N 
ATOM      8  N   UNL     1      30.732  -8.137 -20.717  0.00  0.00    -0.173 NA
ATOM      9  C   UNL     1      31.921  -9.406 -22.179  0.00  0.00    +0.032 A 
ATOM     10  C   UNL     1      32.086 -11.705 -22.177  0.00  0.00    +0.002 C 
ATOM     11  C   UNL     1      31.055  -9.405 -21.025  0.00  0.00    +0.102 A 
ATOM     12  C   UNL     1      32.476 -10.510 -22.813  0.00  0.00    +0.003 C 
ATOM     13  C   UNL     1      32.100  -8.102 -22.546  0.00  0.00    +0.053 A 
ATOM     14  C   UNL     1      31.232 -11.758 -21.031  0.00  0.00    +0.002 C 
ATOM     15  C   UNL     1      30.682 -10.615 -20.409  0.00  0.00    +0.021 C 
ATOM     16  C   UNL     1      32.859  -7.447 -23.624  0.00  0.00    +0.051 C 
ATOM     17  H   UNL     1      31.312  -6.408 -21.659  0.00  0.00    +0.189 HD
ENDBRANCH   2  10
BRANCH   3  18
ATOM     18  O   UNL     1      34.242 -16.027 -21.658  0.00  0.00    -0.476 OA
BRANCH  18  19
ATOM     19  C   UNL     1      34.862 -17.132 -22.321  0.00  0.00    +0.184 C 
BRANCH  19  20
ATOM     20  C   UNL     1      34.252 -18.453 -21.836  0.00  0.00    -0.017 C 
BRANCH  20  21
ATOM     21  N   UNL     1      34.018 -19.309 -23.002  0.00  0.00    +0.384 N 
ATOM     22  H   UNL     1      33.030 -19.551 -23.053  0.00  0.00    -0.089 HD
ATOM     23  H   UNL     1      34.573 -20.161 -22.915  0.00  0.00    -0.089 HD
ATOM     24  H   UNL     1      34.291 -18.811 -23.850  0.00  0.00    -0.089 HD
ENDBRANCH  20  21
BRANCH  20  25
ATOM     25  C   UNL     1      35.162 -19.215 -20.849  0.00  0.00    +0.008 C 
BRANCH  25  27
ATOM     26 BR   UNL     1      32.164 -22.797 -16.818  0.00  0.00    -0.049 Br
ATOM     27  C   UNL     1      34.428 -20.092 -19.864  0.00  0.00    -0.024 C 
ATOM     28  C   UNL     1      33.042 -20.079 -19.844  0.00  0.00    -0.004 C 
ATOM     29  C   UNL     1      35.154 -20.892 -18.997  0.00  0.00    -0.004 C 
ATOM     30  C   UNL     1      32.365 -20.889 -18.932  0.00  0.00    +0.006 C 
ATOM     31  C   UNL     1      34.477 -21.702 -18.086  0.00  0.00    +0.006 C 
ATOM     32  C   UNL     1      33.082 -21.701 -18.053  0.00  0.00    +0.035 C 
ENDBRANCH  25  27
ENDBRANCH  20  25
ENDBRANCH  19  20
ENDBRANCH  18  19
ENDBRANCH   3  18
TORSDOF 7
ENDMDL
