MODEL 1
REMARK VINA RESULT:     -12.1      0.000      0.000
REMARK  Name = 16755766
REMARK  5 active torsions:
REMARK  status: ('A' for Active; 'I' for Inactive)
REMARK    1  A    between atoms: N_1  and  C_25
REMARK    2  A    between atoms: N_3  and  C_12
REMARK    3  A    between atoms: C_5  and  C_20
REMARK    4  A    between atoms: C_25  and  C_26
REMARK    5  A    between atoms: C_26  and  C_29
REMARK                            x       y       z     vdW  Elec       q    Type
REMARK                         _______ _______ _______ _____ _____    ______ ____
ROOT
ATOM      1  N   UNL     1      31.736 -23.027 -15.228  0.00  0.00    -0.174 N 
ATOM      2  N   UNL     1      32.945 -23.241 -14.706  0.00  0.00    -0.096 NA
ATOM      3  N   UNL     1      33.476 -24.265 -12.605  0.00  0.00    -0.246 N 
ATOM      4  N   UNL     1      31.271 -23.980 -13.334  0.00  0.00    -0.319 NA
ATOM      5  C   UNL     1      30.745 -23.462 -14.421  0.00  0.00    +0.216 C 
ATOM      6  C   UNL     1      32.609 -23.823 -13.553  0.00  0.00    +0.165 C 
ATOM      7  H   UNL     1      33.038 -24.588 -11.785  0.00  0.00    +0.165 HD
ENDROOT
BRANCH   3  12
ATOM      8  F   UNL     1      39.664 -26.599 -13.543  0.00  0.00    -0.125 F 
ATOM      9  F   UNL     1      39.804 -24.743 -14.693  0.00  0.00    -0.125 F 
ATOM     10  O   UNL     1      37.768 -25.697 -14.398  0.00  0.00    -0.395 OA
ATOM     11  O   UNL     1      38.979 -24.662 -12.584  0.00  0.00    -0.395 OA
ATOM     12  C   UNL     1      34.896 -24.349 -12.570  0.00  0.00    +0.061 C 
ATOM     13  C   UNL     1      36.942 -25.082 -13.505  0.00  0.00    +0.183 C 
ATOM     14  C   UNL     1      35.564 -25.027 -13.584  0.00  0.00    +0.056 C 
ATOM     15  C   UNL     1      37.633 -24.492 -12.471  0.00  0.00    +0.182 C 
ATOM     16  C   UNL     1      35.591 -23.746 -11.513  0.00  0.00    +0.019 C 
ATOM     17  C   UNL     1      36.985 -23.815 -11.458  0.00  0.00    +0.042 C 
ATOM     18  C   UNL     1      39.042 -25.421 -13.799  0.00  0.00    +0.589 C 
ENDBRANCH   3  12
BRANCH   5  20
ATOM     19  N   UNL     1      26.616 -23.154 -15.320  0.00  0.00    -0.242 NA
ATOM     20  C   UNL     1      29.339 -23.357 -14.725  0.00  0.00    +0.050 C 
ATOM     21  C   UNL     1      28.648 -22.184 -14.439  0.00  0.00    +0.025 C 
ATOM     22  C   UNL     1      28.670 -24.428 -15.307  0.00  0.00    +0.025 C 
ATOM     23  C   UNL     1      27.300 -22.134 -14.754  0.00  0.00    +0.099 C 
ATOM     24  C   UNL     1      27.320 -24.277 -15.582  0.00  0.00    +0.099 C 
ENDBRANCH   5  20
BRANCH   1  25
ATOM     25  C   UNL     1      31.619 -22.377 -16.528  0.00  0.00    +0.129 C 
BRANCH  25  26
ATOM     26  C   UNL     1      32.897 -22.513 -17.356  0.00  0.00    +0.109 C 
BRANCH  26  29
ATOM     27  O   UNL     1      31.887 -21.342 -19.188  0.00  0.00    -0.275 OA
ATOM     28  N   UNL     1      34.155 -20.991 -18.857  0.00  0.00    -0.276 N 
ATOM     29  C   UNL     1      32.919 -21.567 -18.549  0.00  0.00    +0.228 C 
ATOM     30  C   UNL     1      35.365 -21.271 -18.087  0.00  0.00    +0.115 C 
ATOM     31  C   UNL     1      34.332 -20.067 -19.971  0.00  0.00    +0.115 C 
ENDBRANCH  26  29
ENDBRANCH  25  26
ENDBRANCH   1  25
TORSDOF 5
ENDMDL
MODEL 2
REMARK VINA RESULT:     -11.4      4.364      8.134
REMARK  Name = 16755766
REMARK  5 active torsions:
REMARK  status: ('A' for Active; 'I' for Inactive)
REMARK    1  A    between atoms: N_1  and  C_25
REMARK    2  A    between atoms: N_3  and  C_12
REMARK    3  A    between atoms: C_5  and  C_20
REMARK    4  A    between atoms: C_25  and  C_26
REMARK    5  A    between atoms: C_26  and  C_29
REMARK                            x       y       z     vdW  Elec       q    Type
REMARK                         _______ _______ _______ _____ _____    ______ ____
ROOT
ATOM      1  N   UNL     1      33.636 -23.335 -14.927  0.00  0.00    -0.174 N 
ATOM      2  N   UNL     1      33.531 -22.570 -16.015  0.00  0.00    -0.096 NA
ATOM      3  N   UNL     1      35.305 -21.599 -17.302  0.00  0.00    -0.246 N 
ATOM      4  N   UNL     1      35.710 -22.915 -15.410  0.00  0.00    -0.319 NA
ATOM      5  C   UNL     1      34.921 -23.541 -14.567  0.00  0.00    +0.216 C 
ATOM      6  C   UNL     1      34.821 -22.340 -16.272  0.00  0.00    +0.165 C 
ATOM      7  H   UNL     1      36.281 -21.472 -17.277  0.00  0.00    +0.165 HD
ENDROOT
BRANCH   3  12
ATOM      8  F   UNL     1      34.052 -17.190 -22.162  0.00  0.00    -0.125 F 
ATOM      9  F   UNL     1      34.409 -18.973 -23.380  0.00  0.00    -0.125 F 
ATOM     10  O   UNL     1      35.346 -18.850 -21.318  0.00  0.00    -0.395 OA
ATOM     11  O   UNL     1      32.966 -19.111 -21.637  0.00  0.00    -0.395 OA
ATOM     12  C   UNL     1      34.671 -20.970 -18.410  0.00  0.00    +0.061 C 
ATOM     13  C   UNL     1      34.774 -19.623 -20.353  0.00  0.00    +0.183 C 
ATOM     14  C   UNL     1      35.434 -20.214 -19.294  0.00  0.00    +0.056 C 
ATOM     15  C   UNL     1      33.417 -19.772 -20.535  0.00  0.00    +0.182 C 
ATOM     16  C   UNL     1      33.290 -21.126 -18.587  0.00  0.00    +0.019 C 
ATOM     17  C   UNL     1      32.646 -20.519 -19.668  0.00  0.00    +0.042 C 
ATOM     18  C   UNL     1      34.193 -18.539 -22.113  0.00  0.00    +0.589 C 
ENDBRANCH   3  12
BRANCH   5  20
ATOM     19  N   UNL     1      36.139 -25.835 -11.219  0.00  0.00    -0.242 NA
ATOM     20  C   UNL     1      35.335 -24.324 -13.428  0.00  0.00    +0.050 C 
ATOM     21  C   UNL     1      35.960 -25.551 -13.614  0.00  0.00    +0.025 C 
ATOM     22  C   UNL     1      35.110 -23.851 -12.140  0.00  0.00    +0.025 C 
ATOM     23  C   UNL     1      36.340 -26.262 -12.486  0.00  0.00    +0.099 C 
ATOM     24  C   UNL     1      35.528 -24.638 -11.079  0.00  0.00    +0.099 C 
ENDBRANCH   5  20
BRANCH   1  25
ATOM     25  C   UNL     1      32.428 -23.827 -14.276  0.00  0.00    +0.129 C 
BRANCH  25  26
ATOM     26  C   UNL     1      31.372 -22.734 -14.120  0.00  0.00    +0.109 C 
BRANCH  26  29
ATOM     27  O   UNL     1      30.097 -22.401 -16.123  0.00  0.00    -0.275 OA
ATOM     28  N   UNL     1      29.177 -23.816 -14.531  0.00  0.00    -0.276 N 
ATOM     29  C   UNL     1      30.166 -22.959 -15.024  0.00  0.00    +0.228 C 
ATOM     30  C   UNL     1      29.281 -24.465 -13.227  0.00  0.00    +0.115 C 
ATOM     31  C   UNL     1      27.966 -24.125 -15.282  0.00  0.00    +0.115 C 
ENDBRANCH  26  29
ENDBRANCH  25  26
ENDBRANCH   1  25
TORSDOF 5
ENDMDL
MODEL 3
REMARK VINA RESULT:     -10.4      4.336      8.054
REMARK  Name = 16755766
REMARK  5 active torsions:
REMARK  status: ('A' for Active; 'I' for Inactive)
REMARK    1  A    between atoms: N_1  and  C_25
REMARK    2  A    between atoms: N_3  and  C_12
REMARK    3  A    between atoms: C_5  and  C_20
REMARK    4  A    between atoms: C_25  and  C_26
REMARK    5  A    between atoms: C_26  and  C_29
REMARK                            x       y       z     vdW  Elec       q    Type
REMARK                         _______ _______ _______ _____ _____    ______ ____
ROOT
ATOM      1  N   UNL     1      34.013 -23.260 -14.043  0.00  0.00    -0.174 N 
ATOM      2  N   UNL     1      32.712 -23.399 -14.304  0.00  0.00    -0.096 NA
ATOM      3  N   UNL     1      31.000 -24.212 -12.837  0.00  0.00    -0.246 N 
ATOM      4  N   UNL     1      33.240 -24.051 -12.176  0.00  0.00    -0.319 NA
ATOM      5  C   UNL     1      34.328 -23.644 -12.788  0.00  0.00    +0.216 C 
ATOM      6  C   UNL     1      32.284 -23.884 -13.136  0.00  0.00    +0.165 C 
ATOM      7  H   UNL     1      30.894 -24.635 -11.954  0.00  0.00    +0.165 HD
ENDROOT
BRANCH   3  12
ATOM      8  F   UNL     1      25.569 -21.364 -15.485  0.00  0.00    -0.125 F 
ATOM      9  F   UNL     1      26.570 -22.003 -17.323  0.00  0.00    -0.125 F 
ATOM     10  O   UNL     1      27.820 -21.633 -15.468  0.00  0.00    -0.395 OA
ATOM     11  O   UNL     1      26.304 -23.503 -15.645  0.00  0.00    -0.395 OA
ATOM     12  C   UNL     1      29.780 -24.062 -13.554  0.00  0.00    +0.061 C 
ATOM     13  C   UNL     1      28.286 -22.742 -14.828  0.00  0.00    +0.183 C 
ATOM     14  C   UNL     1      29.481 -22.838 -14.143  0.00  0.00    +0.056 C 
ATOM     15  C   UNL     1      27.421 -23.809 -14.929  0.00  0.00    +0.182 C 
ATOM     16  C   UNL     1      28.906 -25.153 -13.652  0.00  0.00    +0.019 C 
ATOM     17  C   UNL     1      27.703 -25.029 -14.351  0.00  0.00    +0.042 C 
ATOM     18  C   UNL     1      26.575 -22.134 -15.973  0.00  0.00    +0.589 C 
ENDBRANCH   3  12
BRANCH   5  20
ATOM     19  N   UNL     1      38.237 -23.546 -11.156  0.00  0.00    -0.242 NA
ATOM     20  C   UNL     1      35.659 -23.609 -12.233  0.00  0.00    +0.050 C 
ATOM     21  C   UNL     1      36.010 -22.619 -11.321  0.00  0.00    +0.025 C 
ATOM     22  C   UNL     1      36.596 -24.566 -12.607  0.00  0.00    +0.025 C 
ATOM     23  C   UNL     1      37.300 -22.632 -10.816  0.00  0.00    +0.099 C 
ATOM     24  C   UNL     1      37.860 -24.491 -12.045  0.00  0.00    +0.099 C 
ENDBRANCH   5  20
BRANCH   1  25
ATOM     25  C   UNL     1      34.903 -22.750 -15.080  0.00  0.00    +0.129 C 
BRANCH  25  26
ATOM     26  C   UNL     1      34.157 -22.435 -16.375  0.00  0.00    +0.109 C 
BRANCH  26  29
ATOM     27  O   UNL     1      36.204 -21.441 -17.129  0.00  0.00    -0.275 OA
ATOM     28  N   UNL     1      34.354 -21.170 -18.501  0.00  0.00    -0.276 N 
ATOM     29  C   UNL     1      35.008 -21.641 -17.357  0.00  0.00    +0.228 C 
ATOM     30  C   UNL     1      32.936 -21.419 -18.751  0.00  0.00    +0.115 C 
ATOM     31  C   UNL     1      35.038 -20.395 -19.529  0.00  0.00    +0.115 C 
ENDBRANCH  26  29
ENDBRANCH  25  26
ENDBRANCH   1  25
TORSDOF 5
ENDMDL
MODEL 4
REMARK VINA RESULT:     -10.4      3.907      7.466
REMARK  Name = 16755766
REMARK  5 active torsions:
REMARK  status: ('A' for Active; 'I' for Inactive)
REMARK    1  A    between atoms: N_1  and  C_25
REMARK    2  A    between atoms: N_3  and  C_12
REMARK    3  A    between atoms: C_5  and  C_20
REMARK    4  A    between atoms: C_25  and  C_26
REMARK    5  A    between atoms: C_26  and  C_29
REMARK                            x       y       z     vdW  Elec       q    Type
REMARK                         _______ _______ _______ _____ _____    ______ ____
ROOT
ATOM      1  N   UNL     1      32.698 -23.128 -15.659  0.00  0.00    -0.174 N 
ATOM      2  N   UNL     1      33.206 -22.444 -16.685  0.00  0.00    -0.096 NA
ATOM      3  N   UNL     1      32.011 -21.284 -18.409  0.00  0.00    -0.246 N 
ATOM      4  N   UNL     1      30.918 -22.435 -16.689  0.00  0.00    -0.319 NA
ATOM      5  C   UNL     1      31.348 -23.125 -15.658  0.00  0.00    +0.216 C 
ATOM      6  C   UNL     1      32.082 -22.041 -17.283  0.00  0.00    +0.165 C 
ATOM      7  H   UNL     1      31.095 -21.161 -18.748  0.00  0.00    +0.165 HD
ENDROOT
BRANCH   3  12
ATOM      8  F   UNL     1      34.977 -18.298 -23.597  0.00  0.00    -0.125 F 
ATOM      9  F   UNL     1      35.047 -16.657 -22.152  0.00  0.00    -0.125 F 
ATOM     10  O   UNL     1      33.442 -18.243 -21.930  0.00  0.00    -0.395 OA
ATOM     11  O   UNL     1      35.775 -18.707 -21.514  0.00  0.00    -0.395 OA
ATOM     12  C   UNL     1      33.007 -20.636 -19.193  0.00  0.00    +0.061 C 
ATOM     13  C   UNL     1      33.621 -19.141 -20.920  0.00  0.00    +0.183 C 
ATOM     14  C   UNL     1      32.619 -19.743 -20.187  0.00  0.00    +0.056 C 
ATOM     15  C   UNL     1      34.952 -19.404 -20.683  0.00  0.00    +0.182 C 
ATOM     16  C   UNL     1      34.358 -20.911 -18.945  0.00  0.00    +0.019 C 
ATOM     17  C   UNL     1      35.353 -20.286 -19.701  0.00  0.00    +0.042 C 
ATOM     18  C   UNL     1      34.806 -17.985 -22.288  0.00  0.00    +0.589 C 
ENDBRANCH   3  12
BRANCH   5  20
ATOM     19  N   UNL     1      28.942 -25.070 -12.762  0.00  0.00    -0.242 NA
ATOM     20  C   UNL     1      30.530 -23.788 -14.671  0.00  0.00    +0.050 C 
ATOM     21  C   UNL     1      30.888 -23.751 -13.328  0.00  0.00    +0.025 C 
ATOM     22  C   UNL     1      29.380 -24.465 -15.061  0.00  0.00    +0.025 C 
ATOM     23  C   UNL     1      30.067 -24.402 -12.421  0.00  0.00    +0.099 C 
ATOM     24  C   UNL     1      28.627 -25.084 -14.076  0.00  0.00    +0.099 C 
ENDBRANCH   5  20
BRANCH   1  25
ATOM     25  C   UNL     1      33.598 -23.777 -14.712  0.00  0.00    +0.129 C 
BRANCH  25  26
ATOM     26  C   UNL     1      34.512 -22.774 -14.008  0.00  0.00    +0.109 C 
BRANCH  26  29
ATOM     27  O   UNL     1      36.714 -23.618 -14.443  0.00  0.00    -0.275 OA
ATOM     28  N   UNL     1      35.999 -23.671 -12.237  0.00  0.00    -0.276 N 
ATOM     29  C   UNL     1      35.843 -23.391 -13.598  0.00  0.00    +0.228 C 
ATOM     30  C   UNL     1      34.955 -23.393 -11.254  0.00  0.00    +0.115 C 
ATOM     31  C   UNL     1      37.217 -24.262 -11.696  0.00  0.00    +0.115 C 
ENDBRANCH  26  29
ENDBRANCH  25  26
ENDBRANCH   1  25
TORSDOF 5
ENDMDL
MODEL 5
REMARK VINA RESULT:     -10.2     11.282     15.575
REMARK  Name = 16755766
REMARK  5 active torsions:
REMARK  status: ('A' for Active; 'I' for Inactive)
REMARK    1  A    between atoms: N_1  and  C_25
REMARK    2  A    between atoms: N_3  and  C_12
REMARK    3  A    between atoms: C_5  and  C_20
REMARK    4  A    between atoms: C_25  and  C_26
REMARK    5  A    between atoms: C_26  and  C_29
REMARK                            x       y       z     vdW  Elec       q    Type
REMARK                         _______ _______ _______ _____ _____    ______ ____
ROOT
ATOM      1  N   UNL     1      32.142  -9.621 -22.639  0.00  0.00    -0.174 N 
ATOM      2  N   UNL     1      32.417 -10.868 -22.254  0.00  0.00    -0.096 NA
ATOM      3  N   UNL     1      33.605 -12.553 -23.476  0.00  0.00    -0.246 N 
ATOM      4  N   UNL     1      33.224 -10.414 -24.345  0.00  0.00    -0.319 NA
ATOM      5  C   UNL     1      32.616  -9.349 -23.874  0.00  0.00    +0.216 C 
ATOM      6  C   UNL     1      33.077 -11.310 -23.326  0.00  0.00    +0.165 C 
ATOM      7  H   UNL     1      33.980 -12.720 -24.371  0.00  0.00    +0.165 HD
ENDROOT
BRANCH   3  12
ATOM      8  F   UNL     1      33.598 -18.844 -21.230  0.00  0.00    -0.125 F 
ATOM      9  F   UNL     1      35.695 -18.337 -20.866  0.00  0.00    -0.125 F 
ATOM     10  O   UNL     1      34.564 -17.220 -22.483  0.00  0.00    -0.395 OA
ATOM     11  O   UNL     1      34.085 -16.918 -20.136  0.00  0.00    -0.395 OA
ATOM     12  C   UNL     1      33.720 -13.659 -22.588  0.00  0.00    +0.061 C 
ATOM     13  C   UNL     1      34.202 -15.940 -22.187  0.00  0.00    +0.183 C 
ATOM     14  C   UNL     1      34.106 -14.898 -23.088  0.00  0.00    +0.056 C 
ATOM     15  C   UNL     1      33.930 -15.768 -20.848  0.00  0.00    +0.182 C 
ATOM     16  C   UNL     1      33.440 -13.475 -21.227  0.00  0.00    +0.019 C 
ATOM     17  C   UNL     1      33.546 -14.546 -20.337  0.00  0.00    +0.042 C 
ATOM     18  C   UNL     1      34.483 -17.816 -21.181  0.00  0.00    +0.589 C 
ENDBRANCH   3  12
BRANCH   5  20
ATOM     19  N   UNL     1      32.161  -5.628 -25.849  0.00  0.00    -0.242 NA
ATOM     20  C   UNL     1      32.461  -8.083 -24.548  0.00  0.00    +0.050 C 
ATOM     21  C   UNL     1      31.250  -7.755 -25.147  0.00  0.00    +0.025 C 
ATOM     22  C   UNL     1      33.522  -7.186 -24.598  0.00  0.00    +0.025 C 
ATOM     23  C   UNL     1      31.153  -6.525 -25.779  0.00  0.00    +0.099 C 
ATOM     24  C   UNL     1      33.323  -5.983 -25.256  0.00  0.00    +0.099 C 
ENDBRANCH   5  20
BRANCH   1  25
ATOM     25  C   UNL     1      31.394  -8.742 -21.748  0.00  0.00    +0.129 C 
BRANCH  25  26
ATOM     26  C   UNL     1      32.292  -7.700 -21.081  0.00  0.00    +0.109 C 
BRANCH  26  29
ATOM     27  O   UNL     1      31.937  -8.221 -18.768  0.00  0.00    -0.275 OA
ATOM     28  N   UNL     1      31.347  -6.085 -19.452  0.00  0.00    -0.276 N 
ATOM     29  C   UNL     1      31.848  -7.374 -19.661  0.00  0.00    +0.228 C 
ATOM     30  C   UNL     1      31.251  -5.098 -20.525  0.00  0.00    +0.115 C 
ATOM     31  C   UNL     1      30.883  -5.629 -18.148  0.00  0.00    +0.115 C 
ENDBRANCH  26  29
ENDBRANCH  25  26
ENDBRANCH   1  25
TORSDOF 5
ENDMDL
MODEL 6
REMARK VINA RESULT:      -9.3      4.701      8.408
REMARK  Name = 16755766
REMARK  5 active torsions:
REMARK  status: ('A' for Active; 'I' for Inactive)
REMARK    1  A    between atoms: N_1  and  C_25
REMARK    2  A    between atoms: N_3  and  C_12
REMARK    3  A    between atoms: C_5  and  C_20
REMARK    4  A    between atoms: C_25  and  C_26
REMARK    5  A    between atoms: C_26  and  C_29
REMARK                            x       y       z     vdW  Elec       q    Type
REMARK                         _______ _______ _______ _____ _____    ______ ____
ROOT
ATOM      1  N   UNL     1      33.757 -22.465 -16.536  0.00  0.00    -0.174 N 
ATOM      2  N   UNL     1      33.946 -21.647 -17.574  0.00  0.00    -0.096 NA
ATOM      3  N   UNL     1      35.916 -20.396 -18.117  0.00  0.00    -0.246 N 
ATOM      4  N   UNL     1      35.793 -21.777 -16.232  0.00  0.00    -0.319 NA
ATOM      5  C   UNL     1      34.846 -22.544 -15.742  0.00  0.00    +0.216 C 
ATOM      6  C   UNL     1      35.200 -21.254 -17.344  0.00  0.00    +0.165 C 
ATOM      7  H   UNL     1      36.794 -20.159 -17.739  0.00  0.00    +0.165 HD
ENDROOT
BRANCH   3  12
ATOM      8  F   UNL     1      33.319 -19.338 -24.180  0.00  0.00    -0.125 F 
ATOM      9  F   UNL     1      32.508 -17.596 -23.134  0.00  0.00    -0.125 F 
ATOM     10  O   UNL     1      33.048 -19.440 -21.931  0.00  0.00    -0.395 OA
ATOM     11  O   UNL     1      34.724 -18.039 -22.962  0.00  0.00    -0.395 OA
ATOM     12  C   UNL     1      35.640 -19.773 -19.366  0.00  0.00    +0.061 C 
ATOM     13  C   UNL     1      34.186 -19.358 -21.186  0.00  0.00    +0.183 C 
ATOM     14  C   UNL     1      34.407 -19.982 -19.975  0.00  0.00    +0.056 C 
ATOM     15  C   UNL     1      35.141 -18.558 -21.774  0.00  0.00    +0.182 C 
ATOM     16  C   UNL     1      36.618 -18.962 -19.957  0.00  0.00    +0.019 C 
ATOM     17  C   UNL     1      36.369 -18.341 -21.183  0.00  0.00    +0.042 C 
ATOM     18  C   UNL     1      33.408 -18.606 -23.041  0.00  0.00    +0.589 C 
ENDBRANCH   3  12
BRANCH   5  20
ATOM     19  N   UNL     1      35.083 -24.905 -12.231  0.00  0.00    -0.242 NA
ATOM     20  C   UNL     1      34.928 -23.346 -14.546  0.00  0.00    +0.050 C 
ATOM     21  C   UNL     1      34.365 -22.890 -13.359  0.00  0.00    +0.025 C 
ATOM     22  C   UNL     1      35.567 -24.580 -14.577  0.00  0.00    +0.025 C 
ATOM     23  C   UNL     1      34.469 -23.700 -12.239  0.00  0.00    +0.099 C 
ATOM     24  C   UNL     1      35.617 -25.314 -13.403  0.00  0.00    +0.099 C 
ENDBRANCH   5  20
BRANCH   1  25
ATOM     25  C   UNL     1      32.473 -23.135 -16.373  0.00  0.00    +0.129 C 
BRANCH  25  26
ATOM     26  C   UNL     1      31.593 -22.448 -15.330  0.00  0.00    +0.109 C 
BRANCH  26  29
ATOM     27  O   UNL     1      29.467 -22.144 -16.395  0.00  0.00    -0.275 OA
ATOM     28  N   UNL     1      29.559 -23.716 -14.692  0.00  0.00    -0.276 N 
ATOM     29  C   UNL     1      30.113 -22.744 -15.532  0.00  0.00    +0.228 C 
ATOM     30  C   UNL     1      30.343 -24.414 -13.676  0.00  0.00    +0.115 C 
ATOM     31  C   UNL     1      28.156 -24.105 -14.766  0.00  0.00    +0.115 C 
ENDBRANCH  26  29
ENDBRANCH  25  26
ENDBRANCH   1  25
TORSDOF 5
ENDMDL
MODEL 7
REMARK VINA RESULT:      -9.3     11.646     15.726
REMARK  Name = 16755766
REMARK  5 active torsions:
REMARK  status: ('A' for Active; 'I' for Inactive)
REMARK    1  A    between atoms: N_1  and  C_25
REMARK    2  A    between atoms: N_3  and  C_12
REMARK    3  A    between atoms: C_5  and  C_20
REMARK    4  A    between atoms: C_25  and  C_26
REMARK    5  A    between atoms: C_26  and  C_29
REMARK                            x       y       z     vdW  Elec       q    Type
REMARK                         _______ _______ _______ _____ _____    ______ ____
ROOT
ATOM      1  N   UNL     1      33.142  -9.474 -22.909  0.00  0.00    -0.174 N 
ATOM      2  N   UNL     1      33.353 -10.791 -22.946  0.00  0.00    -0.096 NA
ATOM      3  N   UNL     1      32.044 -12.515 -21.917  0.00  0.00    -0.246 N 
ATOM      4  N   UNL     1      31.497 -10.248 -21.724  0.00  0.00    -0.319 NA
ATOM      5  C   UNL     1      32.047  -9.150 -22.189  0.00  0.00    +0.216 C 
ATOM      6  C   UNL     1      32.325 -11.218 -22.210  0.00  0.00    +0.165 C 
ATOM      7  H   UNL     1      31.295 -12.628 -21.289  0.00  0.00    +0.165 HD
ENDROOT
BRANCH   3  12
ATOM      8  F   UNL     1      36.060 -17.851 -22.078  0.00  0.00    -0.125 F 
ATOM      9  F   UNL     1      34.136 -18.859 -21.814  0.00  0.00    -0.125 F 
ATOM     10  O   UNL     1      34.357 -16.719 -21.099  0.00  0.00    -0.395 OA
ATOM     11  O   UNL     1      34.336 -17.297 -23.443  0.00  0.00    -0.395 OA
ATOM     12  C   UNL     1      32.627 -13.741 -22.344  0.00  0.00    +0.061 C 
ATOM     13  C   UNL     1      33.754 -15.766 -21.864  0.00  0.00    +0.183 C 
ATOM     14  C   UNL     1      33.200 -14.588 -21.401  0.00  0.00    +0.056 C 
ATOM     15  C   UNL     1      33.741 -16.096 -23.201  0.00  0.00    +0.182 C 
ATOM     16  C   UNL     1      32.611 -14.068 -23.706  0.00  0.00    +0.019 C 
ATOM     17  C   UNL     1      33.176 -15.267 -24.148  0.00  0.00    +0.042 C 
ATOM     18  C   UNL     1      34.716 -17.669 -22.111  0.00  0.00    +0.589 C 
ENDBRANCH   3  12
BRANCH   5  20
ATOM     19  N   UNL     1      30.678  -5.189 -21.563  0.00  0.00    -0.242 NA
ATOM     20  C   UNL     1      31.581  -7.801 -21.974  0.00  0.00    +0.050 C 
ATOM     21  C   UNL     1      32.275  -6.949 -21.123  0.00  0.00    +0.025 C 
ATOM     22  C   UNL     1      30.435  -7.349 -22.620  0.00  0.00    +0.025 C 
ATOM     23  C   UNL     1      31.787  -5.664 -20.953  0.00  0.00    +0.099 C 
ATOM     24  C   UNL     1      30.029  -6.046 -22.382  0.00  0.00    +0.099 C 
ENDBRANCH   5  20
BRANCH   1  25
ATOM     25  C   UNL     1      34.064  -8.579 -23.598  0.00  0.00    +0.129 C 
BRANCH  25  26
ATOM     26  C   UNL     1      33.400  -7.860 -24.772  0.00  0.00    +0.109 C 
BRANCH  26  29
ATOM     27  O   UNL     1      34.238  -5.789 -23.904  0.00  0.00    -0.275 OA
ATOM     28  N   UNL     1      32.350  -5.663 -25.245  0.00  0.00    -0.276 N 
ATOM     29  C   UNL     1      33.380  -6.348 -24.593  0.00  0.00    +0.228 C 
ATOM     30  C   UNL     1      31.344  -6.346 -26.056  0.00  0.00    +0.115 C 
ATOM     31  C   UNL     1      32.201  -4.215 -25.165  0.00  0.00    +0.115 C 
ENDBRANCH  26  29
ENDBRANCH  25  26
ENDBRANCH   1  25
TORSDOF 5
ENDMDL
MODEL 8
REMARK VINA RESULT:      -9.2     13.226     17.866
REMARK  Name = 16755766
REMARK  5 active torsions:
REMARK  status: ('A' for Active; 'I' for Inactive)
REMARK    1  A    between atoms: N_1  and  C_25
REMARK    2  A    between atoms: N_3  and  C_12
REMARK    3  A    between atoms: C_5  and  C_20
REMARK    4  A    between atoms: C_25  and  C_26
REMARK    5  A    between atoms: C_26  and  C_29
REMARK                            x       y       z     vdW  Elec       q    Type
REMARK                         _______ _______ _______ _____ _____    ______ ____
ROOT
ATOM      1  N   UNL     1      32.346 -11.689 -22.313  0.00  0.00    -0.174 N 
ATOM      2  N   UNL     1      32.348 -10.377 -22.558  0.00  0.00    -0.096 NA
ATOM      3  N   UNL     1      33.467  -9.218 -24.332  0.00  0.00    -0.246 N 
ATOM      4  N   UNL     1      33.599 -11.541 -24.079  0.00  0.00    -0.319 NA
ATOM      5  C   UNL     1      33.083 -12.379 -23.210  0.00  0.00    +0.216 C 
ATOM      6  C   UNL     1      33.124 -10.337 -23.643  0.00  0.00    +0.165 C 
ATOM      7  H   UNL     1      34.117  -9.378 -25.054  0.00  0.00    +0.165 HD
ENDROOT
BRANCH   3  12
ATOM      8  F   UNL     1      30.331  -3.449 -25.561  0.00  0.00    -0.125 F 
ATOM      9  F   UNL     1      29.560  -3.854 -23.555  0.00  0.00    -0.125 F 
ATOM     10  O   UNL     1      30.256  -5.594 -24.831  0.00  0.00    -0.395 OA
ATOM     11  O   UNL     1      31.795  -3.976 -23.912  0.00  0.00    -0.395 OA
ATOM     12  C   UNL     1      33.067  -7.858 -24.210  0.00  0.00    +0.061 C 
ATOM     13  C   UNL     1      31.451  -6.151 -24.486  0.00  0.00    +0.183 C 
ATOM     14  C   UNL     1      31.792  -7.482 -24.623  0.00  0.00    +0.056 C 
ATOM     15  C   UNL     1      32.328  -5.228 -23.961  0.00  0.00    +0.182 C 
ATOM     16  C   UNL     1      33.966  -6.925 -23.676  0.00  0.00    +0.019 C 
ATOM     17  C   UNL     1      33.595  -5.585 -23.547  0.00  0.00    +0.042 C 
ATOM     18  C   UNL     1      30.495  -4.228 -24.463  0.00  0.00    +0.589 C 
ENDBRANCH   3  12
BRANCH   5  20
ATOM     19  N   UNL     1      33.623 -16.581 -23.148  0.00  0.00    -0.242 NA
ATOM     20  C   UNL     1      33.265 -13.810 -23.189  0.00  0.00    +0.050 C 
ATOM     21  C   UNL     1      32.818 -14.586 -24.252  0.00  0.00    +0.025 C 
ATOM     22  C   UNL     1      33.891 -14.417 -22.106  0.00  0.00    +0.025 C 
ATOM     23  C   UNL     1      33.019 -15.956 -24.183  0.00  0.00    +0.099 C 
ATOM     24  C   UNL     1      34.044 -15.793 -22.133  0.00  0.00    +0.099 C 
ENDBRANCH   5  20
BRANCH   1  25
ATOM     25  C   UNL     1      31.604 -12.205 -21.169  0.00  0.00    +0.129 C 
BRANCH  25  26
ATOM     26  C   UNL     1      30.429 -11.305 -20.791  0.00  0.00    +0.109 C 
BRANCH  26  29
ATOM     27  O   UNL     1      31.046 -10.822 -18.526  0.00  0.00    -0.275 OA
ATOM     28  N   UNL     1      30.721  -9.000 -19.923  0.00  0.00    -0.276 N 
ATOM     29  C   UNL     1      30.761 -10.368 -19.638  0.00  0.00    +0.228 C 
ATOM     30  C   UNL     1      30.381  -8.484 -21.247  0.00  0.00    +0.115 C 
ATOM     31  C   UNL     1      31.014  -7.983 -18.920  0.00  0.00    +0.115 C 
ENDBRANCH  26  29
ENDBRANCH  25  26
ENDBRANCH   1  25
TORSDOF 5
ENDMDL
MODEL 9
REMARK VINA RESULT:      -9.2     12.672     16.631
REMARK  Name = 16755766
REMARK  5 active torsions:
REMARK  status: ('A' for Active; 'I' for Inactive)
REMARK    1  A    between atoms: N_1  and  C_25
REMARK    2  A    between atoms: N_3  and  C_12
REMARK    3  A    between atoms: C_5  and  C_20
REMARK    4  A    between atoms: C_25  and  C_26
REMARK    5  A    between atoms: C_26  and  C_29
REMARK                            x       y       z     vdW  Elec       q    Type
REMARK                         _______ _______ _______ _____ _____    ______ ____
ROOT
ATOM      1  N   UNL     1      32.465  -8.402 -22.832  0.00  0.00    -0.174 N 
ATOM      2  N   UNL     1      32.602  -9.729 -22.818  0.00  0.00    -0.096 NA
ATOM      3  N   UNL     1      32.699 -11.214 -24.697  0.00  0.00    -0.246 N 
ATOM      4  N   UNL     1      32.448  -8.901 -24.945  0.00  0.00    -0.319 NA
ATOM      5  C   UNL     1      32.373  -7.910 -24.086  0.00  0.00    +0.216 C 
ATOM      6  C   UNL     1      32.586  -9.986 -24.128  0.00  0.00    +0.165 C 
ATOM      7  H   UNL     1      32.579 -11.212 -25.674  0.00  0.00    +0.165 HD
ENDROOT
BRANCH   3  12
ATOM      8  F   UNL     1      32.310 -17.803 -23.671  0.00  0.00    -0.125 F 
ATOM      9  F   UNL     1      34.393 -17.666 -24.325  0.00  0.00    -0.125 F 
ATOM     10  O   UNL     1      32.929 -16.067 -24.990  0.00  0.00    -0.395 OA
ATOM     11  O   UNL     1      33.664 -16.266 -22.699  0.00  0.00    -0.395 OA
ATOM     12  C   UNL     1      32.956 -12.503 -24.151  0.00  0.00    +0.061 C 
ATOM     13  C   UNL     1      33.042 -14.857 -24.374  0.00  0.00    +0.183 C 
ATOM     14  C   UNL     1      32.781 -13.629 -24.949  0.00  0.00    +0.056 C 
ATOM     15  C   UNL     1      33.462 -14.971 -23.067  0.00  0.00    +0.182 C 
ATOM     16  C   UNL     1      33.382 -12.609 -22.820  0.00  0.00    +0.019 C 
ATOM     17  C   UNL     1      33.641 -13.864 -22.264  0.00  0.00    +0.042 C 
ATOM     18  C   UNL     1      33.323 -16.937 -23.920  0.00  0.00    +0.589 C 
ENDBRANCH   3  12
BRANCH   5  20
ATOM     19  N   UNL     1      31.906  -3.802 -25.017  0.00  0.00    -0.242 NA
ATOM     20  C   UNL     1      32.213  -6.512 -24.404  0.00  0.00    +0.050 C 
ATOM     21  C   UNL     1      30.941  -5.962 -24.516  0.00  0.00    +0.025 C 
ATOM     22  C   UNL     1      33.332  -5.709 -24.598  0.00  0.00    +0.025 C 
ATOM     23  C   UNL     1      30.843  -4.614 -24.821  0.00  0.00    +0.099 C 
ATOM     24  C   UNL     1      33.126  -4.372 -24.900  0.00  0.00    +0.099 C 
ENDBRANCH   5  20
BRANCH   1  25
ATOM     25  C   UNL     1      32.419  -7.671 -21.572  0.00  0.00    +0.129 C 
BRANCH  25  26
ATOM     26  C   UNL     1      31.027  -7.697 -20.942  0.00  0.00    +0.109 C 
BRANCH  26  29
ATOM     27  O   UNL     1      31.406  -7.302 -18.608  0.00  0.00    -0.275 OA
ATOM     28  N   UNL     1      30.680  -9.425 -19.197  0.00  0.00    -0.276 N 
ATOM     29  C   UNL     1      31.059  -8.108 -19.476  0.00  0.00    +0.228 C 
ATOM     30  C   UNL     1      30.273 -10.362 -20.241  0.00  0.00    +0.115 C 
ATOM     31  C   UNL     1      30.663  -9.962 -17.841  0.00  0.00    +0.115 C 
ENDBRANCH  26  29
ENDBRANCH  25  26
ENDBRANCH   1  25
TORSDOF 5
ENDMDL
