MODEL 1
REMARK VINA RESULT:     -11.6      0.000      0.000
REMARK  Name = 11998575
REMARK  7 active torsions:
REMARK  status: ('A' for Active; 'I' for Inactive)
REMARK    1  A    between atoms: C_6  and  C_18
REMARK    2  A    between atoms: C_14  and  O_22
REMARK    3  A    between atoms: C_15  and  O_16
REMARK    4  A    between atoms: C_18  and  O_20
REMARK    5  A    between atoms: O_22  and  C_23
REMARK    6  A    between atoms: C_23  and  C_24
REMARK    7  A    between atoms: C_29  and  O_30
REMARK                            x       y       z     vdW  Elec       q    Type
REMARK                         _______ _______ _______ _____ _____    ______ ____
ROOT
ATOM      1  O   UNL     1      31.830 -21.749 -18.069  0.00  0.00    -0.421 OA
ATOM      2  O   UNL     1      31.295 -20.547 -19.932  0.00  0.00    -0.244 OA
ATOM      3  C   UNL     1      34.539 -20.987 -18.354  0.00  0.00    +0.009 A 
ATOM      4  C   UNL     1      34.126 -21.856 -17.244  0.00  0.00    +0.038 A 
ATOM      5  C   UNL     1      33.576 -20.539 -19.273  0.00  0.00    +0.076 A 
ATOM      6  C   UNL     1      35.251 -19.311 -20.522  0.00  0.00    +0.004 C 
ATOM      7  C   UNL     1      32.781 -22.211 -17.134  0.00  0.00    +0.152 A 
ATOM      8  C   UNL     1      33.929 -19.707 -20.348  0.00  0.00    +0.004 C 
ATOM      9  C   UNL     1      35.869 -20.570 -18.555  0.00  0.00    +0.000 C 
ATOM     10  C   UNL     1      34.993 -22.367 -16.264  0.00  0.00    +0.043 C 
ATOM     11  C   UNL     1      36.220 -19.742 -19.626  0.00  0.00    -0.002 C 
ATOM     12  C   UNL     1      32.151 -20.927 -19.142  0.00  0.00    +0.346 A 
ATOM     13  C   UNL     1      32.291 -23.033 -16.115  0.00  0.00    +0.078 C 
ATOM     14  C   UNL     1      33.172 -23.525 -15.160  0.00  0.00    +0.176 C 
ATOM     15  C   UNL     1      34.522 -23.193 -15.234  0.00  0.00    +0.173 C 
ENDROOT
BRANCH  15  16
ATOM     16  O   UNL     1      35.400 -23.668 -14.306  0.00  0.00    -0.468 OA
ATOM     17  C   UNL     1      35.747 -22.791 -13.236  0.00  0.00    +0.253 C 
ENDBRANCH  15  16
BRANCH   6  18
ATOM     18  C   UNL     1      35.626 -18.429 -21.664  0.00  0.00    +0.133 C 
ATOM     19  C   UNL     1      34.763 -17.166 -21.745  0.00  0.00    +0.037 C 
BRANCH  18  20
ATOM     20  O   UNL     1      36.999 -18.036 -21.549  0.00  0.00    -0.380 OA
ATOM     21  H   UNL     1      37.164 -17.698 -20.655  0.00  0.00    +0.211 HD
ENDBRANCH  18  20
ENDBRANCH   6  18
BRANCH  14  22
ATOM     22  O   UNL     1      32.706 -24.327 -14.164  0.00  0.00    -0.467 OA
BRANCH  22  23
ATOM     23  C   UNL     1      31.892 -23.714 -13.165  0.00  0.00    +0.232 C 
BRANCH  23  24
ATOM     24  C   UNL     1      30.485 -23.610 -13.677  0.00  0.00    +0.021 C 
ATOM     25  C   UNL     1      29.925 -22.359 -13.902  0.00  0.00    +0.002 C 
ATOM     26  C   UNL     1      29.753 -24.769 -13.919  0.00  0.00    +0.002 C 
ATOM     27  C   UNL     1      28.617 -22.262 -14.378  0.00  0.00    +0.037 C 
ATOM     28  C   UNL     1      28.446 -24.673 -14.394  0.00  0.00    +0.037 C 
ATOM     29  C   UNL     1      27.878 -23.420 -14.623  0.00  0.00    +0.139 C 
BRANCH  29  30
ATOM     30  O   UNL     1      26.601 -23.325 -15.087  0.00  0.00    -0.471 OA
ATOM     31  C   UNL     1      26.072 -22.014 -15.272  0.00  0.00    +0.252 C 
ENDBRANCH  29  30
ENDBRANCH  23  24
ENDBRANCH  22  23
ENDBRANCH  14  22
TORSDOF 7
ENDMDL
MODEL 2
REMARK VINA RESULT:     -10.9      2.949      8.979
REMARK  Name = 11998575
REMARK  7 active torsions:
REMARK  status: ('A' for Active; 'I' for Inactive)
REMARK    1  A    between atoms: C_6  and  C_18
REMARK    2  A    between atoms: C_14  and  O_22
REMARK    3  A    between atoms: C_15  and  O_16
REMARK    4  A    between atoms: C_18  and  O_20
REMARK    5  A    between atoms: O_22  and  C_23
REMARK    6  A    between atoms: C_23  and  C_24
REMARK    7  A    between atoms: C_29  and  O_30
REMARK                            x       y       z     vdW  Elec       q    Type
REMARK                         _______ _______ _______ _____ _____    ______ ____
ROOT
ATOM      1  O   UNL     1      36.553 -21.798 -16.693  0.00  0.00    -0.421 OA
ATOM      2  O   UNL     1      37.789 -22.499 -14.910  0.00  0.00    -0.244 OA
ATOM      3  C   UNL     1      34.204 -22.758 -15.445  0.00  0.00    +0.009 A 
ATOM      4  C   UNL     1      34.132 -22.117 -16.764  0.00  0.00    +0.038 A 
ATOM      5  C   UNL     1      35.450 -22.890 -14.809  0.00  0.00    +0.076 A 
ATOM      6  C   UNL     1      34.429 -23.981 -12.901  0.00  0.00    +0.004 C 
ATOM      7  C   UNL     1      35.312 -21.655 -17.350  0.00  0.00    +0.152 A 
ATOM      8  C   UNL     1      35.561 -23.496 -13.547  0.00  0.00    +0.004 C 
ATOM      9  C   UNL     1      33.075 -23.258 -14.766  0.00  0.00    +0.000 C 
ATOM     10  C   UNL     1      32.950 -21.928 -17.498  0.00  0.00    +0.043 C 
ATOM     11  C   UNL     1      33.187 -23.863 -13.510  0.00  0.00    -0.002 C 
ATOM     12  C   UNL     1      36.693 -22.394 -15.447  0.00  0.00    +0.346 A 
ATOM     13  C   UNL     1      35.347 -21.033 -18.602  0.00  0.00    +0.078 C 
ATOM     14  C   UNL     1      34.161 -20.861 -19.305  0.00  0.00    +0.176 C 
ATOM     15  C   UNL     1      32.964 -21.308 -18.754  0.00  0.00    +0.173 C 
ENDROOT
BRANCH  15  16
ATOM     16  O   UNL     1      31.792 -21.146 -19.432  0.00  0.00    -0.468 OA
ATOM     17  C   UNL     1      31.486 -19.832 -19.891  0.00  0.00    +0.253 C 
ENDBRANCH  15  16
BRANCH   6  18
ATOM     18  C   UNL     1      34.548 -24.626 -11.562  0.00  0.00    +0.133 C 
ATOM     19  C   UNL     1      35.962 -25.142 -11.276  0.00  0.00    +0.037 C 
BRANCH  18  20
ATOM     20  O   UNL     1      34.188 -23.694 -10.535  0.00  0.00    -0.380 OA
ATOM     21  H   UNL     1      34.020 -22.825 -10.932  0.00  0.00    +0.211 HD
ENDBRANCH  18  20
ENDBRANCH   6  18
BRANCH  14  22
ATOM     22  O   UNL     1      34.184 -20.258 -20.525  0.00  0.00    -0.467 OA
BRANCH  22  23
ATOM     23  C   UNL     1      34.969 -19.072 -20.649  0.00  0.00    +0.232 C 
BRANCH  23  24
ATOM     24  C   UNL     1      34.443 -18.255 -21.793  0.00  0.00    +0.021 C 
ATOM     25  C   UNL     1      34.553 -16.870 -21.757  0.00  0.00    +0.002 C 
ATOM     26  C   UNL     1      33.849 -18.892 -22.878  0.00  0.00    +0.002 C 
ATOM     27  C   UNL     1      34.064 -16.110 -22.820  0.00  0.00    +0.037 C 
ATOM     28  C   UNL     1      33.360 -18.132 -23.940  0.00  0.00    +0.037 C 
ATOM     29  C   UNL     1      33.468 -16.742 -23.912  0.00  0.00    +0.139 C 
BRANCH  29  30
ATOM     30  O   UNL     1      32.991 -16.001 -24.949  0.00  0.00    -0.471 OA
ATOM     31  C   UNL     1      32.686 -14.633 -24.684  0.00  0.00    +0.252 C 
ENDBRANCH  29  30
ENDBRANCH  23  24
ENDBRANCH  22  23
ENDBRANCH  14  22
TORSDOF 7
ENDMDL
MODEL 3
REMARK VINA RESULT:     -10.4      1.933      8.902
REMARK  Name = 11998575
REMARK  7 active torsions:
REMARK  status: ('A' for Active; 'I' for Inactive)
REMARK    1  A    between atoms: C_6  and  C_18
REMARK    2  A    between atoms: C_14  and  O_22
REMARK    3  A    between atoms: C_15  and  O_16
REMARK    4  A    between atoms: C_18  and  O_20
REMARK    5  A    between atoms: O_22  and  C_23
REMARK    6  A    between atoms: C_23  and  C_24
REMARK    7  A    between atoms: C_29  and  O_30
REMARK                            x       y       z     vdW  Elec       q    Type
REMARK                         _______ _______ _______ _____ _____    ______ ____
ROOT
ATOM      1  O   UNL     1      35.298 -22.373 -16.017  0.00  0.00    -0.421 OA
ATOM      2  O   UNL     1      35.240 -23.445 -14.005  0.00  0.00    -0.244 OA
ATOM      3  C   UNL     1      32.477 -22.503 -16.170  0.00  0.00    +0.009 A 
ATOM      4  C   UNL     1      33.249 -21.873 -17.249  0.00  0.00    +0.038 A 
ATOM      5  C   UNL     1      33.153 -23.041 -15.061  0.00  0.00    +0.076 A 
ATOM      6  C   UNL     1      31.064 -23.735 -14.048  0.00  0.00    +0.004 C 
ATOM      7  C   UNL     1      34.640 -21.827 -17.139  0.00  0.00    +0.152 A 
ATOM      8  C   UNL     1      32.452 -23.651 -14.009  0.00  0.00    +0.004 C 
ATOM      9  C   UNL     1      31.072 -22.603 -16.181  0.00  0.00    +0.000 C 
ATOM     10  C   UNL     1      32.690 -21.303 -18.404  0.00  0.00    +0.043 C 
ATOM     11  C   UNL     1      30.374 -23.211 -15.133  0.00  0.00    -0.002 C 
ATOM     12  C   UNL     1      34.631 -22.983 -14.962  0.00  0.00    +0.346 A 
ATOM     13  C   UNL     1      35.461 -21.250 -18.113  0.00  0.00    +0.078 C 
ATOM     14  C   UNL     1      34.880 -20.695 -19.245  0.00  0.00    +0.176 C 
ATOM     15  C   UNL     1      33.496 -20.721 -19.392  0.00  0.00    +0.173 C 
ENDROOT
BRANCH  15  16
ATOM     16  O   UNL     1      32.910 -20.180 -20.497  0.00  0.00    -0.468 OA
ATOM     17  C   UNL     1      31.523 -19.865 -20.405  0.00  0.00    +0.253 C 
ENDBRANCH  15  16
BRANCH   6  18
ATOM     18  C   UNL     1      30.320 -24.384 -12.931  0.00  0.00    +0.133 C 
ATOM     19  C   UNL     1      29.052 -25.104 -13.403  0.00  0.00    +0.037 C 
BRANCH  18  20
ATOM     20  O   UNL     1      31.162 -25.335 -12.268  0.00  0.00    -0.380 OA
ATOM     21  H   UNL     1      31.907 -24.873 -11.853  0.00  0.00    +0.211 HD
ENDBRANCH  18  20
ENDBRANCH   6  18
BRANCH  14  22
ATOM     22  O   UNL     1      35.670 -20.132 -20.201  0.00  0.00    -0.467 OA
BRANCH  22  23
ATOM     23  C   UNL     1      35.840 -18.716 -20.150  0.00  0.00    +0.232 C 
BRANCH  23  24
ATOM     24  C   UNL     1      35.116 -18.094 -21.309  0.00  0.00    +0.021 C 
ATOM     25  C   UNL     1      34.702 -16.770 -21.232  0.00  0.00    +0.002 C 
ATOM     26  C   UNL     1      34.865 -18.852 -22.449  0.00  0.00    +0.002 C 
ATOM     27  C   UNL     1      34.029 -16.193 -22.310  0.00  0.00    +0.037 C 
ATOM     28  C   UNL     1      34.191 -18.275 -23.526  0.00  0.00    +0.037 C 
ATOM     29  C   UNL     1      33.774 -16.946 -23.456  0.00  0.00    +0.139 C 
BRANCH  29  30
ATOM     30  O   UNL     1      33.117 -16.383 -24.507  0.00  0.00    -0.471 OA
ATOM     31  C   UNL     1      32.878 -14.978 -24.447  0.00  0.00    +0.252 C 
ENDBRANCH  29  30
ENDBRANCH  23  24
ENDBRANCH  22  23
ENDBRANCH  14  22
TORSDOF 7
ENDMDL
MODEL 4
REMARK VINA RESULT:     -10.4      2.661      5.367
REMARK  Name = 11998575
REMARK  7 active torsions:
REMARK  status: ('A' for Active; 'I' for Inactive)
REMARK    1  A    between atoms: C_6  and  C_18
REMARK    2  A    between atoms: C_14  and  O_22
REMARK    3  A    between atoms: C_15  and  O_16
REMARK    4  A    between atoms: C_18  and  O_20
REMARK    5  A    between atoms: O_22  and  C_23
REMARK    6  A    between atoms: C_23  and  C_24
REMARK    7  A    between atoms: C_29  and  O_30
REMARK                            x       y       z     vdW  Elec       q    Type
REMARK                         _______ _______ _______ _____ _____    ______ ____
ROOT
ATOM      1  O   UNL     1      36.402 -19.495 -19.280  0.00  0.00    -0.421 OA
ATOM      2  O   UNL     1      37.330 -17.934 -20.659  0.00  0.00    -0.244 OA
ATOM      3  C   UNL     1      34.032 -19.452 -20.822  0.00  0.00    +0.009 A 
ATOM      4  C   UNL     1      34.137 -20.331 -19.651  0.00  0.00    +0.038 A 
ATOM      5  C   UNL     1      35.119 -18.632 -21.169  0.00  0.00    +0.076 A 
ATOM      6  C   UNL     1      33.911 -17.728 -23.065  0.00  0.00    +0.004 C 
ATOM      7  C   UNL     1      35.322 -20.326 -18.913  0.00  0.00    +0.152 A 
ATOM      8  C   UNL     1      35.059 -17.777 -22.282  0.00  0.00    +0.004 C 
ATOM      9  C   UNL     1      32.883 -19.380 -21.634  0.00  0.00    +0.000 C 
ATOM     10  C   UNL     1      33.122 -21.193 -19.204  0.00  0.00    +0.043 C 
ATOM     11  C   UNL     1      32.823 -18.528 -22.741  0.00  0.00    -0.002 C 
ATOM     12  C   UNL     1      36.370 -18.640 -20.374  0.00  0.00    +0.346 A 
ATOM     13  C   UNL     1      35.518 -21.126 -17.783  0.00  0.00    +0.078 C 
ATOM     14  C   UNL     1      34.496 -21.968 -17.364  0.00  0.00    +0.176 C 
ATOM     15  C   UNL     1      33.299 -22.002 -18.073  0.00  0.00    +0.173 C 
ENDROOT
BRANCH  15  16
ATOM     16  O   UNL     1      32.286 -22.822 -17.676  0.00  0.00    -0.468 OA
ATOM     17  C   UNL     1      31.471 -22.368 -16.597  0.00  0.00    +0.253 C 
ENDBRANCH  15  16
BRANCH   6  18
ATOM     18  C   UNL     1      33.846 -16.819 -24.245  0.00  0.00    +0.133 C 
ATOM     19  C   UNL     1      32.420 -16.353 -24.557  0.00  0.00    +0.037 C 
BRANCH  18  20
ATOM     20  O   UNL     1      34.663 -15.664 -24.020  0.00  0.00    -0.380 OA
ATOM     21  H   UNL     1      35.598 -15.919 -24.053  0.00  0.00    +0.211 HD
ENDBRANCH  18  20
ENDBRANCH   6  18
BRANCH  14  22
ATOM     22  O   UNL     1      34.676 -22.750 -16.265  0.00  0.00    -0.467 OA
BRANCH  22  23
ATOM     23  C   UNL     1      35.824 -22.484 -15.460  0.00  0.00    +0.232 C 
BRANCH  23  24
ATOM     24  C   UNL     1      35.665 -23.176 -14.138  0.00  0.00    +0.021 C 
ATOM     25  C   UNL     1      34.421 -23.203 -13.519  0.00  0.00    +0.002 C 
ATOM     26  C   UNL     1      36.767 -23.784 -13.543  0.00  0.00    +0.002 C 
ATOM     27  C   UNL     1      34.274 -23.846 -12.289  0.00  0.00    +0.037 C 
ATOM     28  C   UNL     1      36.620 -24.427 -12.314  0.00  0.00    +0.037 C 
ATOM     29  C   UNL     1      35.374 -24.458 -11.687  0.00  0.00    +0.139 C 
BRANCH  29  30
ATOM     30  O   UNL     1      35.231 -25.086 -10.488  0.00  0.00    -0.471 OA
ATOM     31  C   UNL     1      34.744 -24.304  -9.399  0.00  0.00    +0.252 C 
ENDBRANCH  29  30
ENDBRANCH  23  24
ENDBRANCH  22  23
ENDBRANCH  14  22
TORSDOF 7
ENDMDL
MODEL 5
REMARK VINA RESULT:     -10.4      2.589      8.877
REMARK  Name = 11998575
REMARK  7 active torsions:
REMARK  status: ('A' for Active; 'I' for Inactive)
REMARK    1  A    between atoms: C_6  and  C_18
REMARK    2  A    between atoms: C_14  and  O_22
REMARK    3  A    between atoms: C_15  and  O_16
REMARK    4  A    between atoms: C_18  and  O_20
REMARK    5  A    between atoms: O_22  and  C_23
REMARK    6  A    between atoms: C_23  and  C_24
REMARK    7  A    between atoms: C_29  and  O_30
REMARK                            x       y       z     vdW  Elec       q    Type
REMARK                         _______ _______ _______ _____ _____    ______ ____
ROOT
ATOM      1  O   UNL     1      31.799 -22.004 -17.659  0.00  0.00    -0.421 OA
ATOM      2  O   UNL     1      31.144 -23.273 -15.881  0.00  0.00    -0.244 OA
ATOM      3  C   UNL     1      34.465 -22.054 -16.715  0.00  0.00    +0.009 A 
ATOM      4  C   UNL     1      34.130 -21.335 -17.951  0.00  0.00    +0.038 A 
ATOM      5  C   UNL     1      33.448 -22.717 -16.006  0.00  0.00    +0.076 A 
ATOM      6  C   UNL     1      35.025 -23.464 -14.324  0.00  0.00    +0.004 C 
ATOM      7  C   UNL     1      32.803 -21.331 -18.387  0.00  0.00    +0.152 A 
ATOM      8  C   UNL     1      33.727 -23.416 -14.820  0.00  0.00    +0.004 C 
ATOM      9  C   UNL     1      35.769 -22.120 -16.188  0.00  0.00    +0.000 C 
ATOM     10  C   UNL     1      35.054 -20.636 -18.745  0.00  0.00    +0.043 C 
ATOM     11  C   UNL     1      36.046 -22.816 -15.007  0.00  0.00    -0.002 C 
ATOM     12  C   UNL     1      32.045 -22.702 -16.484  0.00  0.00    +0.346 A 
ATOM     13  C   UNL     1      32.386 -20.675 -19.548  0.00  0.00    +0.078 C 
ATOM     14  C   UNL     1      33.323 -19.992 -20.313  0.00  0.00    +0.176 C 
ATOM     15  C   UNL     1      34.655 -19.971 -19.912  0.00  0.00    +0.173 C 
ENDROOT
BRANCH  15  16
ATOM     16  O   UNL     1      35.587 -19.305 -20.651  0.00  0.00    -0.468 OA
ATOM     17  C   UNL     1      36.457 -18.420 -19.949  0.00  0.00    +0.253 C 
ENDBRANCH  15  16
BRANCH   6  18
ATOM     18  C   UNL     1      35.320 -24.205 -13.065  0.00  0.00    +0.133 C 
ATOM     19  C   UNL     1      36.037 -23.340 -12.022  0.00  0.00    +0.037 C 
BRANCH  18  20
ATOM     20  O   UNL     1      34.104 -24.697 -12.488  0.00  0.00    -0.380 OA
ATOM     21  H   UNL     1      33.383 -24.077 -12.680  0.00  0.00    +0.211 HD
ENDBRANCH  18  20
ENDBRANCH   6  18
BRANCH  14  22
ATOM     22  O   UNL     1      32.927 -19.348 -21.446  0.00  0.00    -0.467 OA
BRANCH  22  23
ATOM     23  C   UNL     1      33.940 -19.030 -22.399  0.00  0.00    +0.232 C 
BRANCH  23  24
ATOM     24  C   UNL     1      33.704 -17.642 -22.918  0.00  0.00    +0.021 C 
ATOM     25  C   UNL     1      34.224 -16.552 -22.231  0.00  0.00    +0.002 C 
ATOM     26  C   UNL     1      32.965 -17.459 -24.083  0.00  0.00    +0.002 C 
ATOM     27  C   UNL     1      34.004 -15.261 -22.714  0.00  0.00    +0.037 C 
ATOM     28  C   UNL     1      32.745 -16.169 -24.565  0.00  0.00    +0.037 C 
ATOM     29  C   UNL     1      33.264 -15.070 -23.881  0.00  0.00    +0.139 C 
BRANCH  29  30
ATOM     30  O   UNL     1      33.050 -13.811 -24.352  0.00  0.00    -0.471 OA
ATOM     31  C   UNL     1      32.414 -13.692 -25.623  0.00  0.00    +0.252 C 
ENDBRANCH  29  30
ENDBRANCH  23  24
ENDBRANCH  22  23
ENDBRANCH  14  22
TORSDOF 7
ENDMDL
MODEL 6
REMARK VINA RESULT:     -10.2      2.054      5.433
REMARK  Name = 11998575
REMARK  7 active torsions:
REMARK  status: ('A' for Active; 'I' for Inactive)
REMARK    1  A    between atoms: C_6  and  C_18
REMARK    2  A    between atoms: C_14  and  O_22
REMARK    3  A    between atoms: C_15  and  O_16
REMARK    4  A    between atoms: C_18  and  O_20
REMARK    5  A    between atoms: O_22  and  C_23
REMARK    6  A    between atoms: C_23  and  C_24
REMARK    7  A    between atoms: C_29  and  O_30
REMARK                            x       y       z     vdW  Elec       q    Type
REMARK                         _______ _______ _______ _____ _____    ______ ____
ROOT
ATOM      1  O   UNL     1      35.117 -22.122 -16.940  0.00  0.00    -0.421 OA
ATOM      2  O   UNL     1      36.485 -21.061 -18.425  0.00  0.00    -0.244 OA
ATOM      3  C   UNL     1      32.854 -21.214 -18.372  0.00  0.00    +0.009 A 
ATOM      4  C   UNL     1      32.687 -22.041 -17.171  0.00  0.00    +0.038 A 
ATOM      5  C   UNL     1      34.149 -20.877 -18.804  0.00  0.00    +0.076 A 
ATOM      6  C   UNL     1      33.264 -19.623 -20.678  0.00  0.00    +0.004 C 
ATOM      7  C   UNL     1      33.827 -22.472 -16.489  0.00  0.00    +0.152 A 
ATOM      8  C   UNL     1      34.351 -20.088 -19.948  0.00  0.00    +0.004 C 
ATOM      9  C   UNL     1      31.772 -20.728 -19.133  0.00  0.00    +0.000 C 
ATOM     10  C   UNL     1      31.450 -22.442 -16.642  0.00  0.00    +0.043 C 
ATOM     11  C   UNL     1      31.975 -19.942 -20.271  0.00  0.00    -0.002 C 
ATOM     12  C   UNL     1      35.348 -21.343 -18.066  0.00  0.00    +0.346 A 
ATOM     13  C   UNL     1      33.772 -23.261 -15.337  0.00  0.00    +0.078 C 
ATOM     14  C   UNL     1      32.533 -23.642 -14.836  0.00  0.00    +0.176 C 
ATOM     15  C   UNL     1      31.373 -23.233 -15.487  0.00  0.00    +0.173 C 
ENDROOT
BRANCH  15  16
ATOM     16  O   UNL     1      30.150 -23.598 -15.009  0.00  0.00    -0.468 OA
ATOM     17  C   UNL     1      29.432 -22.621 -14.258  0.00  0.00    +0.253 C 
ENDBRANCH  15  16
BRANCH   6  18
ATOM     18  C   UNL     1      33.479 -18.784 -21.892  0.00  0.00    +0.133 C 
ATOM     19  C   UNL     1      34.369 -17.566 -21.620  0.00  0.00    +0.037 C 
BRANCH  18  20
ATOM     20  O   UNL     1      34.084 -19.567 -22.928  0.00  0.00    -0.380 OA
ATOM     21  H   UNL     1      34.761 -19.038 -23.379  0.00  0.00    +0.211 HD
ENDBRANCH  18  20
ENDBRANCH   6  18
BRANCH  14  22
ATOM     22  O   UNL     1      32.467 -24.409 -13.713  0.00  0.00    -0.467 OA
BRANCH  22  23
ATOM     23  C   UNL     1      32.996 -23.848 -12.512  0.00  0.00    +0.232 C 
BRANCH  23  24
ATOM     24  C   UNL     1      34.483 -24.053 -12.490  0.00  0.00    +0.021 C 
ATOM     25  C   UNL     1      35.024 -25.225 -13.004  0.00  0.00    +0.002 C 
ATOM     26  C   UNL     1      35.306 -23.068 -11.953  0.00  0.00    +0.002 C 
ATOM     27  C   UNL     1      36.407 -25.416 -12.984  0.00  0.00    +0.037 C 
ATOM     28  C   UNL     1      36.687 -23.258 -11.932  0.00  0.00    +0.037 C 
ATOM     29  C   UNL     1      37.237 -24.432 -12.447  0.00  0.00    +0.139 C 
BRANCH  29  30
ATOM     30  O   UNL     1      38.586 -24.618 -12.427  0.00  0.00    -0.471 OA
ATOM     31  C   UNL     1      39.157 -25.352 -13.509  0.00  0.00    +0.252 C 
ENDBRANCH  29  30
ENDBRANCH  23  24
ENDBRANCH  22  23
ENDBRANCH  14  22
TORSDOF 7
ENDMDL
MODEL 7
REMARK VINA RESULT:     -10.2      2.483      5.971
REMARK  Name = 11998575
REMARK  7 active torsions:
REMARK  status: ('A' for Active; 'I' for Inactive)
REMARK    1  A    between atoms: C_6  and  C_18
REMARK    2  A    between atoms: C_14  and  O_22
REMARK    3  A    between atoms: C_15  and  O_16
REMARK    4  A    between atoms: C_18  and  O_20
REMARK    5  A    between atoms: O_22  and  C_23
REMARK    6  A    between atoms: C_23  and  C_24
REMARK    7  A    between atoms: C_29  and  O_30
REMARK                            x       y       z     vdW  Elec       q    Type
REMARK                         _______ _______ _______ _____ _____    ______ ____
ROOT
ATOM      1  O   UNL     1      36.123 -19.806 -19.064  0.00  0.00    -0.421 OA
ATOM      2  O   UNL     1      37.251 -18.316 -20.371  0.00  0.00    -0.244 OA
ATOM      3  C   UNL     1      33.826 -19.490 -20.684  0.00  0.00    +0.009 A 
ATOM      4  C   UNL     1      33.801 -20.401 -19.532  0.00  0.00    +0.038 A 
ATOM      5  C   UNL     1      35.002 -18.776 -20.973  0.00  0.00    +0.076 A 
ATOM      6  C   UNL     1      33.959 -17.714 -22.885  0.00  0.00    +0.004 C 
ATOM      7  C   UNL     1      34.954 -20.532 -18.755  0.00  0.00    +0.152 A 
ATOM      8  C   UNL     1      35.067 -17.896 -22.066  0.00  0.00    +0.004 C 
ATOM      9  C   UNL     1      32.720 -19.285 -21.531  0.00  0.00    +0.000 C 
ATOM     10  C   UNL     1      32.690 -21.166 -19.142  0.00  0.00    +0.043 C 
ATOM     11  C   UNL     1      32.786 -18.407 -22.618  0.00  0.00    -0.002 C 
ATOM     12  C   UNL     1      36.217 -18.928 -20.136  0.00  0.00    +0.346 A 
ATOM     13  C   UNL     1      35.028 -21.371 -17.640  0.00  0.00    +0.078 C 
ATOM     14  C   UNL     1      33.912 -22.115 -17.277  0.00  0.00    +0.176 C 
ATOM     15  C   UNL     1      32.744 -22.013 -18.027  0.00  0.00    +0.173 C 
ENDROOT
BRANCH  15  16
ATOM     16  O   UNL     1      31.640 -22.736 -17.684  0.00  0.00    -0.468 OA
ATOM     17  C   UNL     1      31.015 -22.413 -16.444  0.00  0.00    +0.253 C 
ENDBRANCH  15  16
BRANCH   6  18
ATOM     18  C   UNL     1      34.028 -16.778 -24.043  0.00  0.00    +0.133 C 
ATOM     19  C   UNL     1      32.645 -16.323 -24.521  0.00  0.00    +0.037 C 
BRANCH  18  20
ATOM     20  O   UNL     1      34.791 -15.617 -23.692  0.00  0.00    -0.380 OA
ATOM     21  H   UNL     1      34.189 -14.896 -23.450  0.00  0.00    +0.211 HD
ENDBRANCH  18  20
ENDBRANCH   6  18
BRANCH  14  22
ATOM     22  O   UNL     1      33.973 -22.935 -16.192  0.00  0.00    -0.467 OA
BRANCH  22  23
ATOM     23  C   UNL     1      34.706 -22.463 -15.063  0.00  0.00    +0.232 C 
BRANCH  23  24
ATOM     24  C   UNL     1      35.710 -23.504 -14.661  0.00  0.00    +0.021 C 
ATOM     25  C   UNL     1      37.067 -23.207 -14.707  0.00  0.00    +0.002 C 
ATOM     26  C   UNL     1      35.273 -24.759 -14.249  0.00  0.00    +0.002 C 
ATOM     27  C   UNL     1      38.000 -24.175 -14.335  0.00  0.00    +0.037 C 
ATOM     28  C   UNL     1      36.205 -25.727 -13.876  0.00  0.00    +0.037 C 
ATOM     29  C   UNL     1      37.568 -25.435 -13.920  0.00  0.00    +0.139 C 
BRANCH  29  30
ATOM     30  O   UNL     1      38.479 -26.379 -13.556  0.00  0.00    -0.471 OA
ATOM     31  C   UNL     1      39.831 -25.953 -13.401  0.00  0.00    +0.252 C 
ENDBRANCH  29  30
ENDBRANCH  23  24
ENDBRANCH  22  23
ENDBRANCH  14  22
TORSDOF 7
ENDMDL
MODEL 8
REMARK VINA RESULT:     -10.1      7.692     12.436
REMARK  Name = 11998575
REMARK  7 active torsions:
REMARK  status: ('A' for Active; 'I' for Inactive)
REMARK    1  A    between atoms: C_6  and  C_18
REMARK    2  A    between atoms: C_14  and  O_22
REMARK    3  A    between atoms: C_15  and  O_16
REMARK    4  A    between atoms: C_18  and  O_20
REMARK    5  A    between atoms: O_22  and  C_23
REMARK    6  A    between atoms: C_23  and  C_24
REMARK    7  A    between atoms: C_29  and  O_30
REMARK                            x       y       z     vdW  Elec       q    Type
REMARK                         _______ _______ _______ _____ _____    ______ ____
ROOT
ATOM      1  O   UNL     1      31.166 -11.594 -19.777  0.00  0.00    -0.421 OA
ATOM      2  O   UNL     1      30.418 -10.286 -18.066  0.00  0.00    -0.244 OA
ATOM      3  C   UNL     1      31.669  -9.283 -21.327  0.00  0.00    +0.009 A 
ATOM      4  C   UNL     1      31.953 -10.617 -21.873  0.00  0.00    +0.038 A 
ATOM      5  C   UNL     1      31.145  -9.166 -20.028  0.00  0.00    +0.076 A 
ATOM      6  C   UNL     1      31.095  -6.750 -20.201  0.00  0.00    +0.004 C 
ATOM      7  C   UNL     1      31.692 -11.736 -21.079  0.00  0.00    +0.152 A 
ATOM      8  C   UNL     1      30.861  -7.909 -19.470  0.00  0.00    +0.004 C 
ATOM      9  C   UNL     1      31.896  -8.091 -22.043  0.00  0.00    +0.000 C 
ATOM     10  C   UNL     1      32.475 -10.862 -23.153  0.00  0.00    +0.043 C 
ATOM     11  C   UNL     1      31.611  -6.840 -21.486  0.00  0.00    -0.002 C 
ATOM     12  C   UNL     1      30.874 -10.366 -19.200  0.00  0.00    +0.346 A 
ATOM     13  C   UNL     1      31.927 -13.045 -21.509  0.00  0.00    +0.078 C 
ATOM     14  C   UNL     1      32.443 -13.257 -22.781  0.00  0.00    +0.176 C 
ATOM     15  C   UNL     1      32.717 -12.167 -23.603  0.00  0.00    +0.173 C 
ENDROOT
BRANCH  15  16
ATOM     16  O   UNL     1      33.224 -12.358 -24.854  0.00  0.00    -0.468 OA
ATOM     17  C   UNL     1      32.285 -12.537 -25.912  0.00  0.00    +0.253 C 
ENDBRANCH  15  16
BRANCH   6  18
ATOM     18  C   UNL     1      30.791  -5.416 -19.608  0.00  0.00    +0.133 C 
ATOM     19  C   UNL     1      31.521  -5.176 -18.282  0.00  0.00    +0.037 C 
BRANCH  18  20
ATOM     20  O   UNL     1      31.160  -4.377 -20.523  0.00  0.00    -0.380 OA
ATOM     21  H   UNL     1      31.755  -3.753 -20.080  0.00  0.00    +0.211 HD
ENDBRANCH  18  20
ENDBRANCH   6  18
BRANCH  14  22
ATOM     22  O   UNL     1      32.675 -14.528 -23.211  0.00  0.00    -0.467 OA
BRANCH  22  23
ATOM     23  C   UNL     1      34.024 -14.991 -23.169  0.00  0.00    +0.232 C 
BRANCH  23  24
ATOM     24  C   UNL     1      34.063 -16.320 -22.472  0.00  0.00    +0.021 C 
ATOM     25  C   UNL     1      34.384 -16.380 -21.121  0.00  0.00    +0.002 C 
ATOM     26  C   UNL     1      33.779 -17.480 -23.185  0.00  0.00    +0.002 C 
ATOM     27  C   UNL     1      34.421 -17.615 -20.473  0.00  0.00    +0.037 C 
ATOM     28  C   UNL     1      33.816 -18.715 -22.538  0.00  0.00    +0.037 C 
ATOM     29  C   UNL     1      34.137 -18.782 -21.182  0.00  0.00    +0.139 C 
BRANCH  29  30
ATOM     30  O   UNL     1      34.173 -19.987 -20.550  0.00  0.00    -0.471 OA
ATOM     31  C   UNL     1      33.114 -20.275 -19.639  0.00  0.00    +0.252 C 
ENDBRANCH  29  30
ENDBRANCH  23  24
ENDBRANCH  22  23
ENDBRANCH  14  22
TORSDOF 7
ENDMDL
MODEL 9
REMARK VINA RESULT:      -9.8      9.371     14.417
REMARK  Name = 11998575
REMARK  7 active torsions:
REMARK  status: ('A' for Active; 'I' for Inactive)
REMARK    1  A    between atoms: C_6  and  C_18
REMARK    2  A    between atoms: C_14  and  O_22
REMARK    3  A    between atoms: C_15  and  O_16
REMARK    4  A    between atoms: C_18  and  O_20
REMARK    5  A    between atoms: O_22  and  C_23
REMARK    6  A    between atoms: C_23  and  C_24
REMARK    7  A    between atoms: C_29  and  O_30
REMARK                            x       y       z     vdW  Elec       q    Type
REMARK                         _______ _______ _______ _____ _____    ______ ____
ROOT
ATOM      1  O   UNL     1      33.617  -7.791 -24.221  0.00  0.00    -0.421 OA
ATOM      2  O   UNL     1      33.731  -5.595 -24.824  0.00  0.00    -0.244 OA
ATOM      3  C   UNL     1      31.556  -7.183 -22.384  0.00  0.00    +0.009 A 
ATOM      4  C   UNL     1      32.033  -8.563 -22.530  0.00  0.00    +0.038 A 
ATOM      5  C   UNL     1      32.133  -6.167 -23.165  0.00  0.00    +0.076 A 
ATOM      6  C   UNL     1      30.693  -4.495 -22.163  0.00  0.00    +0.004 C 
ATOM      7  C   UNL     1      33.053  -8.827 -23.447  0.00  0.00    +0.152 A 
ATOM      8  C   UNL     1      31.704  -4.834 -23.055  0.00  0.00    +0.004 C 
ATOM      9  C   UNL     1      30.534  -6.809 -21.489  0.00  0.00    +0.000 C 
ATOM     10  C   UNL     1      31.538  -9.662 -21.808  0.00  0.00    +0.043 C 
ATOM     11  C   UNL     1      30.108  -5.481 -21.380  0.00  0.00    -0.002 C 
ATOM     12  C   UNL     1      33.215  -6.465 -24.133  0.00  0.00    +0.346 A 
ATOM     13  C   UNL     1      33.575 -10.106 -23.657  0.00  0.00    +0.078 C 
ATOM     14  C   UNL     1      33.066 -11.173 -22.928  0.00  0.00    +0.176 C 
ATOM     15  C   UNL     1      32.049 -10.952 -22.004  0.00  0.00    +0.173 C 
ENDROOT
BRANCH  15  16
ATOM     16  O   UNL     1      31.538 -11.988 -21.279  0.00  0.00    -0.468 OA
ATOM     17  C   UNL     1      30.831 -11.657 -20.087  0.00  0.00    +0.253 C 
ENDBRANCH  15  16
BRANCH   6  18
ATOM     18  C   UNL     1      30.239  -3.079 -22.046  0.00  0.00    +0.133 C 
ATOM     19  C   UNL     1      29.636  -2.541 -23.347  0.00  0.00    +0.037 C 
BRANCH  18  20
ATOM     20  O   UNL     1      29.258  -2.963 -21.008  0.00  0.00    -0.380 OA
ATOM     21  H   UNL     1      29.338  -2.095 -20.585  0.00  0.00    +0.211 HD
ENDBRANCH  18  20
ENDBRANCH   6  18
BRANCH  14  22
ATOM     22  O   UNL     1      33.568 -12.424 -23.124  0.00  0.00    -0.467 OA
BRANCH  22  23
ATOM     23  C   UNL     1      32.750 -13.346 -23.843  0.00  0.00    +0.232 C 
BRANCH  23  24
ATOM     24  C   UNL     1      33.170 -14.745 -23.496  0.00  0.00    +0.021 C 
ATOM     25  C   UNL     1      32.911 -15.782 -24.384  0.00  0.00    +0.002 C 
ATOM     26  C   UNL     1      33.812 -14.991 -22.286  0.00  0.00    +0.002 C 
ATOM     27  C   UNL     1      33.300 -17.082 -24.061  0.00  0.00    +0.037 C 
ATOM     28  C   UNL     1      34.201 -16.290 -21.963  0.00  0.00    +0.037 C 
ATOM     29  C   UNL     1      33.945 -17.336 -22.850  0.00  0.00    +0.139 C 
BRANCH  29  30
ATOM     30  O   UNL     1      34.325 -18.604 -22.535  0.00  0.00    -0.471 OA
ATOM     31  C   UNL     1      34.157 -19.015 -21.180  0.00  0.00    +0.252 C 
ENDBRANCH  29  30
ENDBRANCH  23  24
ENDBRANCH  22  23
ENDBRANCH  14  22
TORSDOF 7
ENDMDL
