MODEL 1
REMARK VINA RESULT:     -11.6      0.000      0.000
REMARK  Name = 24832041
REMARK  6 active torsions:
REMARK  status: ('A' for Active; 'I' for Inactive)
REMARK    1  A    between atoms: C_1  and  C_18
REMARK    2  A    between atoms: C_4  and  C_7
REMARK    3  A    between atoms: C_10  and  C_15
REMARK    4  A    between atoms: C_18  and  N_19
REMARK    5  A    between atoms: C_18  and  C_23
REMARK    6  A    between atoms: C_23  and  C_26
REMARK                            x       y       z     vdW  Elec       q    Type
REMARK                         _______ _______ _______ _____ _____    ______ ____
ROOT
ATOM      1  C   UNL     1      33.748 -19.532 -20.814  0.00  0.00    -0.042 C 
ATOM      2  C   UNL     1      34.929 -19.994 -20.234  0.00  0.00    -0.006 C 
ATOM      3  C   UNL     1      32.516 -19.867 -20.250  0.00  0.00    -0.006 C 
ATOM      4  C   UNL     1      33.647 -21.127 -18.526  0.00  0.00    -0.000 C 
ATOM      5  C   UNL     1      34.879 -20.791 -19.090  0.00  0.00    -0.000 C 
ATOM      6  C   UNL     1      32.466 -20.664 -19.107  0.00  0.00    -0.000 C 
ENDROOT
BRANCH   4   7
ATOM      7  C   UNL     1      33.596 -21.952 -17.341  0.00  0.00    +0.000 C 
ATOM      8  C   UNL     1      34.702 -22.024 -16.492  0.00  0.00    +0.005 C 
ATOM      9  C   UNL     1      32.442 -22.677 -17.045  0.00  0.00    +0.000 C 
ATOM     10  C   UNL     1      34.652 -22.821 -15.348  0.00  0.00    +0.053 C 
ATOM     11  C   UNL     1      32.393 -23.474 -15.901  0.00  0.00    +0.000 C 
ATOM     12  C   UNL     1      33.497 -23.546 -15.052  0.00  0.00    +0.005 C 
BRANCH  10  15
ATOM     13  O   UNL     1      35.677 -22.810 -13.228  0.00  0.00    -0.270 OA
ATOM     14  N   UNL     1      37.055 -23.082 -15.040  0.00  0.00    -0.325 N 
ATOM     15  C   UNL     1      35.803 -22.895 -14.462  0.00  0.00    +0.243 C 
ATOM     16  H   UNL     1      37.857 -23.136 -14.472  0.00  0.00    +0.145 HD
ATOM     17  H   UNL     1      37.139 -23.161 -16.018  0.00  0.00    +0.145 HD
ENDBRANCH  10  15
ENDBRANCH   4   7
BRANCH   1  18
ATOM     18  C   UNL     1      33.800 -18.679 -22.035  0.00  0.00    -0.038 C 
BRANCH  18  19
ATOM     19  N   UNL     1      34.084 -19.470 -23.252  0.00  0.00    +0.384 N 
ATOM     20  H   UNL     1      34.917 -19.101 -23.712  0.00  0.00    -0.089 HD
ATOM     21  H   UNL     1      33.289 -19.410 -23.890  0.00  0.00    -0.089 HD
ATOM     22  H   UNL     1      34.241 -20.444 -22.996  0.00  0.00    -0.089 HD
ENDBRANCH  18  19
BRANCH  18  23
ATOM     23  C   UNL     1      34.838 -17.521 -21.963  0.00  0.00    +0.011 C 
BRANCH  23  26
ATOM     24  F   UNL     1      34.222 -16.356 -24.474  0.00  0.00    -0.205 F 
ATOM     25  F   UNL     1      33.014 -13.433 -20.011  0.00  0.00    -0.204 F 
ATOM     26  C   UNL     1      34.204 -16.157 -22.108  0.00  0.00    +0.006 C 
ATOM     27  C   UNL     1      33.928 -15.645 -23.376  0.00  0.00    +0.136 C 
ATOM     28  C   UNL     1      33.895 -15.411 -20.971  0.00  0.00    +0.028 C 
ATOM     29  C   UNL     1      33.311 -14.151 -21.102  0.00  0.00    +0.140 C 
ATOM     30  C   UNL     1      33.343 -14.385 -23.506  0.00  0.00    +0.032 C 
ATOM     31  C   UNL     1      33.034 -13.638 -22.370  0.00  0.00    +0.032 C 
ENDBRANCH  23  26
ENDBRANCH  18  23
ENDBRANCH   1  18
TORSDOF 6
ENDMDL
MODEL 2
REMARK VINA RESULT:     -11.5      0.751      1.728
REMARK  Name = 24832041
REMARK  6 active torsions:
REMARK  status: ('A' for Active; 'I' for Inactive)
REMARK    1  A    between atoms: C_1  and  C_18
REMARK    2  A    between atoms: C_4  and  C_7
REMARK    3  A    between atoms: C_10  and  C_15
REMARK    4  A    between atoms: C_18  and  N_19
REMARK    5  A    between atoms: C_18  and  C_23
REMARK    6  A    between atoms: C_23  and  C_26
REMARK                            x       y       z     vdW  Elec       q    Type
REMARK                         _______ _______ _______ _____ _____    ______ ____
ROOT
ATOM      1  C   UNL     1      33.641 -19.508 -20.892  0.00  0.00    -0.042 C 
ATOM      2  C   UNL     1      34.829 -19.943 -20.305  0.00  0.00    -0.006 C 
ATOM      3  C   UNL     1      32.415 -19.857 -20.324  0.00  0.00    -0.006 C 
ATOM      4  C   UNL     1      33.566 -21.075 -18.583  0.00  0.00    -0.000 C 
ATOM      5  C   UNL     1      34.792 -20.726 -19.151  0.00  0.00    -0.000 C 
ATOM      6  C   UNL     1      32.378 -20.640 -19.171  0.00  0.00    -0.000 C 
ENDROOT
BRANCH   4   7
ATOM      7  C   UNL     1      33.528 -21.886 -17.387  0.00  0.00    +0.000 C 
ATOM      8  C   UNL     1      34.680 -22.043 -16.615  0.00  0.00    +0.005 C 
ATOM      9  C   UNL     1      32.342 -22.511 -17.006  0.00  0.00    +0.000 C 
ATOM     10  C   UNL     1      34.643 -22.826 -15.460  0.00  0.00    +0.053 C 
ATOM     11  C   UNL     1      32.306 -23.294 -15.851  0.00  0.00    +0.000 C 
ATOM     12  C   UNL     1      33.456 -23.451 -15.079  0.00  0.00    +0.005 C 
BRANCH  10  15
ATOM     13  O   UNL     1      35.779 -23.345 -13.463  0.00  0.00    -0.270 OA
ATOM     14  N   UNL     1      37.070 -22.751 -15.262  0.00  0.00    -0.325 N 
ATOM     15  C   UNL     1      35.842 -22.989 -14.653  0.00  0.00    +0.243 C 
ATOM     16  H   UNL     1      37.903 -22.851 -14.747  0.00  0.00    +0.145 HD
ATOM     17  H   UNL     1      37.107 -22.483 -16.209  0.00  0.00    +0.145 HD
ENDBRANCH  10  15
ENDBRANCH   4   7
BRANCH   1  18
ATOM     18  C   UNL     1      33.680 -18.671 -22.124  0.00  0.00    -0.038 C 
BRANCH  18  19
ATOM     19  N   UNL     1      34.042 -19.461 -23.320  0.00  0.00    +0.384 N 
ATOM     20  H   UNL     1      34.375 -20.381 -23.033  0.00  0.00    -0.089 HD
ATOM     21  H   UNL     1      34.780 -18.979 -23.835  0.00  0.00    -0.089 HD
ATOM     22  H   UNL     1      33.224 -19.568 -23.919  0.00  0.00    -0.089 HD
ENDBRANCH  18  19
BRANCH  18  23
ATOM     23  C   UNL     1      34.647 -17.454 -22.041  0.00  0.00    +0.011 C 
BRANCH  23  26
ATOM     24  F   UNL     1      34.029 -15.342 -20.252  0.00  0.00    -0.205 F 
ATOM     25  F   UNL     1      32.774 -14.586 -25.522  0.00  0.00    -0.204 F 
ATOM     26  C   UNL     1      34.000 -16.161 -22.480  0.00  0.00    +0.006 C 
ATOM     27  C   UNL     1      33.725 -15.164 -21.545  0.00  0.00    +0.136 C 
ATOM     28  C   UNL     1      33.680 -15.966 -23.823  0.00  0.00    +0.028 C 
ATOM     29  C   UNL     1      33.083 -14.773 -24.232  0.00  0.00    +0.140 C 
ATOM     30  C   UNL     1      33.127 -13.971 -21.954  0.00  0.00    +0.032 C 
ATOM     31  C   UNL     1      32.807 -13.775 -23.296  0.00  0.00    +0.032 C 
ENDBRANCH  23  26
ENDBRANCH  18  23
ENDBRANCH   1  18
TORSDOF 6
ENDMDL
MODEL 3
REMARK VINA RESULT:     -11.4      2.093      2.685
REMARK  Name = 24832041
REMARK  6 active torsions:
REMARK  status: ('A' for Active; 'I' for Inactive)
REMARK    1  A    between atoms: C_1  and  C_18
REMARK    2  A    between atoms: C_4  and  C_7
REMARK    3  A    between atoms: C_10  and  C_15
REMARK    4  A    between atoms: C_18  and  N_19
REMARK    5  A    between atoms: C_18  and  C_23
REMARK    6  A    between atoms: C_23  and  C_26
REMARK                            x       y       z     vdW  Elec       q    Type
REMARK                         _______ _______ _______ _____ _____    ______ ____
ROOT
ATOM      1  C   UNL     1      33.566 -19.589 -20.786  0.00  0.00    -0.042 C 
ATOM      2  C   UNL     1      32.270 -19.825 -20.328  0.00  0.00    -0.006 C 
ATOM      3  C   UNL     1      34.656 -20.121 -20.096  0.00  0.00    -0.006 C 
ATOM      4  C   UNL     1      33.152 -21.123 -18.491  0.00  0.00    -0.000 C 
ATOM      5  C   UNL     1      32.062 -20.591 -19.181  0.00  0.00    -0.000 C 
ATOM      6  C   UNL     1      34.449 -20.887 -18.949  0.00  0.00    -0.000 C 
ENDROOT
BRANCH   4   7
ATOM      7  C   UNL     1      32.937 -21.918 -17.303  0.00  0.00    +0.000 C 
ATOM      8  C   UNL     1      31.639 -22.223 -16.893  0.00  0.00    +0.005 C 
ATOM      9  C   UNL     1      34.027 -22.379 -16.566  0.00  0.00    +0.000 C 
ATOM     10  C   UNL     1      31.431 -22.990 -15.746  0.00  0.00    +0.053 C 
ATOM     11  C   UNL     1      33.820 -23.146 -15.419  0.00  0.00    +0.000 C 
ATOM     12  C   UNL     1      32.522 -23.451 -15.009  0.00  0.00    +0.005 C 
BRANCH  10  15
ATOM     13  O   UNL     1      29.855 -24.224 -14.506  0.00  0.00    -0.270 OA
ATOM     14  N   UNL     1      29.038 -22.548 -15.840  0.00  0.00    -0.325 N 
ATOM     15  C   UNL     1      30.079 -23.311 -15.320  0.00  0.00    +0.243 C 
ATOM     16  H   UNL     1      28.108 -22.737 -15.575  0.00  0.00    +0.145 HD
ATOM     17  H   UNL     1      29.230 -21.819 -16.474  0.00  0.00    +0.145 HD
ENDBRANCH  10  15
ENDBRANCH   4   7
BRANCH   1  18
ATOM     18  C   UNL     1      33.788 -18.771 -22.012  0.00  0.00    -0.038 C 
BRANCH  18  19
ATOM     19  N   UNL     1      34.193 -19.601 -23.167  0.00  0.00    +0.384 N 
ATOM     20  H   UNL     1      35.207 -19.719 -23.162  0.00  0.00    -0.089 HD
ATOM     21  H   UNL     1      33.908 -19.143 -24.032  0.00  0.00    -0.089 HD
ATOM     22  H   UNL     1      33.746 -20.516 -23.103  0.00  0.00    -0.089 HD
ENDBRANCH  18  19
BRANCH  18  23
ATOM     23  C   UNL     1      34.841 -17.638 -21.842  0.00  0.00    +0.011 C 
BRANCH  23  26
ATOM     24  F   UNL     1      34.292 -16.460 -24.363  0.00  0.00    -0.205 F 
ATOM     25  F   UNL     1      33.095 -13.500 -19.922  0.00  0.00    -0.204 F 
ATOM     26  C   UNL     1      34.245 -16.257 -21.999  0.00  0.00    +0.006 C 
ATOM     27  C   UNL     1      34.001 -15.740 -23.271  0.00  0.00    +0.136 C 
ATOM     28  C   UNL     1      33.939 -15.501 -20.867  0.00  0.00    +0.028 C 
ATOM     29  C   UNL     1      33.389 -14.227 -21.008  0.00  0.00    +0.140 C 
ATOM     30  C   UNL     1      33.451 -14.466 -23.411  0.00  0.00    +0.032 C 
ATOM     31  C   UNL     1      33.144 -13.709 -22.281  0.00  0.00    +0.032 C 
ENDBRANCH  23  26
ENDBRANCH  18  23
ENDBRANCH   1  18
TORSDOF 6
ENDMDL
MODEL 4
REMARK VINA RESULT:     -11.3      4.870     10.000
REMARK  Name = 24832041
REMARK  6 active torsions:
REMARK  status: ('A' for Active; 'I' for Inactive)
REMARK    1  A    between atoms: C_1  and  C_18
REMARK    2  A    between atoms: C_4  and  C_7
REMARK    3  A    between atoms: C_10  and  C_15
REMARK    4  A    between atoms: C_18  and  N_19
REMARK    5  A    between atoms: C_18  and  C_23
REMARK    6  A    between atoms: C_23  and  C_26
REMARK                            x       y       z     vdW  Elec       q    Type
REMARK                         _______ _______ _______ _____ _____    ______ ____
ROOT
ATOM      1  C   UNL     1      34.394 -16.944 -21.451  0.00  0.00    -0.042 C 
ATOM      2  C   UNL     1      34.351 -17.067 -22.840  0.00  0.00    -0.006 C 
ATOM      3  C   UNL     1      34.051 -15.734 -20.847  0.00  0.00    -0.006 C 
ATOM      4  C   UNL     1      33.622 -14.770 -23.021  0.00  0.00    -0.000 C 
ATOM      5  C   UNL     1      33.965 -15.981 -23.625  0.00  0.00    -0.000 C 
ATOM      6  C   UNL     1      33.665 -14.648 -21.632  0.00  0.00    -0.000 C 
ENDROOT
BRANCH   4   7
ATOM      7  C   UNL     1      33.221 -13.644 -23.835  0.00  0.00    +0.000 C 
ATOM      8  C   UNL     1      33.433 -12.343 -23.378  0.00  0.00    +0.005 C 
ATOM      9  C   UNL     1      32.622 -13.859 -25.076  0.00  0.00    +0.000 C 
ATOM     10  C   UNL     1      33.046 -11.256 -24.163  0.00  0.00    +0.053 C 
ATOM     11  C   UNL     1      32.235 -12.772 -25.861  0.00  0.00    +0.000 C 
ATOM     12  C   UNL     1      32.447 -11.471 -25.405  0.00  0.00    +0.005 C 
BRANCH  10  15
ATOM     13  O   UNL     1      34.236  -9.225 -24.084  0.00  0.00    -0.270 OA
ATOM     14  N   UNL     1      32.350  -9.370 -22.788  0.00  0.00    -0.325 N 
ATOM     15  C   UNL     1      33.268  -9.900 -23.689  0.00  0.00    +0.243 C 
ATOM     16  H   UNL     1      32.468  -8.455 -22.445  0.00  0.00    +0.145 HD
ATOM     17  H   UNL     1      31.581  -9.910 -22.494  0.00  0.00    +0.145 HD
ENDBRANCH  10  15
ENDBRANCH   4   7
BRANCH   1  18
ATOM     18  C   UNL     1      34.806 -18.105 -20.612  0.00  0.00    -0.038 C 
BRANCH  18  19
ATOM     19  N   UNL     1      36.260 -18.360 -20.693  0.00  0.00    +0.384 N 
ATOM     20  H   UNL     1      36.766 -17.585 -20.263  0.00  0.00    -0.089 HD
ATOM     21  H   UNL     1      36.536 -18.446 -21.671  0.00  0.00    -0.089 HD
ATOM     22  H   UNL     1      36.483 -19.224 -20.200  0.00  0.00    -0.089 HD
ENDBRANCH  18  19
BRANCH  18  23
ATOM     23  C   UNL     1      34.066 -19.433 -20.949  0.00  0.00    +0.011 C 
BRANCH  23  26
ATOM     24  F   UNL     1      31.524 -20.271 -20.011  0.00  0.00    -0.205 F 
ATOM     25  F   UNL     1      35.901 -22.024 -17.238  0.00  0.00    -0.204 F 
ATOM     26  C   UNL     1      33.883 -20.323 -19.742  0.00  0.00    +0.006 C 
ATOM     27  C   UNL     1      32.602 -20.697 -19.336  0.00  0.00    +0.136 C 
ATOM     28  C   UNL     1      34.998 -20.772 -19.034  0.00  0.00    +0.028 C 
ATOM     29  C   UNL     1      34.832 -21.594 -17.919  0.00  0.00    +0.140 C 
ATOM     30  C   UNL     1      32.436 -21.519 -18.221  0.00  0.00    +0.032 C 
ATOM     31  C   UNL     1      33.550 -21.968 -17.513  0.00  0.00    +0.032 C 
ENDBRANCH  23  26
ENDBRANCH  18  23
ENDBRANCH   1  18
TORSDOF 6
ENDMDL
MODEL 5
REMARK VINA RESULT:     -11.1      4.611      9.438
REMARK  Name = 24832041
REMARK  6 active torsions:
REMARK  status: ('A' for Active; 'I' for Inactive)
REMARK    1  A    between atoms: C_1  and  C_18
REMARK    2  A    between atoms: C_4  and  C_7
REMARK    3  A    between atoms: C_10  and  C_15
REMARK    4  A    between atoms: C_18  and  N_19
REMARK    5  A    between atoms: C_18  and  C_23
REMARK    6  A    between atoms: C_23  and  C_26
REMARK                            x       y       z     vdW  Elec       q    Type
REMARK                         _______ _______ _______ _____ _____    ______ ____
ROOT
ATOM      1  C   UNL     1      33.212 -22.194 -17.268  0.00  0.00    -0.042 C 
ATOM      2  C   UNL     1      32.275 -21.604 -18.117  0.00  0.00    -0.006 C 
ATOM      3  C   UNL     1      34.571 -21.928 -17.438  0.00  0.00    -0.006 C 
ATOM      4  C   UNL     1      34.056 -20.483 -19.305  0.00  0.00    -0.000 C 
ATOM      5  C   UNL     1      32.697 -20.749 -19.134  0.00  0.00    -0.000 C 
ATOM      6  C   UNL     1      34.993 -21.074 -18.455  0.00  0.00    -0.000 C 
ENDROOT
BRANCH   4   7
ATOM      7  C   UNL     1      34.493 -19.596 -20.359  0.00  0.00    +0.000 C 
ATOM      8  C   UNL     1      33.622 -19.266 -21.398  0.00  0.00    +0.005 C 
ATOM      9  C   UNL     1      35.784 -19.070 -20.338  0.00  0.00    +0.000 C 
ATOM     10  C   UNL     1      34.043 -18.410 -22.416  0.00  0.00    +0.053 C 
ATOM     11  C   UNL     1      36.205 -18.214 -21.356  0.00  0.00    +0.000 C 
ATOM     12  C   UNL     1      35.335 -17.884 -22.395  0.00  0.00    +0.005 C 
BRANCH  10  15
ATOM     13  O   UNL     1      32.223 -18.831 -23.850  0.00  0.00    -0.270 OA
ATOM     14  N   UNL     1      33.311 -16.831 -24.120  0.00  0.00    -0.325 N 
ATOM     15  C   UNL     1      33.136 -18.063 -23.498  0.00  0.00    +0.243 C 
ATOM     16  H   UNL     1      32.716 -16.562 -24.858  0.00  0.00    +0.145 HD
ATOM     17  H   UNL     1      34.029 -16.226 -23.823  0.00  0.00    +0.145 HD
ENDBRANCH  10  15
ENDBRANCH   4   7
BRANCH   1  18
ATOM     18  C   UNL     1      32.762 -23.108 -16.180  0.00  0.00    -0.038 C 
BRANCH  18  19
ATOM     19  N   UNL     1      31.290 -23.114 -16.034  0.00  0.00    +0.384 N 
ATOM     20  H   UNL     1      30.856 -23.027 -16.953  0.00  0.00    -0.089 HD
ATOM     21  H   UNL     1      31.003 -22.329 -15.448  0.00  0.00    -0.089 HD
ATOM     22  H   UNL     1      30.994 -23.988 -15.600  0.00  0.00    -0.089 HD
ENDBRANCH  18  19
BRANCH  18  23
ATOM     23  C   UNL     1      33.381 -22.796 -14.786  0.00  0.00    +0.011 C 
BRANCH  23  26
ATOM     24  F   UNL     1      35.961 -21.642 -14.554  0.00  0.00    -0.205 F 
ATOM     25  F   UNL     1      35.598 -27.065 -13.937  0.00  0.00    -0.204 F 
ATOM     26  C   UNL     1      34.627 -23.605 -14.505  0.00  0.00    +0.006 C 
ATOM     27  C   UNL     1      35.865 -22.970 -14.404  0.00  0.00    +0.136 C 
ATOM     28  C   UNL     1      34.536 -24.987 -14.347  0.00  0.00    +0.028 C 
ATOM     29  C   UNL     1      35.684 -25.737 -14.088  0.00  0.00    +0.140 C 
ATOM     30  C   UNL     1      37.013 -23.720 -14.145  0.00  0.00    +0.032 C 
ATOM     31  C   UNL     1      36.923 -25.102 -13.986  0.00  0.00    +0.032 C 
ENDBRANCH  23  26
ENDBRANCH  18  23
ENDBRANCH   1  18
TORSDOF 6
ENDMDL
MODEL 6
REMARK VINA RESULT:     -11.0      4.916      9.626
REMARK  Name = 24832041
REMARK  6 active torsions:
REMARK  status: ('A' for Active; 'I' for Inactive)
REMARK    1  A    between atoms: C_1  and  C_18
REMARK    2  A    between atoms: C_4  and  C_7
REMARK    3  A    between atoms: C_10  and  C_15
REMARK    4  A    between atoms: C_18  and  N_19
REMARK    5  A    between atoms: C_18  and  C_23
REMARK    6  A    between atoms: C_23  and  C_26
REMARK                            x       y       z     vdW  Elec       q    Type
REMARK                         _______ _______ _______ _____ _____    ______ ____
ROOT
ATOM      1  C   UNL     1      32.800 -21.926 -17.772  0.00  0.00    -0.042 C 
ATOM      2  C   UNL     1      31.912 -21.159 -18.524  0.00  0.00    -0.006 C 
ATOM      3  C   UNL     1      34.173 -21.818 -17.991  0.00  0.00    -0.006 C 
ATOM      4  C   UNL     1      33.769 -20.175 -19.717  0.00  0.00    -0.000 C 
ATOM      5  C   UNL     1      32.395 -20.283 -19.496  0.00  0.00    -0.000 C 
ATOM      6  C   UNL     1      34.658 -20.943 -18.963  0.00  0.00    -0.000 C 
ENDROOT
BRANCH   4   7
ATOM      7  C   UNL     1      34.270 -19.267 -20.724  0.00  0.00    +0.000 C 
ATOM      8  C   UNL     1      33.475 -18.934 -21.821  0.00  0.00    +0.005 C 
ATOM      9  C   UNL     1      35.549 -18.725 -20.600  0.00  0.00    +0.000 C 
ATOM     10  C   UNL     1      33.958 -18.058 -22.793  0.00  0.00    +0.053 C 
ATOM     11  C   UNL     1      36.032 -17.849 -21.572  0.00  0.00    +0.000 C 
ATOM     12  C   UNL     1      35.238 -17.515 -22.668  0.00  0.00    +0.005 C 
BRANCH  10  15
ATOM     13  O   UNL     1      33.395 -16.728 -24.654  0.00  0.00    -0.270 OA
ATOM     14  N   UNL     1      32.032 -18.519 -24.212  0.00  0.00    -0.325 N 
ATOM     15  C   UNL     1      33.129 -17.708 -23.935  0.00  0.00    +0.243 C 
ATOM     16  H   UNL     1      31.448 -18.313 -24.977  0.00  0.00    +0.145 HD
ATOM     17  H   UNL     1      31.841 -19.299 -23.643  0.00  0.00    +0.145 HD
ENDBRANCH  10  15
ENDBRANCH   4   7
BRANCH   1  18
ATOM     18  C   UNL     1      32.284 -22.861 -16.732  0.00  0.00    -0.038 C 
BRANCH  18  19
ATOM     19  N   UNL     1      32.207 -24.253 -17.226  0.00  0.00    +0.384 N 
ATOM     20  H   UNL     1      32.783 -24.349 -18.063  0.00  0.00    -0.089 HD
ATOM     21  H   UNL     1      31.238 -24.480 -17.453  0.00  0.00    -0.089 HD
ATOM     22  H   UNL     1      32.546 -24.889 -16.506  0.00  0.00    -0.089 HD
ENDBRANCH  18  19
BRANCH  18  23
ATOM     23  C   UNL     1      30.887 -22.476 -16.162  0.00  0.00    +0.011 C 
BRANCH  23  26
ATOM     24  F   UNL     1      32.589 -22.736 -13.908  0.00  0.00    -0.205 F 
ATOM     25  F   UNL     1      27.757 -25.289 -13.684  0.00  0.00    -0.204 F 
ATOM     26  C   UNL     1      30.516 -23.274 -14.933  0.00  0.00    +0.006 C 
ATOM     27  C   UNL     1      31.403 -23.359 -13.860  0.00  0.00    +0.136 C 
ATOM     28  C   UNL     1      29.284 -23.925 -14.875  0.00  0.00    +0.028 C 
ATOM     29  C   UNL     1      28.939 -24.663 -13.742  0.00  0.00    +0.140 C 
ATOM     30  C   UNL     1      31.057 -24.096 -12.727  0.00  0.00    +0.032 C 
ATOM     31  C   UNL     1      29.826 -24.748 -12.667  0.00  0.00    +0.032 C 
ENDBRANCH  23  26
ENDBRANCH  18  23
ENDBRANCH   1  18
TORSDOF 6
ENDMDL
MODEL 7
REMARK VINA RESULT:     -10.9      4.706      9.363
REMARK  Name = 24832041
REMARK  6 active torsions:
REMARK  status: ('A' for Active; 'I' for Inactive)
REMARK    1  A    between atoms: C_1  and  C_18
REMARK    2  A    between atoms: C_4  and  C_7
REMARK    3  A    between atoms: C_10  and  C_15
REMARK    4  A    between atoms: C_18  and  N_19
REMARK    5  A    between atoms: C_18  and  C_23
REMARK    6  A    between atoms: C_23  and  C_26
REMARK                            x       y       z     vdW  Elec       q    Type
REMARK                         _______ _______ _______ _____ _____    ______ ____
ROOT
ATOM      1  C   UNL     1      33.697 -21.733 -17.927  0.00  0.00    -0.042 C 
ATOM      2  C   UNL     1      34.936 -21.291 -18.388  0.00  0.00    -0.006 C 
ATOM      3  C   UNL     1      32.525 -21.270 -18.526  0.00  0.00    -0.006 C 
ATOM      4  C   UNL     1      33.834 -19.923 -20.046  0.00  0.00    -0.000 C 
ATOM      5  C   UNL     1      35.006 -20.387 -19.447  0.00  0.00    -0.000 C 
ATOM      6  C   UNL     1      32.593 -20.365 -19.585  0.00  0.00    -0.000 C 
ENDROOT
BRANCH   4   7
ATOM      7  C   UNL     1      33.906 -18.986 -21.145  0.00  0.00    +0.000 C 
ATOM      8  C   UNL     1      33.929 -17.614 -20.891  0.00  0.00    +0.005 C 
ATOM      9  C   UNL     1      33.952 -19.452 -22.458  0.00  0.00    +0.000 C 
ATOM     10  C   UNL     1      33.998 -16.709 -21.951  0.00  0.00    +0.053 C 
ATOM     11  C   UNL     1      34.021 -18.548 -23.518  0.00  0.00    +0.000 C 
ATOM     12  C   UNL     1      34.044 -17.176 -23.265  0.00  0.00    +0.005 C 
BRANCH  10  15
ATOM     13  O   UNL     1      34.321 -14.462 -22.576  0.00  0.00    -0.270 OA
ATOM     14  N   UNL     1      33.689 -14.851 -20.407  0.00  0.00    -0.325 N 
ATOM     15  C   UNL     1      34.025 -15.279 -21.687  0.00  0.00    +0.243 C 
ATOM     16  H   UNL     1      33.696 -13.890 -20.191  0.00  0.00    +0.145 HD
ATOM     17  H   UNL     1      33.443 -15.508 -19.715  0.00  0.00    +0.145 HD
ENDBRANCH  10  15
ENDBRANCH   4   7
BRANCH   1  18
ATOM     18  C   UNL     1      33.622 -22.701 -16.795  0.00  0.00    -0.038 C 
BRANCH  18  19
ATOM     19  N   UNL     1      32.238 -23.161 -16.550  0.00  0.00    +0.384 N 
ATOM     20  H   UNL     1      31.582 -22.518 -16.993  0.00  0.00    -0.089 HD
ATOM     21  H   UNL     1      32.062 -23.187 -15.545  0.00  0.00    -0.089 HD
ATOM     22  H   UNL     1      32.115 -24.094 -16.941  0.00  0.00    -0.089 HD
ENDBRANCH  18  19
BRANCH  18  23
ATOM     23  C   UNL     1      34.194 -22.160 -15.453  0.00  0.00    +0.011 C 
BRANCH  23  26
ATOM     24  F   UNL     1      33.215 -24.197 -13.739  0.00  0.00    -0.205 F 
ATOM     25  F   UNL     1      38.629 -23.959 -14.480  0.00  0.00    -0.204 F 
ATOM     26  C   UNL     1      35.091 -23.156 -14.755  0.00  0.00    +0.006 C 
ATOM     27  C   UNL     1      34.541 -24.133 -13.925  0.00  0.00    +0.136 C 
ATOM     28  C   UNL     1      36.472 -23.097 -14.943  0.00  0.00    +0.028 C 
ATOM     29  C   UNL     1      37.303 -24.015 -14.301  0.00  0.00    +0.140 C 
ATOM     30  C   UNL     1      35.372 -25.051 -13.283  0.00  0.00    +0.032 C 
ATOM     31  C   UNL     1      36.752 -24.993 -13.471  0.00  0.00    +0.032 C 
ENDBRANCH  23  26
ENDBRANCH  18  23
ENDBRANCH   1  18
TORSDOF 6
ENDMDL
MODEL 8
REMARK VINA RESULT:     -10.9      4.493      9.278
REMARK  Name = 24832041
REMARK  6 active torsions:
REMARK  status: ('A' for Active; 'I' for Inactive)
REMARK    1  A    between atoms: C_1  and  C_18
REMARK    2  A    between atoms: C_4  and  C_7
REMARK    3  A    between atoms: C_10  and  C_15
REMARK    4  A    between atoms: C_18  and  N_19
REMARK    5  A    between atoms: C_18  and  C_23
REMARK    6  A    between atoms: C_23  and  C_26
REMARK                            x       y       z     vdW  Elec       q    Type
REMARK                         _______ _______ _______ _____ _____    ______ ____
ROOT
ATOM      1  C   UNL     1      33.469 -21.818 -17.805  0.00  0.00    -0.042 C 
ATOM      2  C   UNL     1      32.341 -21.303 -18.441  0.00  0.00    -0.006 C 
ATOM      3  C   UNL     1      34.743 -21.433 -18.224  0.00  0.00    -0.006 C 
ATOM      4  C   UNL     1      33.758 -20.018 -19.918  0.00  0.00    -0.000 C 
ATOM      5  C   UNL     1      32.484 -20.403 -19.498  0.00  0.00    -0.000 C 
ATOM      6  C   UNL     1      34.887 -20.534 -19.281  0.00  0.00    -0.000 C 
ENDROOT
BRANCH   4   7
ATOM      7  C   UNL     1      33.907 -19.086 -21.012  0.00  0.00    +0.000 C 
ATOM      8  C   UNL     1      33.858 -17.712 -20.770  0.00  0.00    +0.005 C 
ATOM      9  C   UNL     1      34.099 -19.558 -22.310  0.00  0.00    +0.000 C 
ATOM     10  C   UNL     1      34.002 -16.812 -21.826  0.00  0.00    +0.053 C 
ATOM     11  C   UNL     1      34.242 -18.658 -23.366  0.00  0.00    +0.000 C 
ATOM     12  C   UNL     1      34.194 -17.285 -23.125  0.00  0.00    +0.005 C 
BRANCH  10  15
ATOM     13  O   UNL     1      33.844 -14.928 -20.421  0.00  0.00    -0.270 OA
ATOM     14  N   UNL     1      34.053 -14.527 -22.669  0.00  0.00    -0.325 N 
ATOM     15  C   UNL     1      33.954 -15.381 -21.574  0.00  0.00    +0.243 C 
ATOM     16  H   UNL     1      34.023 -13.552 -22.537  0.00  0.00    +0.145 HD
ATOM     17  H   UNL     1      34.153 -14.898 -23.575  0.00  0.00    +0.145 HD
ENDBRANCH  10  15
ENDBRANCH   4   7
BRANCH   1  18
ATOM     18  C   UNL     1      33.316 -22.778 -16.675  0.00  0.00    -0.038 C 
BRANCH  18  19
ATOM     19  N   UNL     1      31.897 -23.095 -16.404  0.00  0.00    +0.384 N 
ATOM     20  H   UNL     1      31.336 -22.248 -16.497  0.00  0.00    -0.089 HD
ATOM     21  H   UNL     1      31.806 -23.461 -15.456  0.00  0.00    -0.089 HD
ATOM     22  H   UNL     1      31.571 -23.793 -17.071  0.00  0.00    -0.089 HD
ENDBRANCH  18  19
BRANCH  18  23
ATOM     23  C   UNL     1      33.965 -22.305 -15.341  0.00  0.00    +0.011 C 
BRANCH  23  26
ATOM     24  F   UNL     1      36.677 -21.482 -15.222  0.00  0.00    -0.205 F 
ATOM     25  F   UNL     1      35.567 -26.615 -13.694  0.00  0.00    -0.204 F 
ATOM     26  C   UNL     1      35.086 -23.211 -14.882  0.00  0.00    +0.006 C 
ATOM     27  C   UNL     1      36.397 -22.738 -14.848  0.00  0.00    +0.136 C 
ATOM     28  C   UNL     1      34.804 -24.520 -14.492  0.00  0.00    +0.028 C 
ATOM     29  C   UNL     1      35.836 -25.358 -14.068  0.00  0.00    +0.140 C 
ATOM     30  C   UNL     1      37.429 -23.577 -14.425  0.00  0.00    +0.032 C 
ATOM     31  C   UNL     1      37.149 -24.886 -14.034  0.00  0.00    +0.032 C 
ENDBRANCH  23  26
ENDBRANCH  18  23
ENDBRANCH   1  18
TORSDOF 6
ENDMDL
MODEL 9
REMARK VINA RESULT:     -10.7      4.619      9.447
REMARK  Name = 24832041
REMARK  6 active torsions:
REMARK  status: ('A' for Active; 'I' for Inactive)
REMARK    1  A    between atoms: C_1  and  C_18
REMARK    2  A    between atoms: C_4  and  C_7
REMARK    3  A    between atoms: C_10  and  C_15
REMARK    4  A    between atoms: C_18  and  N_19
REMARK    5  A    between atoms: C_18  and  C_23
REMARK    6  A    between atoms: C_23  and  C_26
REMARK                            x       y       z     vdW  Elec       q    Type
REMARK                         _______ _______ _______ _____ _____    ______ ____
ROOT
ATOM      1  C   UNL     1      32.914 -21.586 -18.198  0.00  0.00    -0.042 C 
ATOM      2  C   UNL     1      31.870 -20.902 -18.819  0.00  0.00    -0.006 C 
ATOM      3  C   UNL     1      34.232 -21.348 -18.585  0.00  0.00    -0.006 C 
ATOM      4  C   UNL     1      33.463 -19.741 -20.218  0.00  0.00    -0.000 C 
ATOM      5  C   UNL     1      32.144 -19.979 -19.829  0.00  0.00    -0.000 C 
ATOM      6  C   UNL     1      34.507 -20.426 -19.595  0.00  0.00    -0.000 C 
ENDROOT
BRANCH   4   7
ATOM      7  C   UNL     1      33.746 -18.784 -21.263  0.00  0.00    +0.000 C 
ATOM      8  C   UNL     1      33.692 -17.417 -20.991  0.00  0.00    +0.005 C 
ATOM      9  C   UNL     1      34.074 -19.228 -22.544  0.00  0.00    +0.000 C 
ATOM     10  C   UNL     1      33.965 -16.493 -22.001  0.00  0.00    +0.053 C 
ATOM     11  C   UNL     1      34.348 -18.304 -23.553  0.00  0.00    +0.000 C 
ATOM     12  C   UNL     1      34.294 -16.937 -23.282  0.00  0.00    +0.005 C 
BRANCH  10  15
ATOM     13  O   UNL     1      33.836 -14.640 -20.553  0.00  0.00    -0.270 OA
ATOM     14  N   UNL     1      33.964 -14.191 -22.797  0.00  0.00    -0.325 N 
ATOM     15  C   UNL     1      33.911 -15.068 -21.718  0.00  0.00    +0.243 C 
ATOM     16  H   UNL     1      33.929 -13.219 -22.645  0.00  0.00    +0.145 HD
ATOM     17  H   UNL     1      34.037 -14.542 -23.714  0.00  0.00    +0.145 HD
ENDBRANCH  10  15
ENDBRANCH   4   7
BRANCH   1  18
ATOM     18  C   UNL     1      32.622 -22.572 -17.118  0.00  0.00    -0.038 C 
BRANCH  18  19
ATOM     19  N   UNL     1      32.603 -23.961 -17.625  0.00  0.00    +0.384 N 
ATOM     20  H   UNL     1      33.535 -24.367 -17.539  0.00  0.00    -0.089 HD
ATOM     21  H   UNL     1      32.321 -23.961 -18.605  0.00  0.00    -0.089 HD
ATOM     22  H   UNL     1      31.941 -24.513 -17.081  0.00  0.00    -0.089 HD
ENDBRANCH  18  19
BRANCH  18  23
ATOM     23  C   UNL     1      31.283 -22.318 -16.365  0.00  0.00    +0.011 C 
BRANCH  23  26
ATOM     24  F   UNL     1      33.275 -22.480 -14.353  0.00  0.00    -0.205 F 
ATOM     25  F   UNL     1      28.734 -25.434 -13.600  0.00  0.00    -0.204 F 
ATOM     26  C   UNL     1      31.139 -23.169 -15.124  0.00  0.00    +0.006 C 
ATOM     27  C   UNL     1      32.160 -23.201 -14.175  0.00  0.00    +0.136 C 
ATOM     28  C   UNL     1      29.981 -23.922 -14.931  0.00  0.00    +0.028 C 
ATOM     29  C   UNL     1      29.845 -24.710 -13.787  0.00  0.00    +0.140 C 
ATOM     30  C   UNL     1      32.023 -23.988 -13.031  0.00  0.00    +0.032 C 
ATOM     31  C   UNL     1      30.866 -24.742 -12.836  0.00  0.00    +0.032 C 
ENDBRANCH  23  26
ENDBRANCH  18  23
ENDBRANCH   1  18
TORSDOF 6
ENDMDL
