MODEL 1
REMARK VINA RESULT:     -11.7      0.000      0.000
REMARK  Name = 4261
REMARK  8 active torsions:
REMARK  status: ('A' for Active; 'I' for Inactive)
REMARK    1  A    between atoms: C_1  and  C_20
REMARK    2  A    between atoms: C_2  and  C_9
REMARK    3  A    between atoms: N_8  and  C_11
REMARK    4  A    between atoms: C_12  and  N_17
REMARK    5  A    between atoms: C_20  and  N_22
REMARK    6  A    between atoms: C_23  and  O_25
REMARK    7  A    between atoms: O_25  and  C_26
REMARK    8  A    between atoms: C_26  and  C_28
REMARK                            x       y       z     vdW  Elec       q    Type
REMARK                         _______ _______ _______ _____ _____    ______ ____
ROOT
ATOM      1  C   UNL     1      34.389 -19.902 -19.920  0.00  0.00    -0.002 C 
ATOM      2  C   UNL     1      33.129 -21.722 -18.237  0.00  0.00    +0.054 C 
ATOM      3  C   UNL     1      35.155 -20.757 -19.135  0.00  0.00    -0.002 C 
ATOM      4  C   UNL     1      33.000 -19.948 -19.871  0.00  0.00    -0.002 C 
ATOM      5  C   UNL     1      34.523 -21.670 -18.292  0.00  0.00    +0.004 C 
ATOM      6  C   UNL     1      32.368 -20.861 -19.028  0.00  0.00    +0.004 C 
ENDROOT
BRANCH   2   9
ATOM      7  O   UNL     1      32.677 -23.887 -17.517  0.00  0.00    -0.270 OA
ATOM      8  N   UNL     1      31.656 -22.119 -16.358  0.00  0.00    -0.279 N 
ATOM      9  C   UNL     1      32.471 -22.673 -17.356  0.00  0.00    +0.250 C 
ATOM     10  H   UNL     1      31.590 -21.137 -16.356  0.00  0.00    +0.155 HD
BRANCH   8  11
ATOM     11  C   UNL     1      30.918 -22.788 -15.352  0.00  0.00    +0.064 C 
ATOM     12  C   UNL     1      31.527 -23.156 -14.163  0.00  0.00    +0.055 C 
ATOM     13  C   UNL     1      29.580 -23.061 -15.590  0.00  0.00    +0.016 C 
ATOM     14  C   UNL     1      30.778 -23.814 -13.187  0.00  0.00    +0.015 C 
ATOM     15  C   UNL     1      28.832 -23.719 -14.614  0.00  0.00    +0.001 C 
ATOM     16  C   UNL     1      29.431 -24.096 -13.412  0.00  0.00    +0.001 C 
BRANCH  12  17
ATOM     17  N   UNL     1      32.890 -22.880 -13.912  0.00  0.00    -0.356 N 
ATOM     18  H   UNL     1      33.359 -22.199 -14.445  0.00  0.00    +0.142 HD
ATOM     19  H   UNL     1      33.369 -23.369 -13.206  0.00  0.00    +0.142 HD
ENDBRANCH  12  17
ENDBRANCH   8  11
ENDBRANCH   2   9
BRANCH   1  20
ATOM     20  C   UNL     1      35.069 -18.920 -20.829  0.00  0.00    +0.119 C 
BRANCH  20  22
ATOM     21  O   UNL     1      34.327 -16.923 -22.803  0.00  0.00    -0.226 OA
ATOM     22  N   UNL     1      34.621 -17.566 -20.594  0.00  0.00    -0.267 N 
ATOM     23  C   UNL     1      34.289 -16.685 -21.601  0.00  0.00    +0.402 C 
ATOM     24  H   UNL     1      34.549 -17.257 -19.662  0.00  0.00    +0.153 HD
BRANCH  23  25
ATOM     25  O   UNL     1      33.905 -15.491 -21.058  0.00  0.00    -0.430 OA
BRANCH  25  26
ATOM     26  C   UNL     1      33.702 -14.419 -21.987  0.00  0.00    +0.238 C 
BRANCH  26  28
ATOM     27  N   UNL     1      31.516 -11.373 -21.610  0.00  0.00    -0.243 NA
ATOM     28  C   UNL     1      32.707 -13.454 -21.412  0.00  0.00    +0.040 C 
ATOM     29  C   UNL     1      32.080 -13.724 -20.208  0.00  0.00    +0.002 C 
ATOM     30  C   UNL     1      32.401 -12.284 -22.072  0.00  0.00    +0.098 C 
ATOM     31  C   UNL     1      31.163 -12.812 -19.700  0.00  0.00    +0.020 C 
ATOM     32  C   UNL     1      30.918 -11.662 -20.432  0.00  0.00    +0.099 C 
ENDBRANCH  26  28
ENDBRANCH  25  26
ENDBRANCH  23  25
ENDBRANCH  20  22
ENDBRANCH   1  20
TORSDOF 8
ENDMDL
MODEL 2
REMARK VINA RESULT:     -11.4      1.576      2.164
REMARK  Name = 4261
REMARK  8 active torsions:
REMARK  status: ('A' for Active; 'I' for Inactive)
REMARK    1  A    between atoms: C_1  and  C_20
REMARK    2  A    between atoms: C_2  and  C_9
REMARK    3  A    between atoms: N_8  and  C_11
REMARK    4  A    between atoms: C_12  and  N_17
REMARK    5  A    between atoms: C_20  and  N_22
REMARK    6  A    between atoms: C_23  and  O_25
REMARK    7  A    between atoms: O_25  and  C_26
REMARK    8  A    between atoms: C_26  and  C_28
REMARK                            x       y       z     vdW  Elec       q    Type
REMARK                         _______ _______ _______ _____ _____    ______ ____
ROOT
ATOM      1  C   UNL     1      34.496 -19.954 -19.852  0.00  0.00    -0.002 C 
ATOM      2  C   UNL     1      33.161 -21.757 -18.209  0.00  0.00    +0.054 C 
ATOM      3  C   UNL     1      33.105 -19.984 -19.850  0.00  0.00    -0.002 C 
ATOM      4  C   UNL     1      35.225 -20.816 -19.041  0.00  0.00    -0.002 C 
ATOM      5  C   UNL     1      32.436 -20.888 -19.026  0.00  0.00    +0.004 C 
ATOM      6  C   UNL     1      34.556 -21.720 -18.217  0.00  0.00    +0.004 C 
ENDROOT
BRANCH   2   9
ATOM      7  O   UNL     1      32.604 -23.917 -17.552  0.00  0.00    -0.270 OA
ATOM      8  N   UNL     1      31.687 -22.138 -16.327  0.00  0.00    -0.279 N 
ATOM      9  C   UNL     1      32.463 -22.700 -17.352  0.00  0.00    +0.250 C 
ATOM     10  H   UNL     1      31.672 -21.154 -16.294  0.00  0.00    +0.155 HD
BRANCH   8  11
ATOM     11  C   UNL     1      30.925 -22.800 -15.335  0.00  0.00    +0.064 C 
ATOM     12  C   UNL     1      31.508 -23.168 -14.133  0.00  0.00    +0.055 C 
ATOM     13  C   UNL     1      29.590 -23.065 -15.599  0.00  0.00    +0.016 C 
ATOM     14  C   UNL     1      30.736 -23.819 -13.170  0.00  0.00    +0.015 C 
ATOM     15  C   UNL     1      28.819 -23.716 -14.636  0.00  0.00    +0.001 C 
ATOM     16  C   UNL     1      29.392 -24.093 -13.422  0.00  0.00    +0.001 C 
BRANCH  12  17
ATOM     17  N   UNL     1      32.867 -22.900 -13.856  0.00  0.00    -0.356 N 
ATOM     18  H   UNL     1      33.558 -23.556 -14.103  0.00  0.00    +0.142 HD
ATOM     19  H   UNL     1      33.123 -22.057 -13.416  0.00  0.00    +0.142 HD
ENDBRANCH  12  17
ENDBRANCH   8  11
ENDBRANCH   2   9
BRANCH   1  20
ATOM     20  C   UNL     1      35.216 -18.980 -20.738  0.00  0.00    +0.119 C 
BRANCH  20  22
ATOM     21  O   UNL     1      34.211 -19.597 -23.393  0.00  0.00    -0.226 OA
ATOM     22  N   UNL     1      34.301 -18.202 -21.542  0.00  0.00    -0.267 N 
ATOM     23  C   UNL     1      33.878 -18.577 -22.799  0.00  0.00    +0.402 C 
ATOM     24  H   UNL     1      33.961 -17.356 -21.170  0.00  0.00    +0.153 HD
BRANCH  23  25
ATOM     25  O   UNL     1      33.021 -17.635 -23.296  0.00  0.00    -0.430 OA
BRANCH  25  26
ATOM     26  C   UNL     1      33.552 -16.785 -24.319  0.00  0.00    +0.238 C 
BRANCH  26  28
ATOM     27  N   UNL     1      32.518 -13.164 -24.460  0.00  0.00    -0.243 NA
ATOM     28  C   UNL     1      33.357 -15.353 -23.916  0.00  0.00    +0.040 C 
ATOM     29  C   UNL     1      33.808 -14.899 -22.689  0.00  0.00    +0.002 C 
ATOM     30  C   UNL     1      32.725 -14.466 -24.761  0.00  0.00    +0.098 C 
ATOM     31  C   UNL     1      33.613 -13.568 -22.343  0.00  0.00    +0.020 C 
ATOM     32  C   UNL     1      32.968 -12.748 -23.255  0.00  0.00    +0.099 C 
ENDBRANCH  26  28
ENDBRANCH  25  26
ENDBRANCH  23  25
ENDBRANCH  20  22
ENDBRANCH   1  20
TORSDOF 8
ENDMDL
MODEL 3
REMARK VINA RESULT:     -11.4      1.695      2.361
REMARK  Name = 4261
REMARK  8 active torsions:
REMARK  status: ('A' for Active; 'I' for Inactive)
REMARK    1  A    between atoms: C_1  and  C_20
REMARK    2  A    between atoms: C_2  and  C_9
REMARK    3  A    between atoms: N_8  and  C_11
REMARK    4  A    between atoms: C_12  and  N_17
REMARK    5  A    between atoms: C_20  and  N_22
REMARK    6  A    between atoms: C_23  and  O_25
REMARK    7  A    between atoms: O_25  and  C_26
REMARK    8  A    between atoms: C_26  and  C_28
REMARK                            x       y       z     vdW  Elec       q    Type
REMARK                         _______ _______ _______ _____ _____    ______ ____
ROOT
ATOM      1  C   UNL     1      34.415 -19.973 -19.793  0.00  0.00    -0.002 C 
ATOM      2  C   UNL     1      33.142 -21.823 -18.153  0.00  0.00    +0.054 C 
ATOM      3  C   UNL     1      35.173 -20.813 -18.985  0.00  0.00    -0.002 C 
ATOM      4  C   UNL     1      33.027 -20.048 -19.788  0.00  0.00    -0.002 C 
ATOM      5  C   UNL     1      34.535 -21.741 -18.163  0.00  0.00    +0.004 C 
ATOM      6  C   UNL     1      32.388 -20.976 -18.967  0.00  0.00    +0.004 C 
ENDROOT
BRANCH   2   9
ATOM      7  O   UNL     1      32.521 -23.993 -17.594  0.00  0.00    -0.270 OA
ATOM      8  N   UNL     1      31.845 -22.265 -16.158  0.00  0.00    -0.279 N 
ATOM      9  C   UNL     1      32.476 -22.789 -17.295  0.00  0.00    +0.250 C 
ATOM     10  H   UNL     1      31.894 -21.287 -16.054  0.00  0.00    +0.155 HD
BRANCH   8  11
ATOM     11  C   UNL     1      31.146 -22.957 -15.139  0.00  0.00    +0.064 C 
ATOM     12  C   UNL     1      29.762 -23.009 -15.150  0.00  0.00    +0.055 C 
ATOM     13  C   UNL     1      31.882 -23.577 -14.141  0.00  0.00    +0.016 C 
ATOM     14  C   UNL     1      29.096 -23.697 -14.135  0.00  0.00    +0.015 C 
ATOM     15  C   UNL     1      31.217 -24.265 -13.128  0.00  0.00    +0.001 C 
ATOM     16  C   UNL     1      29.823 -24.325 -13.125  0.00  0.00    +0.001 C 
BRANCH  12  17
ATOM     17  N   UNL     1      29.005 -22.381 -16.164  0.00  0.00    -0.356 N 
ATOM     18  H   UNL     1      28.321 -22.892 -16.654  0.00  0.00    +0.142 HD
ATOM     19  H   UNL     1      29.161 -21.434 -16.380  0.00  0.00    +0.142 HD
ENDBRANCH  12  17
ENDBRANCH   8  11
ENDBRANCH   2   9
BRANCH   1  20
ATOM     20  C   UNL     1      35.102 -18.975 -20.679  0.00  0.00    +0.119 C 
BRANCH  20  22
ATOM     21  O   UNL     1      34.167 -19.611 -23.354  0.00  0.00    -0.226 OA
ATOM     22  N   UNL     1      34.162 -18.233 -21.488  0.00  0.00    -0.267 N 
ATOM     23  C   UNL     1      33.776 -18.615 -22.755  0.00  0.00    +0.402 C 
ATOM     24  H   UNL     1      33.776 -17.409 -21.112  0.00  0.00    +0.153 HD
BRANCH  23  25
ATOM     25  O   UNL     1      32.881 -17.711 -23.255  0.00  0.00    -0.430 OA
BRANCH  25  26
ATOM     26  C   UNL     1      33.355 -16.892 -24.330  0.00  0.00    +0.238 C 
BRANCH  26  28
ATOM     27  N   UNL     1      32.469 -13.232 -24.466  0.00  0.00    -0.243 NA
ATOM     28  C   UNL     1      33.239 -15.449 -23.935  0.00  0.00    +0.040 C 
ATOM     29  C   UNL     1      33.764 -15.003 -22.735  0.00  0.00    +0.002 C 
ATOM     30  C   UNL     1      32.608 -14.544 -24.761  0.00  0.00    +0.098 C 
ATOM     31  C   UNL     1      33.641 -13.661 -22.396  0.00  0.00    +0.020 C 
ATOM     32  C   UNL     1      32.991 -12.823 -23.287  0.00  0.00    +0.099 C 
ENDBRANCH  26  28
ENDBRANCH  25  26
ENDBRANCH  23  25
ENDBRANCH  20  22
ENDBRANCH   1  20
TORSDOF 8
ENDMDL
MODEL 4
REMARK VINA RESULT:     -11.0      3.120      9.871
REMARK  Name = 4261
REMARK  8 active torsions:
REMARK  status: ('A' for Active; 'I' for Inactive)
REMARK    1  A    between atoms: C_1  and  C_20
REMARK    2  A    between atoms: C_2  and  C_9
REMARK    3  A    between atoms: N_8  and  C_11
REMARK    4  A    between atoms: C_12  and  N_17
REMARK    5  A    between atoms: C_20  and  N_22
REMARK    6  A    between atoms: C_23  and  O_25
REMARK    7  A    between atoms: O_25  and  C_26
REMARK    8  A    between atoms: C_26  and  C_28
REMARK                            x       y       z     vdW  Elec       q    Type
REMARK                         _______ _______ _______ _____ _____    ______ ____
ROOT
ATOM      1  C   UNL     1      33.763 -22.614 -16.439  0.00  0.00    -0.002 C 
ATOM      2  C   UNL     1      33.120 -21.071 -18.661  0.00  0.00    +0.054 C 
ATOM      3  C   UNL     1      32.434 -22.491 -16.830  0.00  0.00    -0.002 C 
ATOM      4  C   UNL     1      34.773 -21.973 -17.147  0.00  0.00    -0.002 C 
ATOM      5  C   UNL     1      32.112 -21.717 -17.945  0.00  0.00    +0.004 C 
ATOM      6  C   UNL     1      34.451 -21.199 -18.261  0.00  0.00    +0.004 C 
ENDROOT
BRANCH   2   9
ATOM      7  O   UNL     1      31.597 -20.179 -20.175  0.00  0.00    -0.270 OA
ATOM      8  N   UNL     1      33.858 -19.612 -20.446  0.00  0.00    -0.279 N 
ATOM      9  C   UNL     1      32.784 -20.263 -19.822  0.00  0.00    +0.250 C 
ATOM     10  H   UNL     1      34.745 -19.775 -20.051  0.00  0.00    +0.155 HD
BRANCH   8  11
ATOM     11  C   UNL     1      33.833 -18.749 -21.568  0.00  0.00    +0.064 C 
ATOM     12  C   UNL     1      34.141 -17.405 -21.426  0.00  0.00    +0.055 C 
ATOM     13  C   UNL     1      33.496 -19.284 -22.802  0.00  0.00    +0.016 C 
ATOM     14  C   UNL     1      34.110 -16.575 -22.547  0.00  0.00    +0.015 C 
ATOM     15  C   UNL     1      33.465 -18.454 -23.922  0.00  0.00    +0.001 C 
ATOM     16  C   UNL     1      33.771 -17.099 -23.794  0.00  0.00    +0.001 C 
BRANCH  12  17
ATOM     17  N   UNL     1      34.487 -16.853 -20.172  0.00  0.00    -0.356 N 
ATOM     18  H   UNL     1      33.892 -16.198 -19.743  0.00  0.00    +0.142 HD
ATOM     19  H   UNL     1      35.323 -17.124 -19.729  0.00  0.00    +0.142 HD
ENDBRANCH  12  17
ENDBRANCH   8  11
ENDBRANCH   2   9
BRANCH   1  20
ATOM     20  C   UNL     1      34.110 -23.447 -15.240  0.00  0.00    +0.119 C 
BRANCH  20  22
ATOM     21  O   UNL     1      34.118 -24.209 -12.437  0.00  0.00    -0.226 OA
ATOM     22  N   UNL     1      32.971 -23.648 -14.373  0.00  0.00    -0.267 N 
ATOM     23  C   UNL     1      33.073 -24.011 -13.048  0.00  0.00    +0.402 C 
ATOM     24  H   UNL     1      32.071 -23.518 -14.752  0.00  0.00    +0.153 HD
BRANCH  23  25
ATOM     25  O   UNL     1      31.825 -24.121 -12.503  0.00  0.00    -0.430 OA
BRANCH  25  26
ATOM     26  C   UNL     1      30.982 -22.970 -12.634  0.00  0.00    +0.238 C 
BRANCH  26  28
ATOM     27  N   UNL     1      28.197 -24.937 -14.239  0.00  0.00    -0.243 NA
ATOM     28  C   UNL     1      29.820 -23.313 -13.521  0.00  0.00    +0.040 C 
ATOM     29  C   UNL     1      29.311 -22.379 -14.406  0.00  0.00    +0.002 C 
ATOM     30  C   UNL     1      29.243 -24.563 -13.469  0.00  0.00    +0.098 C 
ATOM     31  C   UNL     1      28.236 -22.725 -15.215  0.00  0.00    +0.020 C 
ATOM     32  C   UNL     1      27.719 -24.005 -15.095  0.00  0.00    +0.099 C 
ENDBRANCH  26  28
ENDBRANCH  25  26
ENDBRANCH  23  25
ENDBRANCH  20  22
ENDBRANCH   1  20
TORSDOF 8
ENDMDL
MODEL 5
REMARK VINA RESULT:     -10.9      2.620      9.771
REMARK  Name = 4261
REMARK  8 active torsions:
REMARK  status: ('A' for Active; 'I' for Inactive)
REMARK    1  A    between atoms: C_1  and  C_20
REMARK    2  A    between atoms: C_2  and  C_9
REMARK    3  A    between atoms: N_8  and  C_11
REMARK    4  A    between atoms: C_12  and  N_17
REMARK    5  A    between atoms: C_20  and  N_22
REMARK    6  A    between atoms: C_23  and  O_25
REMARK    7  A    between atoms: O_25  and  C_26
REMARK    8  A    between atoms: C_26  and  C_28
REMARK                            x       y       z     vdW  Elec       q    Type
REMARK                         _______ _______ _______ _____ _____    ______ ____
ROOT
ATOM      1  C   UNL     1      33.232 -22.171 -17.881  0.00  0.00    -0.002 C 
ATOM      2  C   UNL     1      34.144 -20.156 -19.566  0.00  0.00    +0.054 C 
ATOM      3  C   UNL     1      34.594 -21.901 -17.956  0.00  0.00    -0.002 C 
ATOM      4  C   UNL     1      32.322 -21.444 -18.640  0.00  0.00    -0.002 C 
ATOM      5  C   UNL     1      35.051 -20.890 -18.801  0.00  0.00    +0.004 C 
ATOM      6  C   UNL     1      32.779 -20.433 -19.485  0.00  0.00    +0.004 C 
ENDROOT
BRANCH   2   9
ATOM      7  O   UNL     1      35.841 -18.878 -20.514  0.00  0.00    -0.270 OA
ATOM      8  N   UNL     1      33.637 -18.430 -21.185  0.00  0.00    -0.279 N 
ATOM      9  C   UNL     1      34.621 -19.103 -20.447  0.00  0.00    +0.250 C 
ATOM     10  H   UNL     1      32.710 -18.720 -21.025  0.00  0.00    +0.155 HD
BRANCH   8  11
ATOM     11  C   UNL     1      33.802 -17.389 -22.130  0.00  0.00    +0.064 C 
ATOM     12  C   UNL     1      33.662 -17.644 -23.485  0.00  0.00    +0.055 C 
ATOM     13  C   UNL     1      34.105 -16.119 -21.664  0.00  0.00    +0.016 C 
ATOM     14  C   UNL     1      33.829 -16.602 -24.398  0.00  0.00    +0.015 C 
ATOM     15  C   UNL     1      34.272 -15.077 -22.576  0.00  0.00    +0.001 C 
ATOM     16  C   UNL     1      34.134 -15.319 -23.943  0.00  0.00    +0.001 C 
BRANCH  12  17
ATOM     17  N   UNL     1      33.352 -18.935 -23.968  0.00  0.00    -0.356 N 
ATOM     18  H   UNL     1      32.577 -19.422 -23.606  0.00  0.00    +0.142 HD
ATOM     19  H   UNL     1      33.911 -19.347 -24.665  0.00  0.00    +0.142 HD
ENDBRANCH  12  17
ENDBRANCH   8  11
ENDBRANCH   2   9
BRANCH   1  20
ATOM     20  C   UNL     1      32.739 -23.258 -16.971  0.00  0.00    +0.119 C 
BRANCH  20  22
ATOM     21  O   UNL     1      32.917 -23.870 -14.137  0.00  0.00    -0.226 OA
ATOM     22  N   UNL     1      31.922 -22.737 -15.899  0.00  0.00    -0.267 N 
ATOM     23  C   UNL     1      32.081 -23.087 -14.576  0.00  0.00    +0.402 C 
ATOM     24  H   UNL     1      31.212 -22.094 -16.128  0.00  0.00    +0.153 HD
BRANCH  23  25
ATOM     25  O   UNL     1      31.161 -22.427 -13.811  0.00  0.00    -0.430 OA
BRANCH  25  26
ATOM     26  C   UNL     1      30.059 -23.214 -13.341  0.00  0.00    +0.238 C 
BRANCH  26  28
ATOM     27  N   UNL     1      27.282 -21.770 -15.439  0.00  0.00    -0.243 NA
ATOM     28  C   UNL     1      28.935 -23.122 -14.331  0.00  0.00    +0.040 C 
ATOM     29  C   UNL     1      28.517 -24.243 -15.027  0.00  0.00    +0.002 C 
ATOM     30  C   UNL     1      28.300 -21.921 -14.563  0.00  0.00    +0.098 C 
ATOM     31  C   UNL     1      27.473 -24.128 -15.937  0.00  0.00    +0.020 C 
ATOM     32  C   UNL     1      26.894 -22.880 -16.106  0.00  0.00    +0.099 C 
ENDBRANCH  26  28
ENDBRANCH  25  26
ENDBRANCH  23  25
ENDBRANCH  20  22
ENDBRANCH   1  20
TORSDOF 8
ENDMDL
MODEL 6
REMARK VINA RESULT:     -10.9      3.581      6.022
REMARK  Name = 4261
REMARK  8 active torsions:
REMARK  status: ('A' for Active; 'I' for Inactive)
REMARK    1  A    between atoms: C_1  and  C_20
REMARK    2  A    between atoms: C_2  and  C_9
REMARK    3  A    between atoms: N_8  and  C_11
REMARK    4  A    between atoms: C_12  and  N_17
REMARK    5  A    between atoms: C_20  and  N_22
REMARK    6  A    between atoms: C_23  and  O_25
REMARK    7  A    between atoms: O_25  and  C_26
REMARK    8  A    between atoms: C_26  and  C_28
REMARK                            x       y       z     vdW  Elec       q    Type
REMARK                         _______ _______ _______ _____ _____    ______ ____
ROOT
ATOM      1  C   UNL     1      33.379 -15.520 -23.915  0.00  0.00    -0.002 C 
ATOM      2  C   UNL     1      34.203 -17.209 -21.865  0.00  0.00    +0.054 C 
ATOM      3  C   UNL     1      33.409 -16.895 -24.125  0.00  0.00    -0.002 C 
ATOM      4  C   UNL     1      33.758 -14.982 -22.690  0.00  0.00    -0.002 C 
ATOM      5  C   UNL     1      33.821 -17.741 -23.097  0.00  0.00    +0.004 C 
ATOM      6  C   UNL     1      34.171 -15.829 -21.662  0.00  0.00    +0.004 C 
ENDROOT
BRANCH   2   9
ATOM      7  O   UNL     1      35.671 -17.819 -20.168  0.00  0.00    -0.270 OA
ATOM      8  N   UNL     1      33.806 -19.194 -20.538  0.00  0.00    -0.279 N 
ATOM      9  C   UNL     1      34.635 -18.092 -20.794  0.00  0.00    +0.250 C 
ATOM     10  H   UNL     1      33.016 -19.279 -21.120  0.00  0.00    +0.155 HD
BRANCH   8  11
ATOM     11  C   UNL     1      33.956 -20.200 -19.553  0.00  0.00    +0.064 C 
ATOM     12  C   UNL     1      32.845 -20.858 -19.049  0.00  0.00    +0.055 C 
ATOM     13  C   UNL     1      35.234 -20.503 -19.112  0.00  0.00    +0.016 C 
ATOM     14  C   UNL     1      33.018 -21.845 -18.077  0.00  0.00    +0.015 C 
ATOM     15  C   UNL     1      35.407 -21.490 -18.141  0.00  0.00    +0.001 C 
ATOM     16  C   UNL     1      34.299 -22.160 -17.624  0.00  0.00    +0.001 C 
BRANCH  12  17
ATOM     17  N   UNL     1      31.539 -20.555 -19.494  0.00  0.00    -0.356 N 
ATOM     18  H   UNL     1      31.095 -19.731 -19.189  0.00  0.00    +0.142 HD
ATOM     19  H   UNL     1      31.074 -21.167 -20.108  0.00  0.00    +0.142 HD
ENDBRANCH  12  17
ENDBRANCH   8  11
ENDBRANCH   2   9
BRANCH   1  20
ATOM     20  C   UNL     1      32.934 -14.609 -25.021  0.00  0.00    +0.119 C 
BRANCH  20  22
ATOM     21  O   UNL     1      31.877 -12.247 -26.340  0.00  0.00    -0.226 OA
ATOM     22  N   UNL     1      33.236 -13.225 -24.735  0.00  0.00    -0.267 N 
ATOM     23  C   UNL     1      32.682 -12.164 -25.419  0.00  0.00    +0.402 C 
ATOM     24  H   UNL     1      33.873 -13.029 -24.011  0.00  0.00    +0.153 HD
BRANCH  23  25
ATOM     25  O   UNL     1      33.165 -10.989 -24.916  0.00  0.00    -0.430 OA
BRANCH  25  26
ATOM     26  C   UNL     1      33.125 -10.856 -23.490  0.00  0.00    +0.238 C 
BRANCH  26  28
ATOM     27  N   UNL     1      32.011  -7.495 -22.200  0.00  0.00    -0.243 NA
ATOM     28  C   UNL     1      33.149  -9.398 -23.133  0.00  0.00    +0.040 C 
ATOM     29  C   UNL     1      34.271  -8.630 -23.390  0.00  0.00    +0.002 C 
ATOM     30  C   UNL     1      32.055  -8.802 -22.545  0.00  0.00    +0.098 C 
ATOM     31  C   UNL     1      34.264  -7.283 -23.050  0.00  0.00    +0.020 C 
ATOM     32  C   UNL     1      33.120  -6.767 -22.462  0.00  0.00    +0.099 C 
ENDBRANCH  26  28
ENDBRANCH  25  26
ENDBRANCH  23  25
ENDBRANCH  20  22
ENDBRANCH   1  20
TORSDOF 8
ENDMDL
MODEL 7
REMARK VINA RESULT:     -10.7      2.116      9.989
REMARK  Name = 4261
REMARK  8 active torsions:
REMARK  status: ('A' for Active; 'I' for Inactive)
REMARK    1  A    between atoms: C_1  and  C_20
REMARK    2  A    between atoms: C_2  and  C_9
REMARK    3  A    between atoms: N_8  and  C_11
REMARK    4  A    between atoms: C_12  and  N_17
REMARK    5  A    between atoms: C_20  and  N_22
REMARK    6  A    between atoms: C_23  and  O_25
REMARK    7  A    between atoms: O_25  and  C_26
REMARK    8  A    between atoms: C_26  and  C_28
REMARK                            x       y       z     vdW  Elec       q    Type
REMARK                         _______ _______ _______ _____ _____    ______ ____
ROOT
ATOM      1  C   UNL     1      35.121 -20.044 -19.582  0.00  0.00    -0.002 C 
ATOM      2  C   UNL     1      34.320 -18.343 -21.631  0.00  0.00    +0.054 C 
ATOM      3  C   UNL     1      36.039 -19.163 -20.144  0.00  0.00    -0.002 C 
ATOM      4  C   UNL     1      33.807 -20.083 -20.035  0.00  0.00    -0.002 C 
ATOM      5  C   UNL     1      35.637 -18.310 -21.171  0.00  0.00    +0.004 C 
ATOM      6  C   UNL     1      33.405 -19.230 -21.062  0.00  0.00    +0.004 C 
ENDROOT
BRANCH   2   9
ATOM      7  O   UNL     1      33.644 -17.935 -23.819  0.00  0.00    -0.270 OA
ATOM      8  N   UNL     1      33.801 -16.097 -22.368  0.00  0.00    -0.279 N 
ATOM      9  C   UNL     1      33.902 -17.455 -22.703  0.00  0.00    +0.250 C 
ATOM     10  H   UNL     1      34.040 -15.866 -21.442  0.00  0.00    +0.155 HD
BRANCH   8  11
ATOM     11  C   UNL     1      33.399 -15.015 -23.188  0.00  0.00    +0.064 C 
ATOM     12  C   UNL     1      33.340 -13.730 -22.672  0.00  0.00    +0.055 C 
ATOM     13  C   UNL     1      33.070 -15.277 -24.509  0.00  0.00    +0.016 C 
ATOM     14  C   UNL     1      32.941 -12.679 -23.500  0.00  0.00    +0.015 C 
ATOM     15  C   UNL     1      32.672 -14.227 -25.336  0.00  0.00    +0.001 C 
ATOM     16  C   UNL     1      32.607 -12.928 -24.831  0.00  0.00    +0.001 C 
BRANCH  12  17
ATOM     17  N   UNL     1      33.675 -13.455 -21.327  0.00  0.00    -0.356 N 
ATOM     18  H   UNL     1      34.473 -13.867 -20.926  0.00  0.00    +0.142 HD
ATOM     19  H   UNL     1      33.110 -12.852 -20.793  0.00  0.00    +0.142 HD
ENDBRANCH  12  17
ENDBRANCH   8  11
ENDBRANCH   2   9
BRANCH   1  20
ATOM     20  C   UNL     1      35.553 -20.961 -18.476  0.00  0.00    +0.119 C 
BRANCH  20  22
ATOM     21  O   UNL     1      35.400 -22.299 -15.902  0.00  0.00    -0.226 OA
ATOM     22  N   UNL     1      34.444 -21.711 -17.931  0.00  0.00    -0.267 N 
ATOM     23  C   UNL     1      34.463 -22.314 -16.693  0.00  0.00    +0.402 C 
ATOM     24  H   UNL     1      33.628 -21.795 -18.477  0.00  0.00    +0.153 HD
BRANCH  23  25
ATOM     25  O   UNL     1      33.270 -22.943 -16.468  0.00  0.00    -0.430 OA
BRANCH  25  26
ATOM     26  C   UNL     1      32.860 -23.034 -15.098  0.00  0.00    +0.238 C 
BRANCH  26  28
ATOM     27  N   UNL     1      29.315 -22.281 -16.129  0.00  0.00    -0.243 NA
ATOM     28  C   UNL     1      31.374 -22.844 -15.019  0.00  0.00    +0.040 C 
ATOM     29  C   UNL     1      30.702 -23.041 -13.825  0.00  0.00    +0.002 C 
ATOM     30  C   UNL     1      30.653 -22.470 -16.133  0.00  0.00    +0.098 C 
ATOM     31  C   UNL     1      29.326 -22.856 -13.781  0.00  0.00    +0.020 C 
ATOM     32  C   UNL     1      28.684 -22.480 -14.950  0.00  0.00    +0.099 C 
ENDBRANCH  26  28
ENDBRANCH  25  26
ENDBRANCH  23  25
ENDBRANCH  20  22
ENDBRANCH   1  20
TORSDOF 8
ENDMDL
MODEL 8
REMARK VINA RESULT:     -10.6      3.003     11.543
REMARK  Name = 4261
REMARK  8 active torsions:
REMARK  status: ('A' for Active; 'I' for Inactive)
REMARK    1  A    between atoms: C_1  and  C_20
REMARK    2  A    between atoms: C_2  and  C_9
REMARK    3  A    between atoms: N_8  and  C_11
REMARK    4  A    between atoms: C_12  and  N_17
REMARK    5  A    between atoms: C_20  and  N_22
REMARK    6  A    between atoms: C_23  and  O_25
REMARK    7  A    between atoms: O_25  and  C_26
REMARK    8  A    between atoms: C_26  and  C_28
REMARK                            x       y       z     vdW  Elec       q    Type
REMARK                         _______ _______ _______ _____ _____    ______ ____
ROOT
ATOM      1  C   UNL     1      33.163 -14.067 -22.039  0.00  0.00    -0.002 C 
ATOM      2  C   UNL     1      31.780 -11.787 -21.250  0.00  0.00    +0.054 C 
ATOM      3  C   UNL     1      33.094 -12.974 -22.895  0.00  0.00    -0.002 C 
ATOM      4  C   UNL     1      32.548 -14.032 -20.793  0.00  0.00    -0.002 C 
ATOM      5  C   UNL     1      32.401 -11.831 -22.499  0.00  0.00    +0.004 C 
ATOM      6  C   UNL     1      31.854 -12.889 -20.397  0.00  0.00    +0.004 C 
ENDROOT
BRANCH   2   9
ATOM      7  O   UNL     1      30.090 -10.713 -20.068  0.00  0.00    -0.270 OA
ATOM      8  N   UNL     1      31.540  -9.380 -21.345  0.00  0.00    -0.279 N 
ATOM      9  C   UNL     1      31.056 -10.596 -20.839  0.00  0.00    +0.250 C 
ATOM     10  H   UNL     1      32.316  -9.447 -21.947  0.00  0.00    +0.155 HD
BRANCH   8  11
ATOM     11  C   UNL     1      31.060  -8.071 -21.101  0.00  0.00    +0.064 C 
ATOM     12  C   UNL     1      31.279  -7.461 -19.877  0.00  0.00    +0.055 C 
ATOM     13  C   UNL     1      30.371  -7.424 -22.115  0.00  0.00    +0.016 C 
ATOM     14  C   UNL     1      30.795  -6.170 -19.661  0.00  0.00    +0.015 C 
ATOM     15  C   UNL     1      29.888  -6.134 -21.899  0.00  0.00    +0.001 C 
ATOM     16  C   UNL     1      30.100  -5.507 -20.671  0.00  0.00    +0.001 C 
BRANCH  12  17
ATOM     17  N   UNL     1      31.981  -8.114 -18.839  0.00  0.00    -0.356 N 
ATOM     18  H   UNL     1      32.277  -9.045 -18.956  0.00  0.00    +0.142 HD
ATOM     19  H   UNL     1      32.173  -7.637 -17.999  0.00  0.00    +0.142 HD
ENDBRANCH  12  17
ENDBRANCH   8  11
ENDBRANCH   2   9
BRANCH   1  20
ATOM     20  C   UNL     1      33.911 -15.297 -22.463  0.00  0.00    +0.119 C 
BRANCH  20  22
ATOM     21  O   UNL     1      34.924 -18.018 -22.546  0.00  0.00    -0.226 OA
ATOM     22  N   UNL     1      34.188 -16.173 -21.348  0.00  0.00    -0.267 N 
ATOM     23  C   UNL     1      34.670 -17.457 -21.485  0.00  0.00    +0.402 C 
ATOM     24  H   UNL     1      34.022 -15.833 -20.439  0.00  0.00    +0.153 HD
BRANCH  23  25
ATOM     25  O   UNL     1      34.827 -18.024 -20.252  0.00  0.00    -0.430 OA
BRANCH  25  26
ATOM     26  C   UNL     1      35.384 -19.344 -20.237  0.00  0.00    +0.238 C 
BRANCH  26  28
ATOM     27  N   UNL     1      34.112 -22.117 -18.024  0.00  0.00    -0.243 NA
ATOM     28  C   UNL     1      34.436 -20.267 -19.529  0.00  0.00    +0.040 C 
ATOM     29  C   UNL     1      33.069 -20.144 -19.707  0.00  0.00    +0.002 C 
ATOM     30  C   UNL     1      34.910 -21.253 -18.691  0.00  0.00    +0.098 C 
ATOM     31  C   UNL     1      32.216 -21.014 -19.039  0.00  0.00    +0.020 C 
ATOM     32  C   UNL     1      32.781 -21.974 -18.216  0.00  0.00    +0.099 C 
ENDBRANCH  26  28
ENDBRANCH  25  26
ENDBRANCH  23  25
ENDBRANCH  20  22
ENDBRANCH   1  20
TORSDOF 8
ENDMDL
MODEL 9
REMARK VINA RESULT:     -10.5      2.127     10.157
REMARK  Name = 4261
REMARK  8 active torsions:
REMARK  status: ('A' for Active; 'I' for Inactive)
REMARK    1  A    between atoms: C_1  and  C_20
REMARK    2  A    between atoms: C_2  and  C_9
REMARK    3  A    between atoms: N_8  and  C_11
REMARK    4  A    between atoms: C_12  and  N_17
REMARK    5  A    between atoms: C_20  and  N_22
REMARK    6  A    between atoms: C_23  and  O_25
REMARK    7  A    between atoms: O_25  and  C_26
REMARK    8  A    between atoms: C_26  and  C_28
REMARK                            x       y       z     vdW  Elec       q    Type
REMARK                         _______ _______ _______ _____ _____    ______ ____
ROOT
ATOM      1  C   UNL     1      34.724 -20.179 -19.641  0.00  0.00    -0.002 C 
ATOM      2  C   UNL     1      34.404 -18.152 -21.518  0.00  0.00    +0.054 C 
ATOM      3  C   UNL     1      35.809 -19.379 -19.981  0.00  0.00    -0.002 C 
ATOM      4  C   UNL     1      33.481 -19.976 -20.230  0.00  0.00    -0.002 C 
ATOM      5  C   UNL     1      35.648 -18.362 -20.922  0.00  0.00    +0.004 C 
ATOM      6  C   UNL     1      33.320 -18.959 -21.171  0.00  0.00    +0.004 C 
ENDROOT
BRANCH   2   9
ATOM      7  O   UNL     1      34.603 -17.292 -23.670  0.00  0.00    -0.270 OA
ATOM      8  N   UNL     1      33.640 -15.914 -22.033  0.00  0.00    -0.279 N 
ATOM      9  C   UNL     1      34.238 -17.093 -22.500  0.00  0.00    +0.250 C 
ATOM     10  H   UNL     1      33.404 -15.904 -21.077  0.00  0.00    +0.155 HD
BRANCH   8  11
ATOM     11  C   UNL     1      33.331 -14.736 -22.756  0.00  0.00    +0.064 C 
ATOM     12  C   UNL     1      32.647 -14.812 -23.958  0.00  0.00    +0.055 C 
ATOM     13  C   UNL     1      33.728 -13.517 -22.228  0.00  0.00    +0.016 C 
ATOM     14  C   UNL     1      32.354 -13.637 -24.653  0.00  0.00    +0.015 C 
ATOM     15  C   UNL     1      33.435 -12.344 -22.922  0.00  0.00    +0.001 C 
ATOM     16  C   UNL     1      32.748 -12.404 -24.135  0.00  0.00    +0.001 C 
BRANCH  12  17
ATOM     17  N   UNL     1      32.238 -16.050 -24.502  0.00  0.00    -0.356 N 
ATOM     18  H   UNL     1      32.691 -16.880 -24.228  0.00  0.00    +0.142 HD
ATOM     19  H   UNL     1      31.501 -16.083 -25.152  0.00  0.00    +0.142 HD
ENDBRANCH  12  17
ENDBRANCH   8  11
ENDBRANCH   2   9
BRANCH   1  20
ATOM     20  C   UNL     1      34.895 -21.272 -18.627  0.00  0.00    +0.119 C 
BRANCH  20  22
ATOM     21  O   UNL     1      34.373 -22.630 -16.114  0.00  0.00    -0.226 OA
ATOM     22  N   UNL     1      33.627 -21.746 -18.124  0.00  0.00    -0.267 N 
ATOM     23  C   UNL     1      33.475 -22.384 -16.912  0.00  0.00    +0.402 C 
ATOM     24  H   UNL     1      32.825 -21.606 -18.679  0.00  0.00    +0.153 HD
BRANCH  23  25
ATOM     25  O   UNL     1      32.160 -22.708 -16.723  0.00  0.00    -0.430 OA
BRANCH  25  26
ATOM     26  C   UNL     1      31.803 -23.124 -15.400  0.00  0.00    +0.238 C 
BRANCH  26  28
ATOM     27  N   UNL     1      28.179 -22.264 -15.970  0.00  0.00    -0.243 NA
ATOM     28  C   UNL     1      30.307 -23.151 -15.283  0.00  0.00    +0.040 C 
ATOM     29  C   UNL     1      29.684 -24.039 -14.423  0.00  0.00    +0.002 C 
ATOM     30  C   UNL     1      29.529 -22.292 -16.028  0.00  0.00    +0.098 C 
ATOM     31  C   UNL     1      28.297 -24.041 -14.336  0.00  0.00    +0.020 C 
ATOM     32  C   UNL     1      27.596 -23.142 -15.123  0.00  0.00    +0.099 C 
ENDBRANCH  26  28
ENDBRANCH  25  26
ENDBRANCH  23  25
ENDBRANCH  20  22
ENDBRANCH   1  20
TORSDOF 8
ENDMDL
