MODEL 1
REMARK VINA RESULT:     -11.6      0.000      0.000
REMARK  Name = 54713659
REMARK  4 active torsions:
REMARK  status: ('A' for Active; 'I' for Inactive)
REMARK    1  A    between atoms: C_14  and  O_30
REMARK    2  A    between atoms: C_15  and  C_19
REMARK    3  A    between atoms: N_18  and  C_21
REMARK    4  A    between atoms: C_21  and  C_24
REMARK                            x       y       z     vdW  Elec       q    Type
REMARK                         _______ _______ _______ _____ _____    ______ ____
ROOT
ATOM      1  O   UNL     1      34.951 -17.466 -21.384  0.00  0.00    -0.334 OA
ATOM      2  O   UNL     1      31.769 -17.278 -24.687  0.00  0.00    -0.268 OA
ATOM      3  O   UNL     1      32.044 -12.410 -26.256  0.00  0.00    -0.283 OA
ATOM      4  N   UNL     1      33.472 -17.289 -23.141  0.00  0.00    -0.251 N 
ATOM      5  N   UNL     1      33.524 -14.523 -23.124  0.00  0.00    -0.275 N 
ATOM      6  C   UNL     1      34.543 -16.610 -22.459  0.00  0.00    +0.215 C 
ATOM      7  C   UNL     1      33.392 -18.659 -22.699  0.00  0.00    +0.107 C 
ATOM      8  C   UNL     1      34.054 -15.262 -21.972  0.00  0.00    +0.147 C 
ATOM      9  C   UNL     1      34.001 -18.549 -21.312  0.00  0.00    +0.164 C 
ATOM     10  C   UNL     1      32.632 -16.680 -24.049  0.00  0.00    +0.268 C 
ATOM     11  C   UNL     1      32.824 -15.181 -24.153  0.00  0.00    +0.143 C 
ATOM     12  C   UNL     1      34.189 -19.581 -23.616  0.00  0.00    +0.024 C 
ATOM     13  C   UNL     1      33.657 -13.143 -23.188  0.00  0.00    +0.074 C 
ATOM     14  C   UNL     1      32.307 -14.531 -25.217  0.00  0.00    +0.191 C 
ATOM     15  C   UNL     1      33.194 -12.375 -24.182  0.00  0.00    +0.110 C 
ATOM     16  C   UNL     1      32.480 -13.046 -25.301  0.00  0.00    +0.236 C 
ENDROOT
BRANCH  15  19
ATOM     17  O   UNL     1      34.355 -10.403 -24.709  0.00  0.00    -0.270 OA
ATOM     18  N   UNL     1      32.484 -10.276 -23.324  0.00  0.00    -0.297 N 
ATOM     19  C   UNL     1      33.417 -10.931 -24.111  0.00  0.00    +0.251 C 
ATOM     20  H   UNL     1      31.777 -10.812 -22.896  0.00  0.00    +0.150 HD
BRANCH  18  21
ATOM     21  C   UNL     1      32.493  -8.849 -23.096  0.00  0.00    +0.119 C 
BRANCH  21  24
ATOM     22  F   UNL     1      33.189  -6.460 -21.750  0.00  0.00    -0.204 F 
ATOM     23  F   UNL     1      30.498  -7.516 -18.003  0.00  0.00    -0.204 F 
ATOM     24  C   UNL     1      31.962  -8.492 -21.739  0.00  0.00    +0.025 C 
ATOM     25  C   UNL     1      32.346  -7.297 -21.129  0.00  0.00    +0.140 C 
ATOM     26  C   UNL     1      31.084  -9.358 -21.085  0.00  0.00    +0.002 C 
ATOM     27  C   UNL     1      31.852  -6.967 -19.868  0.00  0.00    +0.059 C 
ATOM     28  C   UNL     1      30.591  -9.027 -19.823  0.00  0.00    +0.030 C 
ATOM     29  C   UNL     1      30.973  -7.832 -19.214  0.00  0.00    +0.142 C 
ENDBRANCH  21  24
ENDBRANCH  18  21
ENDBRANCH  15  19
BRANCH  14  30
ATOM     30  O   UNL     1      31.634 -15.151 -26.246  0.00  0.00    -0.502 OA
ATOM     31  H   UNL     1      31.677 -14.800 -27.113  0.00  0.00    +0.292 HD
ENDBRANCH  14  30
TORSDOF 4
ENDMDL
MODEL 2
REMARK VINA RESULT:     -11.2      9.195     13.362
REMARK  Name = 54713659
REMARK  4 active torsions:
REMARK  status: ('A' for Active; 'I' for Inactive)
REMARK    1  A    between atoms: C_14  and  O_30
REMARK    2  A    between atoms: C_15  and  C_19
REMARK    3  A    between atoms: N_18  and  C_21
REMARK    4  A    between atoms: C_21  and  C_24
REMARK                            x       y       z     vdW  Elec       q    Type
REMARK                         _______ _______ _______ _____ _____    ______ ____
ROOT
ATOM      1  O   UNL     1      37.763 -24.055 -13.127  0.00  0.00    -0.334 OA
ATOM      2  O   UNL     1      33.735 -24.547 -10.980  0.00  0.00    -0.268 OA
ATOM      3  O   UNL     1      30.341 -23.661 -14.713  0.00  0.00    -0.283 OA
ATOM      4  N   UNL     1      35.689 -24.401 -12.184  0.00  0.00    -0.251 N 
ATOM      5  N   UNL     1      34.349 -23.198 -14.284  0.00  0.00    -0.275 N 
ATOM      6  C   UNL     1      36.372 -24.212 -13.438  0.00  0.00    +0.215 C 
ATOM      7  C   UNL     1      36.644 -24.649 -11.132  0.00  0.00    +0.107 C 
ATOM      8  C   UNL     1      35.797 -23.003 -14.145  0.00  0.00    +0.147 C 
ATOM      9  C   UNL     1      37.874 -23.956 -11.693  0.00  0.00    +0.164 C 
ATOM     10  C   UNL     1      34.322 -24.309 -12.033  0.00  0.00    +0.268 C 
ATOM     11  C   UNL     1      33.598 -23.828 -13.274  0.00  0.00    +0.143 C 
ATOM     12  C   UNL     1      36.858 -26.144 -10.923  0.00  0.00    +0.024 C 
ATOM     13  C   UNL     1      33.683 -22.708 -15.399  0.00  0.00    +0.074 C 
ATOM     14  C   UNL     1      32.263 -24.008 -13.360  0.00  0.00    +0.191 C 
ATOM     15  C   UNL     1      32.366 -22.816 -15.612  0.00  0.00    +0.110 C 
ATOM     16  C   UNL     1      31.552 -23.508 -14.579  0.00  0.00    +0.236 C 
ENDROOT
BRANCH  15  19
ATOM     17  O   UNL     1      30.595 -22.092 -16.975  0.00  0.00    -0.270 OA
ATOM     18  N   UNL     1      32.776 -21.943 -17.783  0.00  0.00    -0.297 N 
ATOM     19  C   UNL     1      31.809 -22.252 -16.842  0.00  0.00    +0.251 C 
ATOM     20  H   UNL     1      33.719 -22.118 -17.559  0.00  0.00    +0.150 HD
BRANCH  18  21
ATOM     21  C   UNL     1      32.476 -21.376 -19.079  0.00  0.00    +0.119 C 
BRANCH  21  24
ATOM     22  F   UNL     1      32.122 -19.428 -21.100  0.00  0.00    -0.204 F 
ATOM     23  F   UNL     1      36.679 -18.155 -20.993  0.00  0.00    -0.204 F 
ATOM     24  C   UNL     1      33.596 -20.517 -19.590  0.00  0.00    +0.025 C 
ATOM     25  C   UNL     1      33.353 -19.575 -20.590  0.00  0.00    +0.140 C 
ATOM     26  C   UNL     1      34.881 -20.661 -19.065  0.00  0.00    +0.002 C 
ATOM     27  C   UNL     1      34.394 -18.777 -21.064  0.00  0.00    +0.059 C 
ATOM     28  C   UNL     1      35.921 -19.864 -19.539  0.00  0.00    +0.030 C 
ATOM     29  C   UNL     1      35.679 -18.921 -20.538  0.00  0.00    +0.142 C 
ENDBRANCH  21  24
ENDBRANCH  18  21
ENDBRANCH  15  19
BRANCH  14  30
ATOM     30  O   UNL     1      31.507 -24.636 -12.396  0.00  0.00    -0.502 OA
ATOM     31  H   UNL     1      31.811 -25.432 -12.006  0.00  0.00    +0.292 HD
ENDBRANCH  14  30
TORSDOF 4
ENDMDL
MODEL 3
REMARK VINA RESULT:     -10.9      1.977      2.140
REMARK  Name = 54713659
REMARK  4 active torsions:
REMARK  status: ('A' for Active; 'I' for Inactive)
REMARK    1  A    between atoms: C_14  and  O_30
REMARK    2  A    between atoms: C_15  and  C_19
REMARK    3  A    between atoms: N_18  and  C_21
REMARK    4  A    between atoms: C_21  and  C_24
REMARK                            x       y       z     vdW  Elec       q    Type
REMARK                         _______ _______ _______ _____ _____    ______ ____
ROOT
ATOM      1  O   UNL     1      34.724 -17.535 -21.029  0.00  0.00    -0.334 OA
ATOM      2  O   UNL     1      32.079 -17.130 -24.760  0.00  0.00    -0.268 OA
ATOM      3  O   UNL     1      32.411 -12.137 -25.853  0.00  0.00    -0.283 OA
ATOM      4  N   UNL     1      33.525 -17.238 -22.974  0.00  0.00    -0.251 N 
ATOM      5  N   UNL     1      33.472 -14.484 -22.718  0.00  0.00    -0.275 N 
ATOM      6  C   UNL     1      34.453 -16.597 -22.079  0.00  0.00    +0.215 C 
ATOM      7  C   UNL     1      33.429 -18.643 -22.666  0.00  0.00    +0.107 C 
ATOM      8  C   UNL     1      33.847 -15.310 -21.563  0.00  0.00    +0.147 C 
ATOM      9  C   UNL     1      33.814 -18.642 -21.197  0.00  0.00    +0.164 C 
ATOM     10  C   UNL     1      32.812 -16.571 -23.947  0.00  0.00    +0.268 C 
ATOM     11  C   UNL     1      32.962 -15.065 -23.894  0.00  0.00    +0.143 C 
ATOM     12  C   UNL     1      34.390 -19.462 -23.522  0.00  0.00    +0.024 C 
ATOM     13  C   UNL     1      33.562 -13.101 -22.644  0.00  0.00    +0.074 C 
ATOM     14  C   UNL     1      32.591 -14.335 -24.968  0.00  0.00    +0.191 C 
ATOM     15  C   UNL     1      33.229 -12.259 -23.630  0.00  0.00    +0.110 C 
ATOM     16  C   UNL     1      32.720 -12.845 -24.898  0.00  0.00    +0.236 C 
ENDROOT
BRANCH  15  19
ATOM     17  O   UNL     1      32.778 -10.252 -22.498  0.00  0.00    -0.270 OA
ATOM     18  N   UNL     1      34.256 -10.224 -24.300  0.00  0.00    -0.297 N 
ATOM     19  C   UNL     1      33.385 -10.822 -23.405  0.00  0.00    +0.251 C 
ATOM     20  H   UNL     1      34.682 -10.790 -24.984  0.00  0.00    +0.150 HD
BRANCH  18  21
ATOM     21  C   UNL     1      34.574  -8.814 -24.283  0.00  0.00    +0.119 C 
BRANCH  21  24
ATOM     22  F   UNL     1      34.523  -6.927 -22.176  0.00  0.00    -0.204 F 
ATOM     23  F   UNL     1      30.063  -5.653 -23.115  0.00  0.00    -0.204 F 
ATOM     24  C   UNL     1      33.372  -7.971 -23.971  0.00  0.00    +0.025 C 
ATOM     25  C   UNL     1      33.413  -7.059 -22.916  0.00  0.00    +0.140 C 
ATOM     26  C   UNL     1      32.212  -8.100 -24.736  0.00  0.00    +0.002 C 
ATOM     27  C   UNL     1      32.296  -6.275 -22.627  0.00  0.00    +0.059 C 
ATOM     28  C   UNL     1      31.095  -7.317 -24.446  0.00  0.00    +0.030 C 
ATOM     29  C   UNL     1      31.136  -6.404 -23.393  0.00  0.00    +0.142 C 
ENDBRANCH  21  24
ENDBRANCH  18  21
ENDBRANCH  15  19
BRANCH  14  30
ATOM     30  O   UNL     1      32.106 -14.877 -26.137  0.00  0.00    -0.502 OA
ATOM     31  H   UNL     1      31.484 -14.402 -26.651  0.00  0.00    +0.292 HD
ENDBRANCH  14  30
TORSDOF 4
ENDMDL
MODEL 4
REMARK VINA RESULT:     -10.8      4.707      8.882
REMARK  Name = 54713659
REMARK  4 active torsions:
REMARK  status: ('A' for Active; 'I' for Inactive)
REMARK    1  A    between atoms: C_14  and  O_30
REMARK    2  A    between atoms: C_15  and  C_19
REMARK    3  A    between atoms: N_18  and  C_21
REMARK    4  A    between atoms: C_21  and  C_24
REMARK                            x       y       z     vdW  Elec       q    Type
REMARK                         _______ _______ _______ _____ _____    ______ ____
ROOT
ATOM      1  O   UNL     1      31.075 -12.099 -18.883  0.00  0.00    -0.334 OA
ATOM      2  O   UNL     1      32.467 -11.300 -23.183  0.00  0.00    -0.268 OA
ATOM      3  O   UNL     1      34.077 -15.909 -24.733  0.00  0.00    -0.283 OA
ATOM      4  N   UNL     1      31.685 -11.841 -21.089  0.00  0.00    -0.251 N 
ATOM      5  N   UNL     1      33.015 -14.265 -21.178  0.00  0.00    -0.275 N 
ATOM      6  C   UNL     1      31.425 -12.823 -20.069  0.00  0.00    +0.215 C 
ATOM      7  C   UNL     1      31.234 -10.542 -20.653  0.00  0.00    +0.107 C 
ATOM      8  C   UNL     1      32.654 -13.687 -19.879  0.00  0.00    +0.147 C 
ATOM      9  C   UNL     1      31.317 -10.701 -19.145  0.00  0.00    +0.164 C 
ATOM     10  C   UNL     1      32.315 -12.122 -22.282  0.00  0.00    +0.268 C 
ATOM     11  C   UNL     1      32.865 -13.530 -22.370  0.00  0.00    +0.143 C 
ATOM     12  C   UNL     1      29.815 -10.262 -21.135  0.00  0.00    +0.024 C 
ATOM     13  C   UNL     1      33.567 -15.536 -21.247  0.00  0.00    +0.074 C 
ATOM     14  C   UNL     1      33.203 -14.023 -23.580  0.00  0.00    +0.191 C 
ATOM     15  C   UNL     1      33.947 -16.146 -22.377  0.00  0.00    +0.110 C 
ATOM     16  C   UNL     1      33.769 -15.408 -23.655  0.00  0.00    +0.236 C 
ENDROOT
BRANCH  15  19
ATOM     17  O   UNL     1      34.671 -18.182 -23.297  0.00  0.00    -0.270 OA
ATOM     18  N   UNL     1      34.815 -17.869 -20.991  0.00  0.00    -0.297 N 
ATOM     19  C   UNL     1      34.509 -17.493 -22.288  0.00  0.00    +0.251 C 
ATOM     20  H   UNL     1      34.639 -17.227 -20.266  0.00  0.00    +0.150 HD
BRANCH  18  21
ATOM     21  C   UNL     1      35.380 -19.154 -20.645  0.00  0.00    +0.119 C 
BRANCH  21  24
ATOM     22  F   UNL     1      36.219 -21.151 -18.825  0.00  0.00    -0.204 F 
ATOM     23  F   UNL     1      31.774 -22.311 -17.688  0.00  0.00    -0.204 F 
ATOM     24  C   UNL     1      34.420 -19.996 -19.856  0.00  0.00    +0.025 C 
ATOM     25  C   UNL     1      34.900 -20.965 -18.975  0.00  0.00    +0.140 C 
ATOM     26  C   UNL     1      33.045 -19.810 -20.005  0.00  0.00    +0.002 C 
ATOM     27  C   UNL     1      34.008 -21.746 -18.242  0.00  0.00    +0.059 C 
ATOM     28  C   UNL     1      32.152 -20.592 -19.273  0.00  0.00    +0.030 C 
ATOM     29  C   UNL     1      32.632 -21.560 -18.391  0.00  0.00    +0.142 C 
ENDBRANCH  21  24
ENDBRANCH  18  21
ENDBRANCH  15  19
BRANCH  14  30
ATOM     30  O   UNL     1      33.052 -13.334 -24.762  0.00  0.00    -0.502 OA
ATOM     31  H   UNL     1      33.310 -13.729 -25.571  0.00  0.00    +0.292 HD
ENDBRANCH  14  30
TORSDOF 4
ENDMDL
MODEL 5
REMARK VINA RESULT:     -10.6      4.103      8.832
REMARK  Name = 54713659
REMARK  4 active torsions:
REMARK  status: ('A' for Active; 'I' for Inactive)
REMARK    1  A    between atoms: C_14  and  O_30
REMARK    2  A    between atoms: C_15  and  C_19
REMARK    3  A    between atoms: N_18  and  C_21
REMARK    4  A    between atoms: C_21  and  C_24
REMARK                            x       y       z     vdW  Elec       q    Type
REMARK                         _______ _______ _______ _____ _____    ______ ____
ROOT
ATOM      1  O   UNL     1      33.278  -8.232 -24.450  0.00  0.00    -0.334 OA
ATOM      2  O   UNL     1      31.073 -10.057 -20.861  0.00  0.00    -0.268 OA
ATOM      3  O   UNL     1      32.722 -14.906 -20.859  0.00  0.00    -0.283 OA
ATOM      4  N   UNL     1      32.324  -9.217 -22.599  0.00  0.00    -0.251 N 
ATOM      5  N   UNL     1      32.948 -11.780 -23.435  0.00  0.00    -0.275 N 
ATOM      6  C   UNL     1      33.322  -9.400 -23.620  0.00  0.00    +0.215 C 
ATOM      7  C   UNL     1      31.858  -7.853 -22.600  0.00  0.00    +0.107 C 
ATOM      8  C   UNL     1      33.026 -10.669 -24.391  0.00  0.00    +0.147 C 
ATOM      9  C   UNL     1      32.133  -7.457 -24.040  0.00  0.00    +0.164 C 
ATOM     10  C   UNL     1      31.867 -10.230 -21.783  0.00  0.00    +0.268 C 
ATOM     11  C   UNL     1      32.388 -11.602 -22.156  0.00  0.00    +0.143 C 
ATOM     12  C   UNL     1      32.636  -7.004 -21.601  0.00  0.00    +0.024 C 
ATOM     13  C   UNL     1      33.378 -13.047 -23.802  0.00  0.00    +0.074 C 
ATOM     14  C   UNL     1      32.283 -12.605 -21.258  0.00  0.00    +0.191 C 
ATOM     15  C   UNL     1      33.333 -14.128 -23.014  0.00  0.00    +0.110 C 
ATOM     16  C   UNL     1      32.778 -13.964 -21.645  0.00  0.00    +0.236 C 
ENDROOT
BRANCH  15  19
ATOM     17  O   UNL     1      33.793 -15.644 -24.748  0.00  0.00    -0.270 OA
ATOM     18  N   UNL     1      34.320 -16.241 -22.558  0.00  0.00    -0.297 N 
ATOM     19  C   UNL     1      33.831 -15.399 -23.542  0.00  0.00    +0.251 C 
ATOM     20  H   UNL     1      34.296 -15.930 -21.623  0.00  0.00    +0.150 HD
BRANCH  18  21
ATOM     21  C   UNL     1      34.864 -17.553 -22.828  0.00  0.00    +0.119 C 
BRANCH  21  24
ATOM     22  F   UNL     1      37.026 -18.261 -21.146  0.00  0.00    -0.204 F 
ATOM     23  F   UNL     1      34.307 -21.014 -18.421  0.00  0.00    -0.204 F 
ATOM     24  C   UNL     1      34.717 -18.475 -21.653  0.00  0.00    +0.025 C 
ATOM     25  C   UNL     1      35.824 -18.785 -20.863  0.00  0.00    +0.140 C 
ATOM     26  C   UNL     1      33.470 -19.025 -21.350  0.00  0.00    +0.002 C 
ATOM     27  C   UNL     1      35.687 -19.641 -19.772  0.00  0.00    +0.059 C 
ATOM     28  C   UNL     1      33.333 -19.883 -20.259  0.00  0.00    +0.030 C 
ATOM     29  C   UNL     1      34.440 -20.191 -19.469  0.00  0.00    +0.142 C 
ENDBRANCH  21  24
ENDBRANCH  18  21
ENDBRANCH  15  19
BRANCH  14  30
ATOM     30  O   UNL     1      31.757 -12.456 -19.995  0.00  0.00    -0.502 OA
ATOM     31  H   UNL     1      31.042 -12.994 -19.719  0.00  0.00    +0.292 HD
ENDBRANCH  14  30
TORSDOF 4
ENDMDL
MODEL 6
REMARK VINA RESULT:     -10.6      4.235      9.022
REMARK  Name = 54713659
REMARK  4 active torsions:
REMARK  status: ('A' for Active; 'I' for Inactive)
REMARK    1  A    between atoms: C_14  and  O_30
REMARK    2  A    between atoms: C_15  and  C_19
REMARK    3  A    between atoms: N_18  and  C_21
REMARK    4  A    between atoms: C_21  and  C_24
REMARK                            x       y       z     vdW  Elec       q    Type
REMARK                         _______ _______ _______ _____ _____    ______ ____
ROOT
ATOM      1  O   UNL     1      32.237  -6.217 -22.046  0.00  0.00    -0.334 OA
ATOM      2  O   UNL     1      30.155  -9.107 -19.150  0.00  0.00    -0.268 OA
ATOM      3  O   UNL     1      31.851 -13.686 -20.699  0.00  0.00    -0.283 OA
ATOM      4  N   UNL     1      31.347  -7.746 -20.571  0.00  0.00    -0.251 N 
ATOM      5  N   UNL     1      31.972  -9.910 -22.178  0.00  0.00    -0.275 N 
ATOM      6  C   UNL     1      32.317  -7.584 -21.623  0.00  0.00    +0.215 C 
ATOM      7  C   UNL     1      30.867  -6.458 -20.136  0.00  0.00    +0.107 C 
ATOM      8  C   UNL     1      32.010  -8.556 -22.743  0.00  0.00    +0.147 C 
ATOM      9  C   UNL     1      31.096  -5.629 -21.387  0.00  0.00    +0.164 C 
ATOM     10  C   UNL     1      30.924  -8.971 -20.099  0.00  0.00    +0.268 C 
ATOM     11  C   UNL     1      31.447 -10.149 -20.894  0.00  0.00    +0.143 C 
ATOM     12  C   UNL     1      31.666  -5.948 -18.941  0.00  0.00    +0.024 C 
ATOM     13  C   UNL     1      32.403 -10.992 -22.932  0.00  0.00    +0.074 C 
ATOM     14  C   UNL     1      31.379 -11.383 -20.351  0.00  0.00    +0.191 C 
ATOM     15  C   UNL     1      32.392 -12.265 -22.519  0.00  0.00    +0.110 C 
ATOM     16  C   UNL     1      31.876 -12.546 -21.153  0.00  0.00    +0.236 C 
ENDROOT
BRANCH  15  19
ATOM     17  O   UNL     1      32.672 -13.236 -24.639  0.00  0.00    -0.270 OA
ATOM     18  N   UNL     1      33.585 -14.303 -22.779  0.00  0.00    -0.297 N 
ATOM     19  C   UNL     1      32.886 -13.299 -23.428  0.00  0.00    +0.251 C 
ATOM     20  H   UNL     1      33.690 -14.242 -21.802  0.00  0.00    +0.150 HD
BRANCH  18  21
ATOM     21  C   UNL     1      34.170 -15.437 -23.460  0.00  0.00    +0.119 C 
BRANCH  21  24
ATOM     22  F   UNL     1      33.393 -17.967 -24.459  0.00  0.00    -0.204 F 
ATOM     23  F   UNL     1      34.070 -20.083 -20.281  0.00  0.00    -0.204 F 
ATOM     24  C   UNL     1      34.143 -16.676 -22.614  0.00  0.00    +0.025 C 
ATOM     25  C   UNL     1      33.748 -17.894 -23.169  0.00  0.00    +0.140 C 
ATOM     26  C   UNL     1      34.512 -16.610 -21.269  0.00  0.00    +0.002 C 
ATOM     27  C   UNL     1      33.724 -19.044 -22.382  0.00  0.00    +0.059 C 
ATOM     28  C   UNL     1      34.487 -17.761 -20.482  0.00  0.00    +0.030 C 
ATOM     29  C   UNL     1      34.093 -18.978 -21.038  0.00  0.00    +0.142 C 
ENDBRANCH  21  24
ENDBRANCH  18  21
ENDBRANCH  15  19
BRANCH  14  30
ATOM     30  O   UNL     1      30.887 -11.644 -19.092  0.00  0.00    -0.502 OA
ATOM     31  H   UNL     1      31.371 -12.189 -18.503  0.00  0.00    +0.292 HD
ENDBRANCH  14  30
TORSDOF 4
ENDMDL
MODEL 7
REMARK VINA RESULT:     -10.5      6.266      9.742
REMARK  Name = 54713659
REMARK  4 active torsions:
REMARK  status: ('A' for Active; 'I' for Inactive)
REMARK    1  A    between atoms: C_14  and  O_30
REMARK    2  A    between atoms: C_15  and  C_19
REMARK    3  A    between atoms: N_18  and  C_21
REMARK    4  A    between atoms: C_21  and  C_24
REMARK                            x       y       z     vdW  Elec       q    Type
REMARK                         _______ _______ _______ _____ _____    ______ ____
ROOT
ATOM      1  O   UNL     1      37.130 -23.125 -14.010  0.00  0.00    -0.334 OA
ATOM      2  O   UNL     1      32.697 -23.029 -15.196  0.00  0.00    -0.268 OA
ATOM      3  O   UNL     1      32.816 -20.953 -19.877  0.00  0.00    -0.283 OA
ATOM      4  N   UNL     1      34.953 -23.144 -14.760  0.00  0.00    -0.251 N 
ATOM      5  N   UNL     1      35.483 -21.415 -16.854  0.00  0.00    -0.275 N 
ATOM      6  C   UNL     1      36.316 -22.940 -15.175  0.00  0.00    +0.215 C 
ATOM      7  C   UNL     1      34.917 -23.726 -13.442  0.00  0.00    +0.107 C 
ATOM      8  C   UNL     1      36.459 -21.553 -15.767  0.00  0.00    +0.147 C 
ATOM      9  C   UNL     1      36.243 -23.244 -12.880  0.00  0.00    +0.164 C 
ATOM     10  C   UNL     1      33.858 -22.784 -15.517  0.00  0.00    +0.268 C 
ATOM     11  C   UNL     1      34.205 -22.000 -16.765  0.00  0.00    +0.143 C 
ATOM     12  C   UNL     1      34.831 -25.247 -13.514  0.00  0.00    +0.024 C 
ATOM     13  C   UNL     1      35.787 -20.651 -17.972  0.00  0.00    +0.074 C 
ATOM     14  C   UNL     1      33.276 -21.878 -17.737  0.00  0.00    +0.191 C 
ATOM     15  C   UNL     1      34.963 -20.447 -19.007  0.00  0.00    +0.110 C 
ATOM     16  C   UNL     1      33.619 -21.080 -18.958  0.00  0.00    +0.236 C 
ENDROOT
BRANCH  15  19
ATOM     17  O   UNL     1      36.606 -19.259 -20.193  0.00  0.00    -0.270 OA
ATOM     18  N   UNL     1      34.429 -19.312 -21.024  0.00  0.00    -0.297 N 
ATOM     19  C   UNL     1      35.431 -19.619 -20.119  0.00  0.00    +0.251 C 
ATOM     20  H   UNL     1      33.524 -19.660 -20.855  0.00  0.00    +0.150 HD
BRANCH  18  21
ATOM     21  C   UNL     1      34.641 -18.505 -22.206  0.00  0.00    +0.119 C 
BRANCH  21  24
ATOM     22  F   UNL     1      34.222 -16.674 -24.320  0.00  0.00    -0.204 F 
ATOM     23  F   UNL     1      33.243 -13.117 -21.355  0.00  0.00    -0.204 F 
ATOM     24  C   UNL     1      34.268 -17.069 -21.980  0.00  0.00    +0.025 C 
ATOM     25  C   UNL     1      34.077 -16.217 -23.068  0.00  0.00    +0.140 C 
ATOM     26  C   UNL     1      34.114 -16.585 -20.680  0.00  0.00    +0.002 C 
ATOM     27  C   UNL     1      33.730 -14.883 -22.858  0.00  0.00    +0.059 C 
ATOM     28  C   UNL     1      33.769 -15.250 -20.470  0.00  0.00    +0.030 C 
ATOM     29  C   UNL     1      33.576 -14.399 -21.558  0.00  0.00    +0.142 C 
ENDBRANCH  21  24
ENDBRANCH  18  21
ENDBRANCH  15  19
BRANCH  14  30
ATOM     30  O   UNL     1      32.027 -22.453 -17.685  0.00  0.00    -0.502 OA
ATOM     31  H   UNL     1      31.612 -22.598 -16.858  0.00  0.00    +0.292 HD
ENDBRANCH  14  30
TORSDOF 4
ENDMDL
MODEL 8
REMARK VINA RESULT:     -10.5      6.449     10.207
REMARK  Name = 54713659
REMARK  4 active torsions:
REMARK  status: ('A' for Active; 'I' for Inactive)
REMARK    1  A    between atoms: C_14  and  O_30
REMARK    2  A    between atoms: C_15  and  C_19
REMARK    3  A    between atoms: N_18  and  C_21
REMARK    4  A    between atoms: C_21  and  C_24
REMARK                            x       y       z     vdW  Elec       q    Type
REMARK                         _______ _______ _______ _____ _____    ______ ____
ROOT
ATOM      1  O   UNL     1      30.790 -23.520 -14.265  0.00  0.00    -0.334 OA
ATOM      2  O   UNL     1      35.320 -23.531 -15.006  0.00  0.00    -0.268 OA
ATOM      3  O   UNL     1      35.830 -20.346 -18.985  0.00  0.00    -0.283 OA
ATOM      4  N   UNL     1      33.055 -23.351 -14.647  0.00  0.00    -0.251 N 
ATOM      5  N   UNL     1      32.719 -22.170 -17.126  0.00  0.00    -0.275 N 
ATOM      6  C   UNL     1      31.781 -22.772 -14.982  0.00  0.00    +0.215 C 
ATOM      7  C   UNL     1      32.913 -24.249 -13.528  0.00  0.00    +0.107 C 
ATOM      8  C   UNL     1      31.580 -22.835 -16.482  0.00  0.00    +0.147 C 
ATOM      9  C   UNL     1      31.455 -24.651 -13.667  0.00  0.00    +0.164 C 
ATOM     10  C   UNL     1      34.220 -23.098 -15.340  0.00  0.00    +0.268 C 
ATOM     11  C   UNL     1      34.019 -22.279 -16.598  0.00  0.00    +0.143 C 
ATOM     12  C   UNL     1      33.201 -23.538 -12.210  0.00  0.00    +0.024 C 
ATOM     13  C   UNL     1      32.538 -21.465 -18.307  0.00  0.00    +0.074 C 
ATOM     14  C   UNL     1      35.093 -21.697 -17.174  0.00  0.00    +0.191 C 
ATOM     15  C   UNL     1      33.511 -20.841 -18.982  0.00  0.00    +0.110 C 
ATOM     16  C   UNL     1      34.890 -20.909 -18.431  0.00  0.00    +0.236 C 
ENDROOT
BRANCH  15  19
ATOM     17  O   UNL     1      31.988 -19.898 -20.502  0.00  0.00    -0.270 OA
ATOM     18  N   UNL     1      34.269 -19.782 -20.970  0.00  0.00    -0.297 N 
ATOM     19  C   UNL     1      33.162 -20.132 -20.214  0.00  0.00    +0.251 C 
ATOM     20  H   UNL     1      35.161 -20.026 -20.631  0.00  0.00    +0.150 HD
BRANCH  18  21
ATOM     21  C   UNL     1      34.184 -19.077 -22.229  0.00  0.00    +0.119 C 
BRANCH  21  24
ATOM     22  F   UNL     1      33.688 -17.283 -24.360  0.00  0.00    -0.204 F 
ATOM     23  F   UNL     1      33.706 -13.514 -21.499  0.00  0.00    -0.204 F 
ATOM     24  C   UNL     1      34.057 -17.594 -22.036  0.00  0.00    +0.025 C 
ATOM     25  C   UNL     1      33.812 -16.764 -23.130  0.00  0.00    +0.140 C 
ATOM     26  C   UNL     1      34.183 -17.044 -20.759  0.00  0.00    +0.002 C 
ATOM     27  C   UNL     1      33.693 -15.387 -22.950  0.00  0.00    +0.059 C 
ATOM     28  C   UNL     1      34.066 -15.666 -20.579  0.00  0.00    +0.030 C 
ATOM     29  C   UNL     1      33.820 -14.837 -21.673  0.00  0.00    +0.142 C 
ENDBRANCH  21  24
ENDBRANCH  18  21
ENDBRANCH  15  19
BRANCH  14  30
ATOM     30  O   UNL     1      36.372 -21.771 -16.671  0.00  0.00    -0.502 OA
ATOM     31  H   UNL     1      36.942 -22.464 -16.941  0.00  0.00    +0.292 HD
ENDBRANCH  14  30
TORSDOF 4
ENDMDL
MODEL 9
REMARK VINA RESULT:     -10.1      3.967      8.449
REMARK  Name = 54713659
REMARK  4 active torsions:
REMARK  status: ('A' for Active; 'I' for Inactive)
REMARK    1  A    between atoms: C_14  and  O_30
REMARK    2  A    between atoms: C_15  and  C_19
REMARK    3  A    between atoms: N_18  and  C_21
REMARK    4  A    between atoms: C_21  and  C_24
REMARK                            x       y       z     vdW  Elec       q    Type
REMARK                         _______ _______ _______ _____ _____    ______ ____
ROOT
ATOM      1  O   UNL     1      30.419 -10.509 -19.545  0.00  0.00    -0.334 OA
ATOM      2  O   UNL     1      33.056  -9.159 -23.051  0.00  0.00    -0.268 OA
ATOM      3  O   UNL     1      33.429 -13.403 -25.895  0.00  0.00    -0.283 OA
ATOM      4  N   UNL     1      31.628  -9.909 -21.411  0.00  0.00    -0.251 N 
ATOM      5  N   UNL     1      32.077 -12.532 -22.170  0.00  0.00    -0.275 N 
ATOM      6  C   UNL     1      30.810 -10.953 -20.851  0.00  0.00    +0.215 C 
ATOM      7  C   UNL     1      31.525  -8.714 -20.611  0.00  0.00    +0.107 C 
ATOM      8  C   UNL     1      31.600 -12.244 -20.812  0.00  0.00    +0.147 C 
ATOM      9  C   UNL     1      31.160  -9.305 -19.260  0.00  0.00    +0.164 C 
ATOM     10  C   UNL     1      32.419 -10.071 -22.529  0.00  0.00    +0.268 C 
ATOM     11  C   UNL     1      32.486 -11.497 -23.033  0.00  0.00    +0.143 C 
ATOM     12  C   UNL     1      30.449  -7.779 -21.152  0.00  0.00    +0.024 C 
ATOM     13  C   UNL     1      32.185 -13.844 -22.607  0.00  0.00    +0.074 C 
ATOM     14  C   UNL     1      32.947 -11.727 -24.281  0.00  0.00    +0.191 C 
ATOM     15  C   UNL     1      32.625 -14.214 -23.816  0.00  0.00    +0.110 C 
ATOM     16  C   UNL     1      33.032 -13.142 -24.762  0.00  0.00    +0.236 C 
ENDROOT
BRANCH  15  19
ATOM     17  O   UNL     1      31.996 -16.115 -25.043  0.00  0.00    -0.270 OA
ATOM     18  N   UNL     1      33.548 -16.346 -23.319  0.00  0.00    -0.297 N 
ATOM     19  C   UNL     1      32.678 -15.641 -24.134  0.00  0.00    +0.251 C 
ATOM     20  H   UNL     1      34.040 -15.852 -22.624  0.00  0.00    +0.150 HD
BRANCH  18  21
ATOM     21  C   UNL     1      33.773 -17.769 -23.435  0.00  0.00    +0.119 C 
BRANCH  21  24
ATOM     22  F   UNL     1      32.353 -19.463 -21.670  0.00  0.00    -0.204 F 
ATOM     23  F   UNL     1      36.059 -19.929 -18.764  0.00  0.00    -0.204 F 
ATOM     24  C   UNL     1      34.381 -18.346 -22.190  0.00  0.00    +0.025 C 
ATOM     25  C   UNL     1      33.625 -19.174 -21.361  0.00  0.00    +0.140 C 
ATOM     26  C   UNL     1      35.705 -18.051 -21.861  0.00  0.00    +0.002 C 
ATOM     27  C   UNL     1      34.191 -19.710 -20.205  0.00  0.00    +0.059 C 
ATOM     28  C   UNL     1      36.271 -18.586 -20.703  0.00  0.00    +0.030 C 
ATOM     29  C   UNL     1      35.515 -19.416 -19.875  0.00  0.00    +0.142 C 
ENDBRANCH  21  24
ENDBRANCH  18  21
ENDBRANCH  15  19
BRANCH  14  30
ATOM     30  O   UNL     1      33.337 -10.735 -25.152  0.00  0.00    -0.502 OA
ATOM     31  H   UNL     1      32.773 -10.480 -25.855  0.00  0.00    +0.292 HD
ENDBRANCH  14  30
TORSDOF 4
ENDMDL
