MODEL 1
REMARK VINA RESULT:     -11.8      0.000      0.000
REMARK  Name = 10361208
REMARK  3 active torsions:
REMARK  status: ('A' for Active; 'I' for Inactive)
REMARK    1  A    between atoms: N_1  and  C_12
REMARK    2  A    between atoms: C_10  and  C_18
REMARK    3  A    between atoms: C_21  and  C_27
REMARK                            x       y       z     vdW  Elec       q    Type
REMARK                         _______ _______ _______ _____ _____    ______ ____
ROOT
ATOM      1  N   UNL     1      36.057 -22.642 -13.833  0.00  0.00    -0.318 N 
ATOM      2  N   UNL     1      34.115 -22.581 -15.060  0.00  0.00    -0.147 NA
ATOM      3  N   UNL     1      33.570 -22.299 -16.270  0.00  0.00    -0.190 N 
ATOM      4  N   UNL     1      33.339 -21.695 -18.368  0.00  0.00    -0.127 NA
ATOM      5  N   UNL     1      32.099 -22.047 -17.875  0.00  0.00    -0.127 NA
ATOM      6  C   UNL     1      35.413 -22.394 -14.985  0.00  0.00    +0.149 C 
ATOM      7  C   UNL     1      36.226 -21.907 -16.154  0.00  0.00    +0.039 C 
ATOM      8  C   UNL     1      34.214 -21.851 -17.397  0.00  0.00    +0.187 A 
ATOM      9  C   UNL     1      35.605 -21.653 -17.311  0.00  0.00    +0.044 C 
ATOM     10  C   UNL     1      32.256 -22.404 -16.620  0.00  0.00    +0.187 A 
ATOM     11  H   UNL     1      37.028 -22.480 -13.793  0.00  0.00    +0.148 HD
ENDROOT
BRANCH   1  12
ATOM     12  C   UNL     1      35.385 -23.135 -12.646  0.00  0.00    +0.070 C 
ATOM     13  C   UNL     1      35.005 -24.608 -12.831  0.00  0.00    +0.020 C 
ATOM     14  C   UNL     1      36.275 -22.933 -11.416  0.00  0.00    +0.020 C 
ATOM     15  C   UNL     1      36.218 -25.539 -12.809  0.00  0.00    +0.002 C 
ATOM     16  C   UNL     1      37.484 -23.870 -11.400  0.00  0.00    +0.002 C 
ATOM     17  C   UNL     1      37.067 -25.329 -11.560  0.00  0.00    +0.000 C 
ENDBRANCH   1  12
BRANCH  10  18
ATOM     18  C   UNL     1      31.214 -22.847 -15.724  0.00  0.00    +0.038 C 
ATOM     19  C   UNL     1      29.877 -22.764 -16.112  0.00  0.00    +0.007 C 
ATOM     20  C   UNL     1      31.546 -23.357 -14.469  0.00  0.00    +0.003 C 
ATOM     21  C   UNL     1      28.872 -23.192 -15.246  0.00  0.00    +0.072 C 
ATOM     22  C   UNL     1      30.541 -23.784 -13.601  0.00  0.00    +0.000 C 
ATOM     23  C   UNL     1      29.203 -23.701 -13.990  0.00  0.00    +0.004 C 
BRANCH  21  27
ATOM     24  F   UNL     1      26.596 -22.773 -14.640  0.00  0.00    -0.166 F 
ATOM     25  F   UNL     1      27.210 -22.176 -16.633  0.00  0.00    -0.166 F 
ATOM     26  F   UNL     1      26.968 -24.284 -16.159  0.00  0.00    -0.166 F 
ATOM     27  C   UNL     1      27.442 -23.105 -15.660  0.00  0.00    +0.419 C 
ENDBRANCH  21  27
ENDBRANCH  10  18
TORSDOF 3
ENDMDL
MODEL 2
REMARK VINA RESULT:     -11.7      3.238      5.261
REMARK  Name = 10361208
REMARK  3 active torsions:
REMARK  status: ('A' for Active; 'I' for Inactive)
REMARK    1  A    between atoms: N_1  and  C_12
REMARK    2  A    between atoms: C_10  and  C_18
REMARK    3  A    between atoms: C_21  and  C_27
REMARK                            x       y       z     vdW  Elec       q    Type
REMARK                         _______ _______ _______ _____ _____    ______ ____
ROOT
ATOM      1  N   UNL     1      34.015 -24.328 -13.214  0.00  0.00    -0.318 N 
ATOM      2  N   UNL     1      33.079 -23.254 -15.017  0.00  0.00    -0.147 NA
ATOM      3  N   UNL     1      31.918 -22.896 -15.621  0.00  0.00    -0.190 N 
ATOM      4  N   UNL     1      29.781 -22.642 -16.057  0.00  0.00    -0.127 NA
ATOM      5  N   UNL     1      30.507 -22.038 -17.063  0.00  0.00    -0.127 NA
ATOM      6  C   UNL     1      32.931 -23.923 -13.897  0.00  0.00    +0.149 C 
ATOM      7  C   UNL     1      31.578 -24.263 -13.331  0.00  0.00    +0.039 C 
ATOM      8  C   UNL     1      30.637 -23.153 -15.196  0.00  0.00    +0.187 A 
ATOM      9  C   UNL     1      30.485 -23.870 -13.996  0.00  0.00    +0.044 C 
ATOM     10  C   UNL     1      31.782 -22.201 -16.787  0.00  0.00    +0.187 A 
ATOM     11  H   UNL     1      33.883 -24.842 -12.385  0.00  0.00    +0.148 HD
ENDROOT
BRANCH   1  12
ATOM     12  C   UNL     1      35.370 -24.041 -13.647  0.00  0.00    +0.070 C 
ATOM     13  C   UNL     1      36.146 -23.351 -12.521  0.00  0.00    +0.020 C 
ATOM     14  C   UNL     1      36.061 -25.332 -14.098  0.00  0.00    +0.020 C 
ATOM     15  C   UNL     1      36.471 -24.295 -11.362  0.00  0.00    +0.002 C 
ATOM     16  C   UNL     1      36.386 -26.268 -12.934  0.00  0.00    +0.002 C 
ATOM     17  C   UNL     1      37.181 -25.555 -11.844  0.00  0.00    +0.000 C 
ENDBRANCH   1  12
BRANCH  10  18
ATOM     18  C   UNL     1      32.892 -21.725 -17.577  0.00  0.00    +0.038 C 
ATOM     19  C   UNL     1      32.663 -20.898 -18.676  0.00  0.00    +0.007 C 
ATOM     20  C   UNL     1      34.194 -22.094 -17.241  0.00  0.00    +0.003 C 
ATOM     21  C   UNL     1      33.736 -20.440 -19.439  0.00  0.00    +0.072 C 
ATOM     22  C   UNL     1      35.268 -21.636 -18.004  0.00  0.00    +0.000 C 
ATOM     23  C   UNL     1      35.038 -20.808 -19.104  0.00  0.00    +0.004 C 
BRANCH  21  27
ATOM     24  F   UNL     1      34.249 -19.872 -21.706  0.00  0.00    -0.166 F 
ATOM     25  F   UNL     1      32.201 -19.575 -21.057  0.00  0.00    -0.166 F 
ATOM     26  F   UNL     1      33.767 -18.243 -20.349  0.00  0.00    -0.166 F 
ATOM     27  C   UNL     1      33.492 -19.554 -20.614  0.00  0.00    +0.419 C 
ENDBRANCH  21  27
ENDBRANCH  10  18
TORSDOF 3
ENDMDL
MODEL 3
REMARK VINA RESULT:     -11.0      1.821      2.377
REMARK  Name = 10361208
REMARK  3 active torsions:
REMARK  status: ('A' for Active; 'I' for Inactive)
REMARK    1  A    between atoms: N_1  and  C_12
REMARK    2  A    between atoms: C_10  and  C_18
REMARK    3  A    between atoms: C_21  and  C_27
REMARK                            x       y       z     vdW  Elec       q    Type
REMARK                         _______ _______ _______ _____ _____    ______ ____
ROOT
ATOM      1  N   UNL     1      35.881 -22.644 -14.143  0.00  0.00    -0.318 N 
ATOM      2  N   UNL     1      33.950 -22.466 -15.376  0.00  0.00    -0.147 NA
ATOM      3  N   UNL     1      33.426 -22.148 -16.586  0.00  0.00    -0.190 N 
ATOM      4  N   UNL     1      33.238 -21.520 -18.681  0.00  0.00    -0.127 NA
ATOM      5  N   UNL     1      31.978 -21.804 -18.195  0.00  0.00    -0.127 NA
ATOM      6  C   UNL     1      35.256 -22.354 -15.296  0.00  0.00    +0.149 C 
ATOM      7  C   UNL     1      36.100 -21.907 -16.459  0.00  0.00    +0.039 C 
ATOM      8  C   UNL     1      34.099 -21.731 -17.709  0.00  0.00    +0.187 A 
ATOM      9  C   UNL     1      35.498 -21.611 -17.617  0.00  0.00    +0.044 C 
ATOM     10  C   UNL     1      32.109 -22.176 -16.942  0.00  0.00    +0.187 A 
ATOM     11  H   UNL     1      36.859 -22.538 -14.099  0.00  0.00    +0.148 HD
ENDROOT
BRANCH   1  12
ATOM     12  C   UNL     1      35.177 -23.105 -12.961  0.00  0.00    +0.070 C 
ATOM     13  C   UNL     1      34.833 -24.591 -13.101  0.00  0.00    +0.020 C 
ATOM     14  C   UNL     1      36.021 -22.838 -11.710  0.00  0.00    +0.020 C 
ATOM     15  C   UNL     1      36.063 -25.495 -13.002  0.00  0.00    +0.002 C 
ATOM     16  C   UNL     1      37.246 -23.748 -11.617  0.00  0.00    +0.002 C 
ATOM     17  C   UNL     1      36.863 -25.220 -11.734  0.00  0.00    +0.000 C 
ENDBRANCH   1  12
BRANCH  10  18
ATOM     18  C   UNL     1      31.041 -22.564 -16.052  0.00  0.00    +0.038 C 
ATOM     19  C   UNL     1      31.337 -23.109 -14.802  0.00  0.00    +0.007 C 
ATOM     20  C   UNL     1      29.714 -22.396 -16.443  0.00  0.00    +0.003 C 
ATOM     21  C   UNL     1      30.304 -23.484 -13.944  0.00  0.00    +0.072 C 
ATOM     22  C   UNL     1      28.680 -22.772 -15.585  0.00  0.00    +0.000 C 
ATOM     23  C   UNL     1      28.976 -23.316 -14.335  0.00  0.00    +0.004 C 
BRANCH  21  27
ATOM     24  F   UNL     1      29.528 -24.189 -11.794  0.00  0.00    -0.166 F 
ATOM     25  F   UNL     1      31.162 -25.317 -12.668  0.00  0.00    -0.166 F 
ATOM     26  F   UNL     1      31.515 -23.311 -11.905  0.00  0.00    -0.166 F 
ATOM     27  C   UNL     1      30.619 -24.065 -12.606  0.00  0.00    +0.419 C 
ENDBRANCH  21  27
ENDBRANCH  10  18
TORSDOF 3
ENDMDL
MODEL 4
REMARK VINA RESULT:     -10.7      3.564      5.401
REMARK  Name = 10361208
REMARK  3 active torsions:
REMARK  status: ('A' for Active; 'I' for Inactive)
REMARK    1  A    between atoms: N_1  and  C_12
REMARK    2  A    between atoms: C_10  and  C_18
REMARK    3  A    between atoms: C_21  and  C_27
REMARK                            x       y       z     vdW  Elec       q    Type
REMARK                         _______ _______ _______ _____ _____    ______ ____
ROOT
ATOM      1  N   UNL     1      33.737 -24.653 -12.826  0.00  0.00    -0.318 N 
ATOM      2  N   UNL     1      32.586 -23.609 -14.517  0.00  0.00    -0.147 NA
ATOM      3  N   UNL     1      31.358 -23.300 -15.004  0.00  0.00    -0.190 N 
ATOM      4  N   UNL     1      29.180 -23.143 -15.232  0.00  0.00    -0.127 NA
ATOM      5  N   UNL     1      29.779 -22.497 -16.295  0.00  0.00    -0.127 NA
ATOM      6  C   UNL     1      32.576 -24.294 -13.397  0.00  0.00    +0.149 C 
ATOM      7  C   UNL     1      31.300 -24.702 -12.711  0.00  0.00    +0.039 C 
ATOM      8  C   UNL     1      30.136 -23.620 -14.464  0.00  0.00    +0.187 A 
ATOM      9  C   UNL     1      30.132 -24.355 -13.263  0.00  0.00    +0.044 C 
ATOM     10  C   UNL     1      31.080 -22.602 -16.143  0.00  0.00    +0.187 A 
ATOM     11  H   UNL     1      33.709 -25.181 -11.994  0.00  0.00    +0.148 HD
ENDROOT
BRANCH   1  12
ATOM     12  C   UNL     1      35.030 -24.300 -13.380  0.00  0.00    +0.070 C 
ATOM     13  C   UNL     1      35.514 -22.974 -12.784  0.00  0.00    +0.020 C 
ATOM     14  C   UNL     1      36.035 -25.430 -13.131  0.00  0.00    +0.020 C 
ATOM     15  C   UNL     1      35.923 -23.100 -11.316  0.00  0.00    +0.002 C 
ATOM     16  C   UNL     1      36.442 -25.546 -11.662  0.00  0.00    +0.002 C 
ATOM     17  C   UNL     1      36.942 -24.215 -11.108  0.00  0.00    +0.000 C 
ENDBRANCH   1  12
BRANCH  10  18
ATOM     18  C   UNL     1      32.087 -22.068 -17.028  0.00  0.00    +0.038 C 
ATOM     19  C   UNL     1      33.429 -22.089 -16.652  0.00  0.00    +0.007 C 
ATOM     20  C   UNL     1      31.715 -21.530 -18.259  0.00  0.00    +0.003 C 
ATOM     21  C   UNL     1      34.401 -21.572 -17.507  0.00  0.00    +0.072 C 
ATOM     22  C   UNL     1      32.687 -21.012 -19.116  0.00  0.00    +0.000 C 
ATOM     23  C   UNL     1      34.031 -21.034 -18.739  0.00  0.00    +0.004 C 
BRANCH  21  27
ATOM     24  F   UNL     1      36.301 -20.391 -16.661  0.00  0.00    -0.166 F 
ATOM     25  F   UNL     1      36.111 -22.478 -16.101  0.00  0.00    -0.166 F 
ATOM     26  F   UNL     1      36.664 -21.947 -18.136  0.00  0.00    -0.166 F 
ATOM     27  C   UNL     1      35.838 -21.596 -17.107  0.00  0.00    +0.419 C 
ENDBRANCH  21  27
ENDBRANCH  10  18
TORSDOF 3
ENDMDL
MODEL 5
REMARK VINA RESULT:     -10.7      4.314      7.152
REMARK  Name = 10361208
REMARK  3 active torsions:
REMARK  status: ('A' for Active; 'I' for Inactive)
REMARK    1  A    between atoms: N_1  and  C_12
REMARK    2  A    between atoms: C_10  and  C_18
REMARK    3  A    between atoms: C_21  and  C_27
REMARK                            x       y       z     vdW  Elec       q    Type
REMARK                         _______ _______ _______ _____ _____    ______ ____
ROOT
ATOM      1  N   UNL     1      30.641 -22.818 -16.341  0.00  0.00    -0.318 N 
ATOM      2  N   UNL     1      32.898 -22.684 -15.933  0.00  0.00    -0.147 NA
ATOM      3  N   UNL     1      34.096 -22.276 -16.421  0.00  0.00    -0.190 N 
ATOM      4  N   UNL     1      35.638 -21.426 -17.732  0.00  0.00    -0.127 NA
ATOM      5  N   UNL     1      36.247 -21.885 -16.582  0.00  0.00    -0.127 NA
ATOM      6  C   UNL     1      31.875 -22.454 -16.724  0.00  0.00    +0.149 C 
ATOM      7  C   UNL     1      32.027 -21.790 -18.067  0.00  0.00    +0.039 C 
ATOM      8  C   UNL     1      34.348 -21.664 -17.625  0.00  0.00    +0.187 A 
ATOM      9  C   UNL     1      33.248 -21.421 -18.469  0.00  0.00    +0.044 C 
ATOM     10  C   UNL     1      35.310 -22.391 -15.811  0.00  0.00    +0.187 A 
ATOM     11  H   UNL     1      29.889 -22.652 -16.956  0.00  0.00    +0.148 HD
ENDROOT
BRANCH   1  12
ATOM     12  C   UNL     1      30.366 -23.445 -15.062  0.00  0.00    +0.070 C 
ATOM     13  C   UNL     1      29.799 -22.413 -14.082  0.00  0.00    +0.020 C 
ATOM     14  C   UNL     1      29.410 -24.627 -15.251  0.00  0.00    +0.020 C 
ATOM     15  C   UNL     1      28.375 -21.982 -14.435  0.00  0.00    +0.002 C 
ATOM     16  C   UNL     1      27.988 -24.188 -15.600  0.00  0.00    +0.002 C 
ATOM     17  C   UNL     1      27.445 -23.181 -14.590  0.00  0.00    +0.000 C 
ENDBRANCH   1  12
BRANCH  10  18
ATOM     18  C   UNL     1      35.507 -22.982 -14.509  0.00  0.00    +0.038 C 
ATOM     19  C   UNL     1      36.594 -23.826 -14.282  0.00  0.00    +0.007 C 
ATOM     20  C   UNL     1      34.608 -22.710 -13.478  0.00  0.00    +0.003 C 
ATOM     21  C   UNL     1      36.783 -24.397 -13.025  0.00  0.00    +0.072 C 
ATOM     22  C   UNL     1      34.796 -23.282 -12.220  0.00  0.00    +0.000 C 
ATOM     23  C   UNL     1      35.884 -24.126 -11.993  0.00  0.00    +0.004 C 
BRANCH  21  27
ATOM     24  F   UNL     1      38.069 -26.296 -13.705  0.00  0.00    -0.166 F 
ATOM     25  F   UNL     1      39.149 -24.653 -12.790  0.00  0.00    -0.166 F 
ATOM     26  F   UNL     1      37.878 -25.927 -11.570  0.00  0.00    -0.166 F 
ATOM     27  C   UNL     1      37.946 -25.299 -12.780  0.00  0.00    +0.419 C 
ENDBRANCH  21  27
ENDBRANCH  10  18
TORSDOF 3
ENDMDL
MODEL 6
REMARK VINA RESULT:     -10.5     12.623     15.320
REMARK  Name = 10361208
REMARK  3 active torsions:
REMARK  status: ('A' for Active; 'I' for Inactive)
REMARK    1  A    between atoms: N_1  and  C_12
REMARK    2  A    between atoms: C_10  and  C_18
REMARK    3  A    between atoms: C_21  and  C_27
REMARK                            x       y       z     vdW  Elec       q    Type
REMARK                         _______ _______ _______ _____ _____    ______ ____
ROOT
ATOM      1  N   UNL     1      31.808  -8.389 -22.244  0.00  0.00    -0.318 N 
ATOM      2  N   UNL     1      31.836 -10.617 -21.681  0.00  0.00    -0.147 NA
ATOM      3  N   UNL     1      31.453 -11.539 -20.763  0.00  0.00    -0.190 N 
ATOM      4  N   UNL     1      30.574 -12.474 -18.982  0.00  0.00    -0.127 NA
ATOM      5  N   UNL     1      31.169 -13.459 -19.744  0.00  0.00    -0.127 NA
ATOM      6  C   UNL     1      31.480  -9.384 -21.403  0.00  0.00    +0.149 C 
ATOM      7  C   UNL     1      30.707  -9.028 -20.161  0.00  0.00    +0.039 C 
ATOM      8  C   UNL     1      30.750 -11.327 -19.603  0.00  0.00    +0.187 A 
ATOM      9  C   UNL     1      30.371 -10.003 -19.309  0.00  0.00    +0.044 C 
ATOM     10  C   UNL     1      31.690 -12.882 -20.804  0.00  0.00    +0.187 A 
ATOM     11  H   UNL     1      31.545  -7.469 -22.009  0.00  0.00    +0.148 HD
ENDROOT
BRANCH   1  12
ATOM     12  C   UNL     1      32.532  -8.611 -23.481  0.00  0.00    +0.070 C 
ATOM     13  C   UNL     1      31.992  -7.688 -24.578  0.00  0.00    +0.020 C 
ATOM     14  C   UNL     1      34.033  -8.401 -23.256  0.00  0.00    +0.020 C 
ATOM     15  C   UNL     1      32.366  -6.222 -24.355  0.00  0.00    +0.002 C 
ATOM     16  C   UNL     1      34.399  -6.933 -23.038  0.00  0.00    +0.002 C 
ATOM     17  C   UNL     1      33.868  -6.047 -24.161  0.00  0.00    +0.000 C 
ENDBRANCH   1  12
BRANCH  10  18
ATOM     18  C   UNL     1      32.407 -13.544 -21.868  0.00  0.00    +0.038 C 
ATOM     19  C   UNL     1      32.032 -13.339 -23.195  0.00  0.00    +0.007 C 
ATOM     20  C   UNL     1      33.474 -14.389 -21.566  0.00  0.00    +0.003 C 
ATOM     21  C   UNL     1      32.725 -13.979 -24.222  0.00  0.00    +0.072 C 
ATOM     22  C   UNL     1      34.167 -15.030 -22.593  0.00  0.00    +0.000 C 
ATOM     23  C   UNL     1      33.792 -14.825 -23.922  0.00  0.00    +0.004 C 
BRANCH  21  27
ATOM     24  F   UNL     1      32.119 -14.917 -26.337  0.00  0.00    -0.166 F 
ATOM     25  F   UNL     1      31.169 -13.048 -25.782  0.00  0.00    -0.166 F 
ATOM     26  F   UNL     1      33.268 -13.070 -26.351  0.00  0.00    -0.166 F 
ATOM     27  C   UNL     1      32.326 -13.759 -25.642  0.00  0.00    +0.419 C 
ENDBRANCH  21  27
ENDBRANCH  10  18
TORSDOF 3
ENDMDL
MODEL 7
REMARK VINA RESULT:     -10.4      4.011      6.970
REMARK  Name = 10361208
REMARK  3 active torsions:
REMARK  status: ('A' for Active; 'I' for Inactive)
REMARK    1  A    between atoms: N_1  and  C_12
REMARK    2  A    between atoms: C_10  and  C_18
REMARK    3  A    between atoms: C_21  and  C_27
REMARK                            x       y       z     vdW  Elec       q    Type
REMARK                         _______ _______ _______ _____ _____    ______ ____
ROOT
ATOM      1  N   UNL     1      30.529 -22.775 -16.414  0.00  0.00    -0.318 N 
ATOM      2  N   UNL     1      32.783 -22.778 -15.970  0.00  0.00    -0.147 NA
ATOM      3  N   UNL     1      34.006 -22.387 -16.409  0.00  0.00    -0.190 N 
ATOM      4  N   UNL     1      35.604 -21.505 -17.627  0.00  0.00    -0.127 NA
ATOM      5  N   UNL     1      36.174 -22.083 -16.512  0.00  0.00    -0.127 NA
ATOM      6  C   UNL     1      31.784 -22.439 -16.752  0.00  0.00    +0.149 C 
ATOM      7  C   UNL     1      31.986 -21.676 -18.034  0.00  0.00    +0.039 C 
ATOM      8  C   UNL     1      34.303 -21.691 -17.555  0.00  0.00    +0.187 A 
ATOM      9  C   UNL     1      33.229 -21.331 -18.390  0.00  0.00    +0.044 C 
ATOM     10  C   UNL     1      35.204 -22.607 -15.796  0.00  0.00    +0.187 A 
ATOM     11  H   UNL     1      29.795 -22.525 -17.022  0.00  0.00    +0.148 HD
ENDROOT
BRANCH   1  12
ATOM     12  C   UNL     1      30.207 -23.491 -15.194  0.00  0.00    +0.070 C 
ATOM     13  C   UNL     1      29.704 -22.512 -14.128  0.00  0.00    +0.020 C 
ATOM     14  C   UNL     1      29.176 -24.587 -15.484  0.00  0.00    +0.020 C 
ATOM     15  C   UNL     1      28.313 -21.960 -14.442  0.00  0.00    +0.002 C 
ATOM     16  C   UNL     1      27.787 -24.026 -15.793  0.00  0.00    +0.002 C 
ATOM     17  C   UNL     1      27.307 -23.077 -14.699  0.00  0.00    +0.000 C 
ENDBRANCH   1  12
BRANCH  10  18
ATOM     18  C   UNL     1      35.354 -23.310 -14.544  0.00  0.00    +0.038 C 
ATOM     19  C   UNL     1      35.965 -22.683 -13.459  0.00  0.00    +0.007 C 
ATOM     20  C   UNL     1      34.889 -24.619 -14.423  0.00  0.00    +0.003 C 
ATOM     21  C   UNL     1      36.110 -23.364 -12.251  0.00  0.00    +0.072 C 
ATOM     22  C   UNL     1      35.034 -25.302 -13.214  0.00  0.00    +0.000 C 
ATOM     23  C   UNL     1      35.645 -24.673 -12.128  0.00  0.00    +0.004 C 
BRANCH  21  27
ATOM     24  F   UNL     1      37.901 -23.316 -10.666  0.00  0.00    -0.166 F 
ATOM     25  F   UNL     1      37.131 -21.403 -11.339  0.00  0.00    -0.166 F 
ATOM     26  F   UNL     1      35.947 -22.635  -9.994  0.00  0.00    -0.166 F 
ATOM     27  C   UNL     1      36.761 -22.693 -11.089  0.00  0.00    +0.419 C 
ENDBRANCH  21  27
ENDBRANCH  10  18
TORSDOF 3
ENDMDL
MODEL 8
REMARK VINA RESULT:     -10.3      2.612      6.161
REMARK  Name = 10361208
REMARK  3 active torsions:
REMARK  status: ('A' for Active; 'I' for Inactive)
REMARK    1  A    between atoms: N_1  and  C_12
REMARK    2  A    between atoms: C_10  and  C_18
REMARK    3  A    between atoms: C_21  and  C_27
REMARK                            x       y       z     vdW  Elec       q    Type
REMARK                         _______ _______ _______ _____ _____    ______ ____
ROOT
ATOM      1  N   UNL     1      31.239 -24.219 -13.482  0.00  0.00    -0.318 N 
ATOM      2  N   UNL     1      33.273 -23.331 -14.074  0.00  0.00    -0.147 NA
ATOM      3  N   UNL     1      34.536 -23.064 -13.657  0.00  0.00    -0.190 N 
ATOM      4  N   UNL     1      36.339 -22.921 -12.413  0.00  0.00    -0.127 NA
ATOM      5  N   UNL     1      36.618 -22.378 -13.650  0.00  0.00    -0.127 NA
ATOM      6  C   UNL     1      32.509 -23.911 -13.177  0.00  0.00    +0.149 C 
ATOM      7  C   UNL     1      33.002 -24.251 -11.796  0.00  0.00    +0.039 C 
ATOM      8  C   UNL     1      35.088 -23.330 -12.428  0.00  0.00    +0.187 A 
ATOM      9  C   UNL     1      34.265 -23.951 -11.470  0.00  0.00    +0.044 C 
ATOM     10  C   UNL     1      35.529 -22.472 -14.381  0.00  0.00    +0.187 A 
ATOM     11  H   UNL     1      30.677 -24.639 -12.791  0.00  0.00    +0.148 HD
ENDROOT
BRANCH   1  12
ATOM     12  C   UNL     1      30.657 -23.960 -14.786  0.00  0.00    +0.070 C 
ATOM     13  C   UNL     1      29.521 -24.951 -15.061  0.00  0.00    +0.020 C 
ATOM     14  C   UNL     1      30.171 -22.510 -14.866  0.00  0.00    +0.020 C 
ATOM     15  C   UNL     1      28.284 -24.685 -14.202  0.00  0.00    +0.002 C 
ATOM     16  C   UNL     1      28.931 -22.253 -14.008  0.00  0.00    +0.002 C 
ATOM     17  C   UNL     1      27.812 -23.240 -14.326  0.00  0.00    +0.000 C 
ENDBRANCH   1  12
BRANCH  10  18
ATOM     18  C   UNL     1      35.378 -22.026 -15.745  0.00  0.00    +0.038 C 
ATOM     19  C   UNL     1      34.190 -22.272 -16.432  0.00  0.00    +0.007 C 
ATOM     20  C   UNL     1      36.422 -21.349 -16.375  0.00  0.00    +0.003 C 
ATOM     21  C   UNL     1      34.045 -21.841 -17.751  0.00  0.00    +0.072 C 
ATOM     22  C   UNL     1      36.278 -20.918 -17.694  0.00  0.00    +0.000 C 
ATOM     23  C   UNL     1      35.089 -21.165 -18.382  0.00  0.00    +0.004 C 
BRANCH  21  27
ATOM     24  F   UNL     1      31.672 -22.132 -17.682  0.00  0.00    -0.166 F 
ATOM     25  F   UNL     1      32.494 -21.168 -19.442  0.00  0.00    -0.166 F 
ATOM     26  F   UNL     1      32.784 -23.302 -19.140  0.00  0.00    -0.166 F 
ATOM     27  C   UNL     1      32.775 -22.103 -18.487  0.00  0.00    +0.419 C 
ENDBRANCH  21  27
ENDBRANCH  10  18
TORSDOF 3
ENDMDL
MODEL 9
REMARK VINA RESULT:      -9.9     12.658     15.377
REMARK  Name = 10361208
REMARK  3 active torsions:
REMARK  status: ('A' for Active; 'I' for Inactive)
REMARK    1  A    between atoms: N_1  and  C_12
REMARK    2  A    between atoms: C_10  and  C_18
REMARK    3  A    between atoms: C_21  and  C_27
REMARK                            x       y       z     vdW  Elec       q    Type
REMARK                         _______ _______ _______ _____ _____    ______ ____
ROOT
ATOM      1  N   UNL     1      31.552  -7.862 -22.053  0.00  0.00    -0.318 N 
ATOM      2  N   UNL     1      31.669 -10.142 -21.794  0.00  0.00    -0.147 NA
ATOM      3  N   UNL     1      31.447 -11.180 -20.950  0.00  0.00    -0.190 N 
ATOM      4  N   UNL     1      30.886 -12.349 -19.178  0.00  0.00    -0.127 NA
ATOM      5  N   UNL     1      31.336 -13.218 -20.151  0.00  0.00    -0.127 NA
ATOM      6  C   UNL     1      31.371  -8.961 -21.303  0.00  0.00    +0.149 C 
ATOM      7  C   UNL     1      30.826  -8.779 -19.911  0.00  0.00    +0.039 C 
ATOM      8  C   UNL     1      30.956 -11.129 -19.667  0.00  0.00    +0.187 A 
ATOM      9  C   UNL     1      30.639  -9.861 -19.146  0.00  0.00    +0.044 C 
ATOM     10  C   UNL     1      31.667 -12.502 -21.202  0.00  0.00    +0.187 A 
ATOM     11  H   UNL     1      31.338  -6.984 -21.660  0.00  0.00    +0.148 HD
ENDROOT
BRANCH   1  12
ATOM     12  C   UNL     1      32.050  -7.911 -23.414  0.00  0.00    +0.070 C 
ATOM     13  C   UNL     1      31.622  -6.653 -24.176  0.00  0.00    +0.020 C 
ATOM     14  C   UNL     1      33.573  -8.077 -23.412  0.00  0.00    +0.020 C 
ATOM     15  C   UNL     1      32.361  -5.398 -23.709  0.00  0.00    +0.002 C 
ATOM     16  C   UNL     1      34.304  -6.817 -22.947  0.00  0.00    +0.002 C 
ATOM     17  C   UNL     1      33.873  -5.589 -23.743  0.00  0.00    +0.000 C 
ENDBRANCH   1  12
BRANCH  10  18
ATOM     18  C   UNL     1      32.186 -13.010 -22.449  0.00  0.00    +0.038 C 
ATOM     19  C   UNL     1      32.533 -14.356 -22.565  0.00  0.00    +0.007 C 
ATOM     20  C   UNL     1      32.342 -12.153 -23.538  0.00  0.00    +0.003 C 
ATOM     21  C   UNL     1      33.035 -14.845 -23.770  0.00  0.00    +0.072 C 
ATOM     22  C   UNL     1      32.845 -12.642 -24.745  0.00  0.00    +0.000 C 
ATOM     23  C   UNL     1      33.191 -13.989 -24.860  0.00  0.00    +0.004 C 
BRANCH  21  27
ATOM     24  F   UNL     1      34.519 -16.499 -24.656  0.00  0.00    -0.166 F 
ATOM     25  F   UNL     1      33.668 -16.888 -22.699  0.00  0.00    -0.166 F 
ATOM     26  F   UNL     1      32.418 -17.031 -24.473  0.00  0.00    -0.166 F 
ATOM     27  C   UNL     1      33.405 -16.285 -23.896  0.00  0.00    +0.419 C 
ENDBRANCH  21  27
ENDBRANCH  10  18
TORSDOF 3
ENDMDL
