MODEL 1
REMARK VINA RESULT:     -11.7      0.000      0.000
REMARK  Name = 9804992
REMARK  10 active torsions:
REMARK  status: ('A' for Active; 'I' for Inactive)
REMARK    1  A    between atoms: C_1  and  C_9
REMARK    2  A    between atoms: C_1  and  O_19
REMARK    3  A    between atoms: C_2  and  C_12
REMARK    4  A    between atoms: C_12  and  N_13
REMARK    5  A    between atoms: N_13  and  C_15
REMARK    6  A    between atoms: N_13  and  C_17
REMARK    7  A    between atoms: O_19  and  C_22
REMARK    8  A    between atoms: N_21  and  C_24
REMARK    9  A    between atoms: C_27  and  C_32
REMARK   10  A    between atoms: N_31  and  O_34
REMARK                            x       y       z     vdW  Elec       q    Type
REMARK                         _______ _______ _______ _____ _____    ______ ____
ROOT
ATOM      1  C   UNL     1      35.863 -20.535 -19.569  0.00  0.00    +0.237 C 
ENDROOT
BRANCH   1   9
ATOM      2  C   UNL     1      31.654 -23.051 -15.275  0.00  0.00    -0.043 C 
ATOM      3  C   UNL     1      32.521 -21.975 -17.276  0.00  0.00    -0.000 C 
ATOM      4  C   UNL     1      33.836 -22.112 -16.772  0.00  0.00    -0.000 C 
ATOM      5  C   UNL     1      31.440 -22.449 -16.515  0.00  0.00    -0.006 C 
ATOM      6  C   UNL     1      32.947 -23.186 -14.779  0.00  0.00    -0.006 C 
ATOM      7  C   UNL     1      34.032 -22.720 -15.521  0.00  0.00    -0.000 C 
ATOM      8  C   UNL     1      34.916 -21.637 -17.533  0.00  0.00    -0.001 C 
ATOM      9  C   UNL     1      34.703 -21.034 -18.774  0.00  0.00    +0.021 C 
ATOM     10  C   UNL     1      32.325 -21.366 -18.527  0.00  0.00    -0.000 C 
ATOM     11  C   UNL     1      33.410 -20.900 -19.270  0.00  0.00    -0.001 C 
BRANCH   2  12
ATOM     12  C   UNL     1      30.494 -23.549 -14.479  0.00  0.00    -0.050 C 
BRANCH  12  13
ATOM     13  N   UNL     1      29.221 -23.373 -15.179  0.00  0.00    +0.390 N 
ATOM     14  H   UNL     1      29.415 -23.145 -16.154  0.00  0.00    -0.079 HD
BRANCH  13  15
ATOM     15  C   UNL     1      28.442 -24.609 -15.139  0.00  0.00    -0.077 C 
ATOM     16  C   UNL     1      28.597 -25.313 -13.803  0.00  0.00    -0.025 C 
ENDBRANCH  13  15
BRANCH  13  17
ATOM     17  C   UNL     1      28.464 -22.271 -14.589  0.00  0.00    -0.077 C 
ATOM     18  C   UNL     1      27.032 -22.253 -15.098  0.00  0.00    -0.025 C 
ENDBRANCH  13  17
ENDBRANCH  12  13
ENDBRANCH   2  12
ENDBRANCH   1   9
BRANCH   1  19
ATOM     19  O   UNL     1      35.958 -19.123 -19.430  0.00  0.00    -0.429 OA
BRANCH  19  22
ATOM     20  O   UNL     1      36.868 -18.301 -21.360  0.00  0.00    -0.226 OA
ATOM     21  N   UNL     1      34.671 -17.810 -20.716  0.00  0.00    -0.250 N 
ATOM     22  C   UNL     1      35.918 -18.390 -20.591  0.00  0.00    +0.406 C 
ATOM     23  H   UNL     1      34.032 -17.999 -19.990  0.00  0.00    +0.158 HD
BRANCH  21  24
ATOM     24  C   UNL     1      34.198 -16.978 -21.756  0.00  0.00    +0.053 C 
ATOM     25  C   UNL     1      33.888 -17.527 -23.001  0.00  0.00    +0.015 C 
ATOM     26  C   UNL     1      34.044 -15.609 -21.539  0.00  0.00    +0.015 C 
ATOM     27  C   UNL     1      33.268 -15.336 -23.810  0.00  0.00    +0.055 C 
ATOM     28  C   UNL     1      33.423 -16.706 -24.028  0.00  0.00    +0.006 C 
ATOM     29  C   UNL     1      33.578 -14.788 -22.566  0.00  0.00    +0.006 C 
BRANCH  27  32
ATOM     30  O   UNL     1      32.332 -14.971 -25.933  0.00  0.00    -0.268 OA
ATOM     31  N   UNL     1      32.858 -13.110 -24.681  0.00  0.00    -0.193 N 
ATOM     32  C   UNL     1      32.783 -14.481 -24.882  0.00  0.00    +0.268 C 
ATOM     33  H   UNL     1      33.217 -12.730 -23.845  0.00  0.00    +0.183 HD
BRANCH  31  34
ATOM     34  O   UNL     1      32.401 -12.291 -25.723  0.00  0.00    -0.295 OA
ATOM     35  H   UNL     1      32.385 -12.797 -26.550  0.00  0.00    +0.241 HD
ENDBRANCH  31  34
ENDBRANCH  27  32
ENDBRANCH  21  24
ENDBRANCH  19  22
ENDBRANCH   1  19
TORSDOF 10
ENDMDL
MODEL 2
REMARK VINA RESULT:     -11.7      3.522     11.639
REMARK  Name = 9804992
REMARK  10 active torsions:
REMARK  status: ('A' for Active; 'I' for Inactive)
REMARK    1  A    between atoms: C_1  and  C_9
REMARK    2  A    between atoms: C_1  and  O_19
REMARK    3  A    between atoms: C_2  and  C_12
REMARK    4  A    between atoms: C_12  and  N_13
REMARK    5  A    between atoms: N_13  and  C_15
REMARK    6  A    between atoms: N_13  and  C_17
REMARK    7  A    between atoms: O_19  and  C_22
REMARK    8  A    between atoms: N_21  and  C_24
REMARK    9  A    between atoms: C_27  and  C_32
REMARK   10  A    between atoms: N_31  and  O_34
REMARK                            x       y       z     vdW  Elec       q    Type
REMARK                         _______ _______ _______ _____ _____    ______ ____
ROOT
ATOM      1  C   UNL     1      33.814 -17.529 -22.823  0.00  0.00    +0.237 C 
ENDROOT
BRANCH   1   9
ATOM      2  C   UNL     1      32.876 -11.260 -24.340  0.00  0.00    -0.043 C 
ATOM      3  C   UNL     1      33.378 -13.256 -23.045  0.00  0.00    -0.000 C 
ATOM      4  C   UNL     1      33.162 -14.050 -24.196  0.00  0.00    -0.000 C 
ATOM      5  C   UNL     1      33.231 -11.862 -23.133  0.00  0.00    -0.006 C 
ATOM      6  C   UNL     1      32.664 -12.041 -25.473  0.00  0.00    -0.006 C 
ATOM      7  C   UNL     1      32.805 -13.426 -25.403  0.00  0.00    -0.000 C 
ATOM      8  C   UNL     1      33.308 -15.443 -24.107  0.00  0.00    -0.001 C 
ATOM      9  C   UNL     1      33.663 -16.047 -22.899  0.00  0.00    +0.021 C 
ATOM     10  C   UNL     1      33.735 -13.880 -21.838  0.00  0.00    -0.000 C 
ATOM     11  C   UNL     1      33.877 -15.266 -21.767  0.00  0.00    -0.001 C 
BRANCH   2  12
ATOM     12  C   UNL     1      32.724  -9.778 -24.417  0.00  0.00    -0.050 C 
BRANCH  12  13
ATOM     13  N   UNL     1      33.104  -9.114 -23.170  0.00  0.00    +0.390 N 
ATOM     14  H   UNL     1      33.303  -9.827 -22.469  0.00  0.00    -0.079 HD
BRANCH  13  15
ATOM     15  C   UNL     1      34.310  -8.311 -23.367  0.00  0.00    -0.077 C 
ATOM     16  C   UNL     1      34.184  -6.956 -22.693  0.00  0.00    -0.025 C 
ENDBRANCH  13  15
BRANCH  13  17
ATOM     17  C   UNL     1      32.008  -8.280 -22.681  0.00  0.00    -0.077 C 
ATOM     18  C   UNL     1      31.312  -8.926 -21.495  0.00  0.00    -0.025 C 
ENDBRANCH  13  17
ENDBRANCH  12  13
ENDBRANCH   2  12
ENDBRANCH   1   9
BRANCH   1  19
ATOM     19  O   UNL     1      35.061 -17.846 -22.218  0.00  0.00    -0.429 OA
BRANCH  19  22
ATOM     20  O   UNL     1      35.704 -18.030 -20.031  0.00  0.00    -0.226 OA
ATOM     21  N   UNL     1      34.066 -19.419 -20.963  0.00  0.00    -0.250 N 
ATOM     22  C   UNL     1      35.007 -18.408 -20.965  0.00  0.00    +0.406 C 
ATOM     23  H   UNL     1      33.601 -19.577 -21.816  0.00  0.00    +0.158 HD
BRANCH  21  24
ATOM     24  C   UNL     1      33.689 -20.255 -19.887  0.00  0.00    +0.053 C 
ATOM     25  C   UNL     1      32.346 -20.360 -19.524  0.00  0.00    +0.015 C 
ATOM     26  C   UNL     1      34.659 -20.975 -19.189  0.00  0.00    +0.015 C 
ATOM     27  C   UNL     1      32.944 -21.904 -17.764  0.00  0.00    +0.055 C 
ATOM     28  C   UNL     1      31.974 -21.184 -18.462  0.00  0.00    +0.006 C 
ATOM     29  C   UNL     1      34.287 -21.799 -18.127  0.00  0.00    +0.006 C 
BRANCH  27  32
ATOM     30  O   UNL     1      33.362 -23.575 -16.167  0.00  0.00    -0.268 OA
ATOM     31  N   UNL     1      31.256 -22.641 -16.187  0.00  0.00    -0.193 N 
ATOM     32  C   UNL     1      32.556 -22.762 -16.657  0.00  0.00    +0.268 C 
ATOM     33  H   UNL     1      30.624 -21.995 -16.580  0.00  0.00    +0.183 HD
BRANCH  31  34
ATOM     34  O   UNL     1      30.883 -23.481 -15.128  0.00  0.00    -0.295 OA
ATOM     35  H   UNL     1      30.113 -23.106 -14.673  0.00  0.00    +0.241 HD
ENDBRANCH  31  34
ENDBRANCH  27  32
ENDBRANCH  21  24
ENDBRANCH  19  22
ENDBRANCH   1  19
TORSDOF 10
ENDMDL
MODEL 3
REMARK VINA RESULT:     -11.4      2.768      3.949
REMARK  Name = 9804992
REMARK  10 active torsions:
REMARK  status: ('A' for Active; 'I' for Inactive)
REMARK    1  A    between atoms: C_1  and  C_9
REMARK    2  A    between atoms: C_1  and  O_19
REMARK    3  A    between atoms: C_2  and  C_12
REMARK    4  A    between atoms: C_12  and  N_13
REMARK    5  A    between atoms: N_13  and  C_15
REMARK    6  A    between atoms: N_13  and  C_17
REMARK    7  A    between atoms: O_19  and  C_22
REMARK    8  A    between atoms: N_21  and  C_24
REMARK    9  A    between atoms: C_27  and  C_32
REMARK   10  A    between atoms: N_31  and  O_34
REMARK                            x       y       z     vdW  Elec       q    Type
REMARK                         _______ _______ _______ _____ _____    ______ ____
ROOT
ATOM      1  C   UNL     1      34.606 -20.337 -19.868  0.00  0.00    +0.237 C 
ENDROOT
BRANCH   1   9
ATOM      2  C   UNL     1      35.020 -23.345 -14.100  0.00  0.00    -0.043 C 
ATOM      3  C   UNL     1      34.103 -22.520 -16.196  0.00  0.00    -0.000 C 
ATOM      4  C   UNL     1      35.349 -21.920 -16.498  0.00  0.00    -0.000 C 
ATOM      5  C   UNL     1      33.955 -23.229 -14.993  0.00  0.00    -0.006 C 
ATOM      6  C   UNL     1      36.245 -22.755 -14.397  0.00  0.00    -0.006 C 
ATOM      7  C   UNL     1      36.410 -22.047 -15.587  0.00  0.00    -0.000 C 
ATOM      8  C   UNL     1      35.497 -21.211 -17.701  0.00  0.00    -0.001 C 
ATOM      9  C   UNL     1      34.431 -21.095 -18.595  0.00  0.00    +0.021 C 
ATOM     10  C   UNL     1      33.041 -22.393 -17.107  0.00  0.00    -0.000 C 
ATOM     11  C   UNL     1      33.206 -21.685 -18.299  0.00  0.00    -0.001 C 
BRANCH   2  12
ATOM     12  C   UNL     1      34.845 -24.101 -12.826  0.00  0.00    -0.050 C 
BRANCH  12  13
ATOM     13  N   UNL     1      36.123 -24.425 -12.190  0.00  0.00    +0.390 N 
ATOM     14  H   UNL     1      36.876 -24.053 -12.768  0.00  0.00    -0.079 HD
BRANCH  13  15
ATOM     15  C   UNL     1      36.205 -23.804 -10.869  0.00  0.00    -0.077 C 
ATOM     16  C   UNL     1      34.922 -24.012 -10.083  0.00  0.00    -0.025 C 
ENDBRANCH  13  15
BRANCH  13  17
ATOM     17  C   UNL     1      36.289 -25.873 -12.088  0.00  0.00    -0.077 C 
ATOM     18  C   UNL     1      36.391 -26.513 -13.462  0.00  0.00    -0.025 C 
ENDBRANCH  13  17
ENDBRANCH  12  13
ENDBRANCH   2  12
ENDBRANCH   1   9
BRANCH   1  19
ATOM     19  O   UNL     1      35.702 -19.441 -19.737  0.00  0.00    -0.429 OA
BRANCH  19  22
ATOM     20  O   UNL     1      36.726 -18.210 -21.370  0.00  0.00    -0.226 OA
ATOM     21  N   UNL     1      34.585 -17.686 -20.580  0.00  0.00    -0.250 N 
ATOM     22  C   UNL     1      35.760 -18.409 -20.643  0.00  0.00    +0.406 C 
ATOM     23  H   UNL     1      33.918 -18.002 -19.928  0.00  0.00    +0.158 HD
BRANCH  21  24
ATOM     24  C   UNL     1      34.222 -16.548 -21.336  0.00  0.00    +0.053 C 
ATOM     25  C   UNL     1      34.199 -16.614 -22.729  0.00  0.00    +0.015 C 
ATOM     26  C   UNL     1      33.888 -15.358 -20.688  0.00  0.00    +0.015 C 
ATOM     27  C   UNL     1      33.508 -14.301 -22.827  0.00  0.00    +0.055 C 
ATOM     28  C   UNL     1      33.842 -15.491 -23.475  0.00  0.00    +0.006 C 
ATOM     29  C   UNL     1      33.531 -14.235 -21.434  0.00  0.00    +0.006 C 
BRANCH  27  32
ATOM     30  O   UNL     1      32.511 -13.249 -24.675  0.00  0.00    -0.268 OA
ATOM     31  N   UNL     1      33.519 -11.893 -23.109  0.00  0.00    -0.193 N 
ATOM     32  C   UNL     1      33.136 -13.130 -23.605  0.00  0.00    +0.268 C 
ATOM     33  H   UNL     1      34.013 -11.808 -22.261  0.00  0.00    +0.183 HD
BRANCH  31  34
ATOM     34  O   UNL     1      33.168 -10.768 -23.871  0.00  0.00    -0.295 OA
ATOM     35  H   UNL     1      33.917 -10.153 -23.903  0.00  0.00    +0.241 HD
ENDBRANCH  31  34
ENDBRANCH  27  32
ENDBRANCH  21  24
ENDBRANCH  19  22
ENDBRANCH   1  19
TORSDOF 10
ENDMDL
MODEL 4
REMARK VINA RESULT:     -11.0      4.172     10.878
REMARK  Name = 9804992
REMARK  10 active torsions:
REMARK  status: ('A' for Active; 'I' for Inactive)
REMARK    1  A    between atoms: C_1  and  C_9
REMARK    2  A    between atoms: C_1  and  O_19
REMARK    3  A    between atoms: C_2  and  C_12
REMARK    4  A    between atoms: C_12  and  N_13
REMARK    5  A    between atoms: N_13  and  C_15
REMARK    6  A    between atoms: N_13  and  C_17
REMARK    7  A    between atoms: O_19  and  C_22
REMARK    8  A    between atoms: N_21  and  C_24
REMARK    9  A    between atoms: C_27  and  C_32
REMARK   10  A    between atoms: N_31  and  O_34
REMARK                            x       y       z     vdW  Elec       q    Type
REMARK                         _______ _______ _______ _____ _____    ______ ____
ROOT
ATOM      1  C   UNL     1      34.737 -16.396 -22.446  0.00  0.00    +0.237 C 
ENDROOT
BRANCH   1   9
ATOM      2  C   UNL     1      31.049 -11.325 -20.668  0.00  0.00    -0.043 C 
ATOM      3  C   UNL     1      32.445 -12.781 -22.026  0.00  0.00    -0.000 C 
ATOM      4  C   UNL     1      32.545 -13.686 -20.942  0.00  0.00    -0.000 C 
ATOM      5  C   UNL     1      31.694 -11.605 -21.873  0.00  0.00    -0.006 C 
ATOM      6  C   UNL     1      31.146 -12.215 -19.602  0.00  0.00    -0.006 C 
ATOM      7  C   UNL     1      31.888 -13.388 -19.737  0.00  0.00    -0.000 C 
ATOM      8  C   UNL     1      33.296 -14.862 -21.096  0.00  0.00    -0.001 C 
ATOM      9  C   UNL     1      33.942 -15.142 -22.301  0.00  0.00    +0.021 C 
ATOM     10  C   UNL     1      33.102 -13.079 -23.232  0.00  0.00    -0.000 C 
ATOM     11  C   UNL     1      33.845 -14.253 -23.367  0.00  0.00    -0.001 C 
BRANCH   2  12
ATOM     12  C   UNL     1      30.255 -10.070 -20.522  0.00  0.00    -0.050 C 
BRANCH  12  13
ATOM     13  N   UNL     1      31.085  -8.870 -20.622  0.00  0.00    +0.390 N 
ATOM     14  H   UNL     1      32.032  -9.150 -20.877  0.00  0.00    -0.079 HD
BRANCH  13  15
ATOM     15  C   UNL     1      30.571  -7.980 -21.662  0.00  0.00    -0.077 C 
ATOM     16  C   UNL     1      31.380  -8.107 -22.942  0.00  0.00    -0.025 C 
ENDBRANCH  13  15
BRANCH  13  17
ATOM     17  C   UNL     1      31.139  -8.178 -19.336  0.00  0.00    -0.077 C 
ATOM     18  C   UNL     1      31.914  -6.875 -19.445  0.00  0.00    -0.025 C 
ENDBRANCH  13  17
ENDBRANCH  12  13
ENDBRANCH   2  12
ENDBRANCH   1   9
BRANCH   1  19
ATOM     19  O   UNL     1      33.966 -17.365 -23.145  0.00  0.00    -0.429 OA
BRANCH  19  22
ATOM     20  O   UNL     1      34.060 -19.648 -23.256  0.00  0.00    -0.226 OA
ATOM     21  N   UNL     1      33.713 -18.517 -21.235  0.00  0.00    -0.250 N 
ATOM     22  C   UNL     1      33.924 -18.624 -22.596  0.00  0.00    +0.406 C 
ATOM     23  H   UNL     1      33.629 -17.601 -20.882  0.00  0.00    +0.158 HD
BRANCH  21  24
ATOM     24  C   UNL     1      33.604 -19.559 -20.287  0.00  0.00    +0.053 C 
ATOM     25  C   UNL     1      34.755 -20.162 -19.777  0.00  0.00    +0.015 C 
ATOM     26  C   UNL     1      32.346 -19.986 -19.861  0.00  0.00    +0.015 C 
ATOM     27  C   UNL     1      33.388 -21.618 -18.416  0.00  0.00    +0.055 C 
ATOM     28  C   UNL     1      34.647 -21.191 -18.842  0.00  0.00    +0.006 C 
ATOM     29  C   UNL     1      32.238 -21.016 -18.926  0.00  0.00    +0.006 C 
BRANCH  27  32
ATOM     30  O   UNL     1      32.611 -23.713 -17.692  0.00  0.00    -0.268 OA
ATOM     31  N   UNL     1      33.930 -22.516 -16.230  0.00  0.00    -0.193 N 
ATOM     32  C   UNL     1      33.277 -22.691 -17.442  0.00  0.00    +0.268 C 
ATOM     33  H   UNL     1      34.455 -21.705 -16.040  0.00  0.00    +0.183 HD
BRANCH  31  34
ATOM     34  O   UNL     1      33.808 -23.549 -15.290  0.00  0.00    -0.295 OA
ATOM     35  H   UNL     1      33.316 -24.288 -15.681  0.00  0.00    +0.241 HD
ENDBRANCH  31  34
ENDBRANCH  27  32
ENDBRANCH  21  24
ENDBRANCH  19  22
ENDBRANCH   1  19
TORSDOF 10
ENDMDL
MODEL 5
REMARK VINA RESULT:     -10.8      2.758      3.938
REMARK  Name = 9804992
REMARK  10 active torsions:
REMARK  status: ('A' for Active; 'I' for Inactive)
REMARK    1  A    between atoms: C_1  and  C_9
REMARK    2  A    between atoms: C_1  and  O_19
REMARK    3  A    between atoms: C_2  and  C_12
REMARK    4  A    between atoms: C_12  and  N_13
REMARK    5  A    between atoms: N_13  and  C_15
REMARK    6  A    between atoms: N_13  and  C_17
REMARK    7  A    between atoms: O_19  and  C_22
REMARK    8  A    between atoms: N_21  and  C_24
REMARK    9  A    between atoms: C_27  and  C_32
REMARK   10  A    between atoms: N_31  and  O_34
REMARK                            x       y       z     vdW  Elec       q    Type
REMARK                         _______ _______ _______ _____ _____    ______ ____
ROOT
ATOM      1  C   UNL     1      35.044 -20.503 -20.053  0.00  0.00    +0.237 C 
ENDROOT
BRANCH   1   9
ATOM      2  C   UNL     1      34.756 -23.031 -14.052  0.00  0.00    -0.043 C 
ATOM      3  C   UNL     1      34.096 -22.377 -16.299  0.00  0.00    -0.000 C 
ATOM      4  C   UNL     1      35.376 -21.808 -16.503  0.00  0.00    -0.000 C 
ATOM      5  C   UNL     1      33.802 -22.984 -15.068  0.00  0.00    -0.006 C 
ATOM      6  C   UNL     1      36.015 -22.472 -14.252  0.00  0.00    -0.006 C 
ATOM      7  C   UNL     1      36.324 -21.864 -15.468  0.00  0.00    -0.000 C 
ATOM      8  C   UNL     1      35.669 -21.200 -17.734  0.00  0.00    -0.001 C 
ATOM      9  C   UNL     1      34.715 -21.153 -18.751  0.00  0.00    +0.021 C 
ATOM     10  C   UNL     1      33.147 -22.320 -17.334  0.00  0.00    -0.000 C 
ATOM     11  C   UNL     1      33.456 -21.713 -18.551  0.00  0.00    -0.001 C 
BRANCH   2  12
ATOM     12  C   UNL     1      34.427 -23.680 -12.749  0.00  0.00    -0.050 C 
BRANCH  12  13
ATOM     13  N   UNL     1      35.092 -24.973 -12.588  0.00  0.00    +0.390 N 
ATOM     14  H   UNL     1      34.392 -25.711 -12.665  0.00  0.00    -0.079 HD
BRANCH  13  15
ATOM     15  C   UNL     1      36.087 -25.169 -13.641  0.00  0.00    -0.077 C 
ATOM     16  C   UNL     1      35.800 -26.428 -14.441  0.00  0.00    -0.025 C 
ENDBRANCH  13  15
BRANCH  13  17
ATOM     17  C   UNL     1      35.717 -25.064 -11.269  0.00  0.00    -0.077 C 
ATOM     18  C   UNL     1      37.096 -24.428 -11.270  0.00  0.00    -0.025 C 
ENDBRANCH  13  17
ENDBRANCH  12  13
ENDBRANCH   2  12
ENDBRANCH   1   9
BRANCH   1  19
ATOM     19  O   UNL     1      34.889 -19.095 -19.930  0.00  0.00    -0.429 OA
BRANCH  19  22
ATOM     20  O   UNL     1      33.260 -19.037 -21.534  0.00  0.00    -0.226 OA
ATOM     21  N   UNL     1      34.579 -17.168 -21.037  0.00  0.00    -0.250 N 
ATOM     22  C   UNL     1      34.150 -18.474 -20.908  0.00  0.00    +0.406 C 
ATOM     23  H   UNL     1      35.313 -16.893 -20.440  0.00  0.00    +0.158 HD
BRANCH  21  24
ATOM     24  C   UNL     1      34.095 -16.176 -21.920  0.00  0.00    +0.053 C 
ATOM     25  C   UNL     1      33.705 -14.931 -21.424  0.00  0.00    +0.015 C 
ATOM     26  C   UNL     1      34.006 -16.441 -23.287  0.00  0.00    +0.015 C 
ATOM     27  C   UNL     1      33.138 -14.219 -23.663  0.00  0.00    +0.055 C 
ATOM     28  C   UNL     1      33.227 -13.952 -22.296  0.00  0.00    +0.006 C 
ATOM     29  C   UNL     1      33.527 -15.463 -24.158  0.00  0.00    +0.006 C 
BRANCH  27  32
ATOM     30  O   UNL     1      32.938 -12.001 -24.409  0.00  0.00    -0.268 OA
ATOM     31  N   UNL     1      31.813 -13.618 -25.603  0.00  0.00    -0.193 N 
ATOM     32  C   UNL     1      32.638 -13.198 -24.570  0.00  0.00    +0.268 C 
ATOM     33  H   UNL     1      31.581 -14.569 -25.724  0.00  0.00    +0.183 HD
BRANCH  31  34
ATOM     34  O   UNL     1      31.325 -12.628 -26.467  0.00  0.00    -0.295 OA
ATOM     35  H   UNL     1      31.036 -11.860 -25.950  0.00  0.00    +0.241 HD
ENDBRANCH  31  34
ENDBRANCH  27  32
ENDBRANCH  21  24
ENDBRANCH  19  22
ENDBRANCH   1  19
TORSDOF 10
ENDMDL
MODEL 6
REMARK VINA RESULT:     -10.6      1.867      2.938
REMARK  Name = 9804992
REMARK  10 active torsions:
REMARK  status: ('A' for Active; 'I' for Inactive)
REMARK    1  A    between atoms: C_1  and  C_9
REMARK    2  A    between atoms: C_1  and  O_19
REMARK    3  A    between atoms: C_2  and  C_12
REMARK    4  A    between atoms: C_12  and  N_13
REMARK    5  A    between atoms: N_13  and  C_15
REMARK    6  A    between atoms: N_13  and  C_17
REMARK    7  A    between atoms: O_19  and  C_22
REMARK    8  A    between atoms: N_21  and  C_24
REMARK    9  A    between atoms: C_27  and  C_32
REMARK   10  A    between atoms: N_31  and  O_34
REMARK                            x       y       z     vdW  Elec       q    Type
REMARK                         _______ _______ _______ _____ _____    ______ ____
ROOT
ATOM      1  C   UNL     1      34.648 -18.863 -21.556  0.00  0.00    +0.237 C 
ENDROOT
BRANCH   1   9
ATOM      2  C   UNL     1      32.699 -22.594 -16.580  0.00  0.00    -0.043 C 
ATOM      3  C   UNL     1      32.614 -21.164 -18.546  0.00  0.00    -0.000 C 
ATOM      4  C   UNL     1      34.027 -21.092 -18.546  0.00  0.00    -0.000 C 
ATOM      5  C   UNL     1      31.965 -21.919 -17.556  0.00  0.00    -0.006 C 
ATOM      6  C   UNL     1      34.088 -22.524 -16.581  0.00  0.00    -0.006 C 
ATOM      7  C   UNL     1      34.750 -21.778 -17.556  0.00  0.00    -0.000 C 
ATOM      8  C   UNL     1      34.676 -20.337 -19.536  0.00  0.00    -0.001 C 
ATOM      9  C   UNL     1      33.942 -19.661 -20.512  0.00  0.00    +0.021 C 
ATOM     10  C   UNL     1      31.891 -20.478 -19.536  0.00  0.00    -0.000 C 
ATOM     11  C   UNL     1      32.552 -19.732 -20.512  0.00  0.00    -0.001 C 
BRANCH   2  12
ATOM     12  C   UNL     1      31.993 -23.392 -15.535  0.00  0.00    -0.050 C 
BRANCH  12  13
ATOM     13  N   UNL     1      30.824 -22.695 -14.998  0.00  0.00    +0.390 N 
ATOM     14  H   UNL     1      30.787 -21.760 -15.404  0.00  0.00    -0.079 HD
BRANCH  13  15
ATOM     15  C   UNL     1      29.597 -23.404 -15.359  0.00  0.00    -0.077 C 
ATOM     16  C   UNL     1      28.412 -22.456 -15.419  0.00  0.00    -0.025 C 
ENDBRANCH  13  15
BRANCH  13  17
ATOM     17  C   UNL     1      30.931 -22.564 -13.546  0.00  0.00    -0.077 C 
ATOM     18  C   UNL     1      30.839 -23.919 -12.864  0.00  0.00    -0.025 C 
ENDBRANCH  13  17
ENDBRANCH  12  13
ENDBRANCH   2  12
ENDBRANCH   1   9
BRANCH   1  19
ATOM     19  O   UNL     1      33.983 -19.021 -22.802  0.00  0.00    -0.429 OA
BRANCH  19  22
ATOM     20  O   UNL     1      32.833 -17.876 -24.414  0.00  0.00    -0.226 OA
ATOM     21  N   UNL     1      33.929 -16.782 -22.658  0.00  0.00    -0.250 N 
ATOM     22  C   UNL     1      33.513 -17.874 -23.394  0.00  0.00    +0.406 C 
ATOM     23  H   UNL     1      34.473 -16.981 -21.861  0.00  0.00    +0.158 HD
BRANCH  21  24
ATOM     24  C   UNL     1      33.671 -15.414 -22.907  0.00  0.00    +0.053 C 
ATOM     25  C   UNL     1      33.836 -14.477 -21.886  0.00  0.00    +0.015 C 
ATOM     26  C   UNL     1      33.252 -15.002 -24.172  0.00  0.00    +0.015 C 
ATOM     27  C   UNL     1      33.161 -12.716 -23.397  0.00  0.00    +0.055 C 
ATOM     28  C   UNL     1      33.581 -13.128 -22.131  0.00  0.00    +0.006 C 
ATOM     29  C   UNL     1      32.997 -13.653 -24.417  0.00  0.00    +0.006 C 
BRANCH  27  32
ATOM     30  O   UNL     1      33.103 -10.815 -24.775  0.00  0.00    -0.268 OA
ATOM     31  N   UNL     1      32.416 -10.554 -22.591  0.00  0.00    -0.193 N 
ATOM     32  C   UNL     1      32.895 -11.309 -23.651  0.00  0.00    +0.268 C 
ATOM     33  H   UNL     1      32.253 -10.953 -21.705  0.00  0.00    +0.183 HD
BRANCH  31  34
ATOM     34  O   UNL     1      32.173  -9.195 -22.839  0.00  0.00    -0.295 OA
ATOM     35  H   UNL     1      32.115  -9.046 -23.796  0.00  0.00    +0.241 HD
ENDBRANCH  31  34
ENDBRANCH  27  32
ENDBRANCH  21  24
ENDBRANCH  19  22
ENDBRANCH   1  19
TORSDOF 10
ENDMDL
MODEL 7
REMARK VINA RESULT:     -10.5      2.638      3.860
REMARK  Name = 9804992
REMARK  10 active torsions:
REMARK  status: ('A' for Active; 'I' for Inactive)
REMARK    1  A    between atoms: C_1  and  C_9
REMARK    2  A    between atoms: C_1  and  O_19
REMARK    3  A    between atoms: C_2  and  C_12
REMARK    4  A    between atoms: C_12  and  N_13
REMARK    5  A    between atoms: N_13  and  C_15
REMARK    6  A    between atoms: N_13  and  C_17
REMARK    7  A    between atoms: O_19  and  C_22
REMARK    8  A    between atoms: N_21  and  C_24
REMARK    9  A    between atoms: C_27  and  C_32
REMARK   10  A    between atoms: N_31  and  O_34
REMARK                            x       y       z     vdW  Elec       q    Type
REMARK                         _______ _______ _______ _____ _____    ______ ____
ROOT
ATOM      1  C   UNL     1      34.126 -20.202 -20.108  0.00  0.00    +0.237 C 
ENDROOT
BRANCH   1   9
ATOM      2  C   UNL     1      35.468 -23.140 -14.447  0.00  0.00    -0.043 C 
ATOM      3  C   UNL     1      34.240 -22.392 -16.409  0.00  0.00    -0.000 C 
ATOM      4  C   UNL     1      35.394 -21.710 -16.863  0.00  0.00    -0.000 C 
ATOM      5  C   UNL     1      34.293 -23.103 -15.199  0.00  0.00    -0.006 C 
ATOM      6  C   UNL     1      36.602 -22.469 -14.894  0.00  0.00    -0.006 C 
ATOM      7  C   UNL     1      36.567 -21.759 -16.093  0.00  0.00    -0.000 C 
ATOM      8  C   UNL     1      35.340 -21.000 -18.073  0.00  0.00    -0.001 C 
ATOM      9  C   UNL     1      34.165 -20.962 -18.825  0.00  0.00    +0.021 C 
ATOM     10  C   UNL     1      33.066 -22.344 -17.179  0.00  0.00    -0.000 C 
ATOM     11  C   UNL     1      33.031 -21.633 -18.379  0.00  0.00    -0.001 C 
BRANCH   2  12
ATOM     12  C   UNL     1      35.507 -23.899 -13.163  0.00  0.00    -0.050 C 
BRANCH  12  13
ATOM     13  N   UNL     1      34.935 -23.141 -12.050  0.00  0.00    +0.390 N 
ATOM     14  H   UNL     1      34.528 -22.281 -12.417  0.00  0.00    -0.079 HD
BRANCH  13  15
ATOM     15  C   UNL     1      33.876 -23.911 -11.400  0.00  0.00    -0.077 C 
ATOM     16  C   UNL     1      32.663 -24.048 -12.303  0.00  0.00    -0.025 C 
ENDBRANCH  13  15
BRANCH  13  17
ATOM     17  C   UNL     1      35.976 -22.786 -11.087  0.00  0.00    -0.077 C 
ATOM     18  C   UNL     1      37.165 -23.725 -11.192  0.00  0.00    -0.025 C 
ENDBRANCH  13  17
ENDBRANCH  12  13
ENDBRANCH   2  12
ENDBRANCH   1   9
BRANCH   1  19
ATOM     19  O   UNL     1      35.075 -19.145 -20.060  0.00  0.00    -0.429 OA
BRANCH  19  22
ATOM     20  O   UNL     1      35.490 -18.400 -22.182  0.00  0.00    -0.226 OA
ATOM     21  N   UNL     1      34.332 -17.101 -20.616  0.00  0.00    -0.250 N 
ATOM     22  C   UNL     1      35.009 -18.216 -21.070  0.00  0.00    +0.406 C 
ATOM     23  H   UNL     1      34.016 -17.138 -19.684  0.00  0.00    +0.158 HD
BRANCH  21  24
ATOM     24  C   UNL     1      34.037 -15.914 -21.323  0.00  0.00    +0.053 C 
ATOM     25  C   UNL     1      33.653 -14.766 -20.629  0.00  0.00    +0.015 C 
ATOM     26  C   UNL     1      34.128 -15.889 -22.715  0.00  0.00    +0.015 C 
ATOM     27  C   UNL     1      33.452 -13.570 -22.719  0.00  0.00    +0.055 C 
ATOM     28  C   UNL     1      33.360 -13.594 -21.327  0.00  0.00    +0.006 C 
ATOM     29  C   UNL     1      33.836 -14.717 -23.413  0.00  0.00    +0.006 C 
BRANCH  27  32
ATOM     30  O   UNL     1      33.197 -11.241 -22.880  0.00  0.00    -0.268 OA
ATOM     31  N   UNL     1      32.788 -12.478 -24.780  0.00  0.00    -0.193 N 
ATOM     32  C   UNL     1      33.146 -12.348 -23.446  0.00  0.00    +0.268 C 
ATOM     33  H   UNL     1      32.750 -13.358 -25.220  0.00  0.00    +0.183 HD
BRANCH  31  34
ATOM     34  O   UNL     1      32.482 -11.297 -25.471  0.00  0.00    -0.295 OA
ATOM     35  H   UNL     1      31.878 -10.756 -24.939  0.00  0.00    +0.241 HD
ENDBRANCH  31  34
ENDBRANCH  27  32
ENDBRANCH  21  24
ENDBRANCH  19  22
ENDBRANCH   1  19
TORSDOF 10
ENDMDL
MODEL 8
REMARK VINA RESULT:     -10.5      4.084     11.408
REMARK  Name = 9804992
REMARK  10 active torsions:
REMARK  status: ('A' for Active; 'I' for Inactive)
REMARK    1  A    between atoms: C_1  and  C_9
REMARK    2  A    between atoms: C_1  and  O_19
REMARK    3  A    between atoms: C_2  and  C_12
REMARK    4  A    between atoms: C_12  and  N_13
REMARK    5  A    between atoms: N_13  and  C_15
REMARK    6  A    between atoms: N_13  and  C_17
REMARK    7  A    between atoms: O_19  and  C_22
REMARK    8  A    between atoms: N_21  and  C_24
REMARK    9  A    between atoms: C_27  and  C_32
REMARK   10  A    between atoms: N_31  and  O_34
REMARK                            x       y       z     vdW  Elec       q    Type
REMARK                         _______ _______ _______ _____ _____    ______ ____
ROOT
ATOM      1  C   UNL     1      34.990 -21.337 -18.711  0.00  0.00    +0.237 C 
ENDROOT
BRANCH   1   9
ATOM      2  C   UNL     1      33.969 -16.921 -23.395  0.00  0.00    -0.043 C 
ATOM      3  C   UNL     1      34.966 -18.051 -21.486  0.00  0.00    -0.000 C 
ATOM      4  C   UNL     1      33.985 -19.066 -21.584  0.00  0.00    -0.000 C 
ATOM      5  C   UNL     1      34.944 -16.985 -22.400  0.00  0.00    -0.006 C 
ATOM      6  C   UNL     1      33.005 -17.920 -23.492  0.00  0.00    -0.006 C 
ATOM      7  C   UNL     1      33.011 -18.986 -22.593  0.00  0.00    -0.000 C 
ATOM      8  C   UNL     1      34.007 -20.133 -20.671  0.00  0.00    -0.001 C 
ATOM      9  C   UNL     1      34.982 -20.197 -19.674  0.00  0.00    +0.021 C 
ATOM     10  C   UNL     1      35.939 -18.131 -20.477  0.00  0.00    -0.000 C 
ATOM     11  C   UNL     1      35.946 -19.198 -19.578  0.00  0.00    -0.001 C 
BRANCH   2  12
ATOM     12  C   UNL     1      33.960 -15.780 -24.358  0.00  0.00    -0.050 C 
BRANCH  12  13
ATOM     13  N   UNL     1      32.834 -14.872 -24.135  0.00  0.00    +0.390 N 
ATOM     14  H   UNL     1      32.120 -15.365 -23.599  0.00  0.00    -0.079 HD
BRANCH  13  15
ATOM     15  C   UNL     1      33.265 -13.705 -23.368  0.00  0.00    -0.077 C 
ATOM     16  C   UNL     1      32.691 -13.730 -21.962  0.00  0.00    -0.025 C 
ENDBRANCH  13  15
BRANCH  13  17
ATOM     17  C   UNL     1      32.252 -14.461 -25.411  0.00  0.00    -0.077 C 
ATOM     18  C   UNL     1      32.507 -12.988 -25.682  0.00  0.00    -0.025 C 
ENDBRANCH  13  17
ENDBRANCH  12  13
ENDBRANCH   2  12
ENDBRANCH   1   9
BRANCH   1  19
ATOM     19  O   UNL     1      33.652 -21.666 -18.359  0.00  0.00    -0.429 OA
BRANCH  19  22
ATOM     20  O   UNL     1      32.629 -23.326 -17.164  0.00  0.00    -0.226 OA
ATOM     21  N   UNL     1      34.431 -22.106 -16.301  0.00  0.00    -0.250 N 
ATOM     22  C   UNL     1      33.490 -22.457 -17.248  0.00  0.00    +0.406 C 
ATOM     23  H   UNL     1      35.045 -21.378 -16.552  0.00  0.00    +0.158 HD
BRANCH  21  24
ATOM     24  C   UNL     1      34.623 -22.662 -15.015  0.00  0.00    +0.053 C 
ATOM     25  C   UNL     1      35.896 -22.670 -14.443  0.00  0.00    +0.015 C 
ATOM     26  C   UNL     1      33.542 -23.202 -14.320  0.00  0.00    +0.015 C 
ATOM     27  C   UNL     1      35.003 -23.760 -12.479  0.00  0.00    +0.055 C 
ATOM     28  C   UNL     1      36.086 -23.219 -13.175  0.00  0.00    +0.006 C 
ATOM     29  C   UNL     1      33.731 -23.752 -13.052  0.00  0.00    +0.006 C 
BRANCH  27  32
ATOM     30  O   UNL     1      35.576 -25.513 -11.025  0.00  0.00    -0.268 OA
ATOM     31  N   UNL     1      34.945 -23.514 -10.068  0.00  0.00    -0.193 N 
ATOM     32  C   UNL     1      35.202 -24.333 -11.158  0.00  0.00    +0.268 C 
ATOM     33  H   UNL     1      34.649 -22.582 -10.182  0.00  0.00    +0.183 HD
BRANCH  31  34
ATOM     34  O   UNL     1      35.126 -24.077  -8.796  0.00  0.00    -0.295 OA
ATOM     35  H   UNL     1      35.759 -24.809  -8.852  0.00  0.00    +0.241 HD
ENDBRANCH  31  34
ENDBRANCH  27  32
ENDBRANCH  21  24
ENDBRANCH  19  22
ENDBRANCH   1  19
TORSDOF 10
ENDMDL
MODEL 9
REMARK VINA RESULT:     -10.3      4.849      8.724
REMARK  Name = 9804992
REMARK  10 active torsions:
REMARK  status: ('A' for Active; 'I' for Inactive)
REMARK    1  A    between atoms: C_1  and  C_9
REMARK    2  A    between atoms: C_1  and  O_19
REMARK    3  A    between atoms: C_2  and  C_12
REMARK    4  A    between atoms: C_12  and  N_13
REMARK    5  A    between atoms: N_13  and  C_15
REMARK    6  A    between atoms: N_13  and  C_17
REMARK    7  A    between atoms: O_19  and  C_22
REMARK    8  A    between atoms: N_21  and  C_24
REMARK    9  A    between atoms: C_27  and  C_32
REMARK   10  A    between atoms: N_31  and  O_34
REMARK                            x       y       z     vdW  Elec       q    Type
REMARK                         _______ _______ _______ _____ _____    ______ ____
ROOT
ATOM      1  C   UNL     1      32.313 -12.869 -23.952  0.00  0.00    +0.237 C 
ENDROOT
BRANCH   1   9
ATOM      2  C   UNL     1      34.851 -18.230 -21.250  0.00  0.00    -0.043 C 
ATOM      3  C   UNL     1      34.020 -15.957 -21.493  0.00  0.00    -0.000 C 
ATOM      4  C   UNL     1      33.736 -16.214 -22.855  0.00  0.00    -0.000 C 
ATOM      5  C   UNL     1      34.577 -16.976 -20.704  0.00  0.00    -0.006 C 
ATOM      6  C   UNL     1      34.571 -18.482 -22.590  0.00  0.00    -0.006 C 
ATOM      7  C   UNL     1      34.018 -17.482 -23.388  0.00  0.00    -0.000 C 
ATOM      8  C   UNL     1      33.179 -15.195 -23.644  0.00  0.00    -0.001 C 
ATOM      9  C   UNL     1      32.905 -13.940 -23.098  0.00  0.00    +0.021 C 
ATOM     10  C   UNL     1      33.738 -14.689 -20.960  0.00  0.00    -0.000 C 
ATOM     11  C   UNL     1      33.184 -13.688 -21.758  0.00  0.00    -0.001 C 
BRANCH   2  12
ATOM     12  C   UNL     1      35.444 -19.301 -20.397  0.00  0.00    -0.050 C 
BRANCH  12  13
ATOM     13  N   UNL     1      34.463 -19.897 -19.489  0.00  0.00    +0.390 N 
ATOM     14  H   UNL     1      34.401 -19.317 -18.652  0.00  0.00    -0.079 HD
BRANCH  13  15
ATOM     15  C   UNL     1      33.144 -19.939 -20.120  0.00  0.00    -0.077 C 
ATOM     16  C   UNL     1      32.124 -20.608 -19.215  0.00  0.00    -0.025 C 
ENDBRANCH  13  15
BRANCH  13  17
ATOM     17  C   UNL     1      34.884 -21.238 -19.092  0.00  0.00    -0.077 C 
ATOM     18  C   UNL     1      35.612 -21.214 -17.758  0.00  0.00    -0.025 C 
ENDBRANCH  13  17
ENDBRANCH  12  13
ENDBRANCH   2  12
ENDBRANCH   1   9
BRANCH   1  19
ATOM     19  O   UNL     1      33.357 -12.091 -24.525  0.00  0.00    -0.429 OA
BRANCH  19  22
ATOM     20  O   UNL     1      34.391 -10.055 -24.412  0.00  0.00    -0.226 OA
ATOM     21  N   UNL     1      32.522 -10.571 -23.100  0.00  0.00    -0.250 N 
ATOM     22  C   UNL     1      33.506 -10.815 -24.037  0.00  0.00    +0.406 C 
ATOM     23  H   UNL     1      31.894 -11.310 -22.931  0.00  0.00    +0.158 HD
BRANCH  21  24
ATOM     24  C   UNL     1      32.305  -9.390 -22.353  0.00  0.00    +0.053 C 
ATOM     25  C   UNL     1      31.379  -9.387 -21.309  0.00  0.00    +0.015 C 
ATOM     26  C   UNL     1      33.014  -8.229 -22.661  0.00  0.00    +0.015 C 
ATOM     27  C   UNL     1      31.873  -7.060 -20.881  0.00  0.00    +0.055 C 
ATOM     28  C   UNL     1      31.163  -8.222 -20.573  0.00  0.00    +0.006 C 
ATOM     29  C   UNL     1      32.798  -7.064 -21.925  0.00  0.00    +0.006 C 
BRANCH  27  32
ATOM     30  O   UNL     1      31.247  -4.807 -20.669  0.00  0.00    -0.268 OA
ATOM     31  N   UNL     1      31.909  -5.900 -18.752  0.00  0.00    -0.193 N 
ATOM     32  C   UNL     1      31.647  -5.846 -20.113  0.00  0.00    +0.268 C 
ATOM     33  H   UNL     1      32.226  -6.727 -18.320  0.00  0.00    +0.183 HD
BRANCH  31  34
ATOM     34  O   UNL     1      31.702  -4.723 -18.020  0.00  0.00    -0.295 OA
ATOM     35  H   UNL     1      30.759  -4.632 -17.811  0.00  0.00    +0.241 HD
ENDBRANCH  31  34
ENDBRANCH  27  32
ENDBRANCH  21  24
ENDBRANCH  19  22
ENDBRANCH   1  19
TORSDOF 10
ENDMDL
