MODEL 1
REMARK VINA RESULT:     -11.9      0.000      0.000
REMARK  Name = 23729147
REMARK  5 active torsions:
REMARK  status: ('A' for Active; 'I' for Inactive)
REMARK    1  A    between atoms: O_1  and  C_6
REMARK    2  A    between atoms: O_1  and  C_18
REMARK    3  A    between atoms: C_18  and  C_20
REMARK    4  A    between atoms: N_19  and  C_26
REMARK    5  A    between atoms: C_26  and  C_28
REMARK                            x       y       z     vdW  Elec       q    Type
REMARK                         _______ _______ _______ _____ _____    ______ ____
ROOT
ATOM      1  O   UNL     1      33.991 -22.385 -16.659  0.00  0.00    -0.479 OA
ENDROOT
BRANCH   1   6
ATOM      2  N   UNL     1      35.025 -23.771 -12.132  0.00  0.00    -0.332 NA
ATOM      3  N   UNL     1      36.840 -23.080 -13.559  0.00  0.00    -0.317 NA
ATOM      4  N   UNL     1      36.462 -22.393 -15.756  0.00  0.00    -0.335 N 
ATOM      5  N   UNL     1      37.238 -23.768 -11.355  0.00  0.00    -0.283 N 
ATOM      6  C   UNL     1      33.639 -22.841 -15.411  0.00  0.00    +0.130 C 
ATOM      7  C   UNL     1      34.566 -23.076 -14.381  0.00  0.00    +0.177 C 
ATOM      8  C   UNL     1      32.284 -23.073 -15.195  0.00  0.00    +0.033 C 
ATOM      9  C   UNL     1      34.147 -23.544 -13.125  0.00  0.00    +0.137 C 
ATOM     10  C   UNL     1      35.934 -22.863 -14.531  0.00  0.00    +0.181 C 
ATOM     11  C   UNL     1      31.858 -23.537 -13.956  0.00  0.00    +0.005 C 
ATOM     12  C   UNL     1      32.786 -23.767 -12.936  0.00  0.00    +0.030 C 
ATOM     13  C   UNL     1      36.324 -23.527 -12.403  0.00  0.00    +0.197 C 
ATOM     14  H   UNL     1      37.431 -22.246 -15.850  0.00  0.00    +0.144 HD
ATOM     15  H   UNL     1      35.861 -22.210 -16.514  0.00  0.00    +0.144 HD
ATOM     16  H   UNL     1      36.916 -24.096 -10.486  0.00  0.00    +0.156 HD
ATOM     17  H   UNL     1      38.200 -23.606 -11.495  0.00  0.00    +0.156 HD
ENDBRANCH   1   6
BRANCH   1  18
ATOM     18  C   UNL     1      32.943 -22.189 -17.589  0.00  0.00    +0.205 C 
BRANCH  18  20
ATOM     19  N   UNL     1      34.467 -19.114 -20.212  0.00  0.00    +0.390 N 
ATOM     20  C   UNL     1      33.519 -21.523 -18.836  0.00  0.00    +0.040 C 
ATOM     21  C   UNL     1      34.883 -20.889 -18.542  0.00  0.00    -0.019 C 
ATOM     22  C   UNL     1      32.563 -20.459 -19.383  0.00  0.00    -0.019 C 
ATOM     23  C   UNL     1      35.421 -20.134 -19.758  0.00  0.00    -0.077 C 
ATOM     24  C   UNL     1      33.177 -19.717 -20.573  0.00  0.00    -0.077 C 
ATOM     25  H   UNL     1      34.306 -18.467 -19.440  0.00  0.00    -0.079 HD
BRANCH  19  26
ATOM     26  C   UNL     1      35.017 -18.366 -21.343  0.00  0.00    -0.048 C 
BRANCH  26  28
ATOM     27  F   UNL     1      34.449 -17.087 -23.808  0.00  0.00    -0.205 F 
ATOM     28  C   UNL     1      34.434 -16.981 -21.436  0.00  0.00    -0.016 C 
ATOM     29  C   UNL     1      34.179 -16.411 -22.683  0.00  0.00    +0.134 C 
ATOM     30  C   UNL     1      34.151 -16.268 -20.272  0.00  0.00    -0.004 C 
ATOM     31  C   UNL     1      33.640 -15.126 -22.765  0.00  0.00    +0.029 C 
ATOM     32  C   UNL     1      33.612 -14.984 -20.354  0.00  0.00    -0.000 C 
ATOM     33  C   UNL     1      33.357 -14.413 -21.601  0.00  0.00    +0.002 C 
ENDBRANCH  26  28
ENDBRANCH  19  26
ENDBRANCH  18  20
ENDBRANCH   1  18
TORSDOF 5
ENDMDL
MODEL 2
REMARK VINA RESULT:     -11.7      1.219      1.555
REMARK  Name = 23729147
REMARK  5 active torsions:
REMARK  status: ('A' for Active; 'I' for Inactive)
REMARK    1  A    between atoms: O_1  and  C_6
REMARK    2  A    between atoms: O_1  and  C_18
REMARK    3  A    between atoms: C_18  and  C_20
REMARK    4  A    between atoms: N_19  and  C_26
REMARK    5  A    between atoms: C_26  and  C_28
REMARK                            x       y       z     vdW  Elec       q    Type
REMARK                         _______ _______ _______ _____ _____    ______ ____
ROOT
ATOM      1  O   UNL     1      33.000 -22.469 -16.433  0.00  0.00    -0.479 OA
ENDROOT
BRANCH   1   6
ATOM      2  N   UNL     1      32.938 -24.040 -11.849  0.00  0.00    -0.332 NA
ATOM      3  N   UNL     1      35.072 -23.601 -12.879  0.00  0.00    -0.317 NA
ATOM      4  N   UNL     1      35.226 -22.842 -15.079  0.00  0.00    -0.335 N 
ATOM      5  N   UNL     1      34.938 -24.364 -10.668  0.00  0.00    -0.283 N 
ATOM      6  C   UNL     1      32.354 -22.884 -15.294  0.00  0.00    +0.130 C 
ATOM      7  C   UNL     1      33.023 -23.261 -14.116  0.00  0.00    +0.177 C 
ATOM      8  C   UNL     1      30.965 -22.921 -15.347  0.00  0.00    +0.033 C 
ATOM      9  C   UNL     1      32.308 -23.678 -12.982  0.00  0.00    +0.137 C 
ATOM     10  C   UNL     1      34.410 -23.245 -13.996  0.00  0.00    +0.181 C 
ATOM     11  C   UNL     1      30.247 -23.333 -14.230  0.00  0.00    +0.005 C 
ATOM     12  C   UNL     1      30.919 -23.705 -13.063  0.00  0.00    +0.030 C 
ATOM     13  C   UNL     1      34.285 -23.982 -11.860  0.00  0.00    +0.197 C 
ATOM     14  H   UNL     1      36.205 -22.835 -14.983  0.00  0.00    +0.144 HD
ATOM     15  H   UNL     1      34.814 -22.567 -15.930  0.00  0.00    +0.144 HD
ATOM     16  H   UNL     1      34.412 -24.652  -9.889  0.00  0.00    +0.156 HD
ATOM     17  H   UNL     1      35.922 -24.340 -10.617  0.00  0.00    +0.156 HD
ENDBRANCH   1   6
BRANCH   1  18
ATOM     18  C   UNL     1      32.206 -22.284 -17.590  0.00  0.00    +0.205 C 
BRANCH  18  20
ATOM     19  N   UNL     1      34.742 -19.538 -19.755  0.00  0.00    +0.390 N 
ATOM     20  C   UNL     1      33.088 -21.716 -18.699  0.00  0.00    +0.040 C 
ATOM     21  C   UNL     1      34.505 -21.437 -18.187  0.00  0.00    -0.019 C 
ATOM     22  C   UNL     1      32.485 -20.433 -19.279  0.00  0.00    -0.019 C 
ATOM     23  C   UNL     1      35.366 -20.775 -19.264  0.00  0.00    -0.077 C 
ATOM     24  C   UNL     1      33.413 -19.803 -20.321  0.00  0.00    -0.077 C 
ATOM     25  H   UNL     1      34.626 -18.908 -18.961  0.00  0.00    -0.079 HD
BRANCH  19  26
ATOM     26  C   UNL     1      35.601 -18.891 -20.746  0.00  0.00    -0.048 C 
BRANCH  26  28
ATOM     27  F   UNL     1      34.588 -19.426 -23.339  0.00  0.00    -0.205 F 
ATOM     28  C   UNL     1      34.848 -17.873 -21.561  0.00  0.00    -0.016 C 
ATOM     29  C   UNL     1      34.377 -18.204 -22.832  0.00  0.00    +0.134 C 
ATOM     30  C   UNL     1      34.623 -16.599 -21.043  0.00  0.00    -0.004 C 
ATOM     31  C   UNL     1      33.680 -17.257 -23.585  0.00  0.00    +0.029 C 
ATOM     32  C   UNL     1      33.926 -15.653 -21.795  0.00  0.00    -0.000 C 
ATOM     33  C   UNL     1      33.455 -15.982 -23.067  0.00  0.00    +0.002 C 
ENDBRANCH  26  28
ENDBRANCH  19  26
ENDBRANCH  18  20
ENDBRANCH   1  18
TORSDOF 5
ENDMDL
MODEL 3
REMARK VINA RESULT:     -11.5      2.283      3.425
REMARK  Name = 23729147
REMARK  5 active torsions:
REMARK  status: ('A' for Active; 'I' for Inactive)
REMARK    1  A    between atoms: O_1  and  C_6
REMARK    2  A    between atoms: O_1  and  C_18
REMARK    3  A    between atoms: C_18  and  C_20
REMARK    4  A    between atoms: N_19  and  C_26
REMARK    5  A    between atoms: C_26  and  C_28
REMARK                            x       y       z     vdW  Elec       q    Type
REMARK                         _______ _______ _______ _____ _____    ______ ____
ROOT
ATOM      1  O   UNL     1      34.505 -21.611 -18.219  0.00  0.00    -0.479 OA
ENDROOT
BRANCH   1   6
ATOM      2  N   UNL     1      31.998 -23.247 -14.408  0.00  0.00    -0.332 NA
ATOM      3  N   UNL     1      30.811 -22.827 -16.463  0.00  0.00    -0.317 NA
ATOM      4  N   UNL     1      31.913 -22.039 -18.362  0.00  0.00    -0.335 N 
ATOM      5  N   UNL     1      29.687 -23.619 -14.565  0.00  0.00    -0.283 N 
ATOM      6  C   UNL     1      34.402 -22.035 -16.915  0.00  0.00    +0.130 C 
ATOM      7  C   UNL     1      33.193 -22.437 -16.323  0.00  0.00    +0.177 C 
ATOM      8  C   UNL     1      35.580 -22.051 -16.174  0.00  0.00    +0.033 C 
ATOM      9  C   UNL     1      33.150 -22.859 -14.984  0.00  0.00    +0.137 C 
ATOM     10  C   UNL     1      31.981 -22.446 -17.009  0.00  0.00    +0.181 C 
ATOM     11  C   UNL     1      35.549 -22.466 -14.848  0.00  0.00    +0.005 C 
ATOM     12  C   UNL     1      34.342 -22.866 -14.266  0.00  0.00    +0.030 C 
ATOM     13  C   UNL     1      30.892 -23.210 -15.178  0.00  0.00    +0.197 C 
ATOM     14  H   UNL     1      31.050 -22.049 -18.836  0.00  0.00    +0.144 HD
ATOM     15  H   UNL     1      32.728 -21.746 -18.830  0.00  0.00    +0.144 HD
ATOM     16  H   UNL     1      29.687 -23.909 -13.626  0.00  0.00    +0.156 HD
ATOM     17  H   UNL     1      28.847 -23.613 -15.080  0.00  0.00    +0.156 HD
ENDBRANCH   1   6
BRANCH   1  18
ATOM     18  C   UNL     1      35.605 -20.780 -18.539  0.00  0.00    +0.205 C 
BRANCH  18  20
ATOM     19  N   UNL     1      34.463 -17.859 -21.509  0.00  0.00    +0.390 N 
ATOM     20  C   UNL     1      35.352 -20.145 -19.904  0.00  0.00    +0.040 C 
ATOM     21  C   UNL     1      36.211 -18.892 -20.097  0.00  0.00    -0.019 C 
ATOM     22  C   UNL     1      33.872 -19.790 -20.080  0.00  0.00    -0.019 C 
ATOM     23  C   UNL     1      35.891 -18.194 -21.420  0.00  0.00    -0.077 C 
ATOM     24  C   UNL     1      33.628 -19.062 -21.404  0.00  0.00    -0.077 C 
ATOM     25  H   UNL     1      34.234 -17.248 -20.726  0.00  0.00    -0.079 HD
BRANCH  19  26
ATOM     26  C   UNL     1      34.182 -17.148 -22.756  0.00  0.00    -0.048 C 
BRANCH  26  28
ATOM     27  F   UNL     1      33.396 -15.377 -24.826  0.00  0.00    -0.205 F 
ATOM     28  C   UNL     1      33.787 -15.716 -22.508  0.00  0.00    -0.016 C 
ATOM     29  C   UNL     1      33.410 -14.898 -23.574  0.00  0.00    +0.134 C 
ATOM     30  C   UNL     1      33.799 -15.208 -21.210  0.00  0.00    -0.004 C 
ATOM     31  C   UNL     1      33.046 -13.572 -23.341  0.00  0.00    +0.029 C 
ATOM     32  C   UNL     1      33.434 -13.882 -20.976  0.00  0.00    -0.000 C 
ATOM     33  C   UNL     1      33.059 -13.064 -22.042  0.00  0.00    +0.002 C 
ENDBRANCH  26  28
ENDBRANCH  19  26
ENDBRANCH  18  20
ENDBRANCH   1  18
TORSDOF 5
ENDMDL
MODEL 4
REMARK VINA RESULT:     -11.4      5.343     11.461
REMARK  Name = 23729147
REMARK  5 active torsions:
REMARK  status: ('A' for Active; 'I' for Inactive)
REMARK    1  A    between atoms: O_1  and  C_6
REMARK    2  A    between atoms: O_1  and  C_18
REMARK    3  A    between atoms: C_18  and  C_20
REMARK    4  A    between atoms: N_19  and  C_26
REMARK    5  A    between atoms: C_26  and  C_28
REMARK                            x       y       z     vdW  Elec       q    Type
REMARK                         _______ _______ _______ _____ _____    ______ ____
ROOT
ATOM      1  O   UNL     1      33.428 -13.018 -22.505  0.00  0.00    -0.479 OA
ENDROOT
BRANCH   1   6
ATOM      2  N   UNL     1      30.937  -8.951 -21.640  0.00  0.00    -0.332 NA
ATOM      3  N   UNL     1      32.573  -8.937 -23.410  0.00  0.00    -0.317 NA
ATOM      4  N   UNL     1      33.831 -10.834 -23.917  0.00  0.00    -0.335 N 
ATOM      5  N   UNL     1      31.318  -7.021 -22.915  0.00  0.00    -0.283 N 
ATOM      6  C   UNL     1      32.489 -12.283 -21.822  0.00  0.00    +0.130 C 
ATOM      7  C   UNL     1      32.197 -10.939 -22.108  0.00  0.00    +0.177 C 
ATOM      8  C   UNL     1      31.812 -12.940 -20.799  0.00  0.00    +0.033 C 
ATOM      9  C   UNL     1      31.225 -10.238 -21.374  0.00  0.00    +0.137 C 
ATOM     10  C   UNL     1      32.836 -10.224 -23.118  0.00  0.00    +0.181 C 
ATOM     11  C   UNL     1      30.849 -12.257 -20.065  0.00  0.00    +0.005 C 
ATOM     12  C   UNL     1      30.564 -10.920 -20.357  0.00  0.00    +0.030 C 
ATOM     13  C   UNL     1      31.627  -8.371 -22.643  0.00  0.00    +0.197 C 
ATOM     14  H   UNL     1      34.275 -10.319 -24.628  0.00  0.00    +0.144 HD
ATOM     15  H   UNL     1      34.078 -11.775 -23.763  0.00  0.00    +0.144 HD
ATOM     16  H   UNL     1      30.633  -6.555 -22.385  0.00  0.00    +0.156 HD
ATOM     17  H   UNL     1      31.789  -6.545 -23.638  0.00  0.00    +0.156 HD
ENDBRANCH   1   6
BRANCH   1  18
ATOM     18  C   UNL     1      32.990 -14.222 -23.105  0.00  0.00    +0.205 C 
BRANCH  18  20
ATOM     19  N   UNL     1      34.197 -17.986 -21.360  0.00  0.00    +0.390 N 
ATOM     20  C   UNL     1      33.890 -15.358 -22.625  0.00  0.00    +0.040 C 
ATOM     21  C   UNL     1      33.564 -16.666 -23.354  0.00  0.00    -0.019 C 
ATOM     22  C   UNL     1      33.758 -15.563 -21.112  0.00  0.00    -0.019 C 
ATOM     23  C   UNL     1      34.392 -17.830 -22.808  0.00  0.00    -0.077 C 
ATOM     24  C   UNL     1      34.580 -16.765 -20.639  0.00  0.00    -0.077 C 
ATOM     25  H   UNL     1      33.204 -18.151 -21.193  0.00  0.00    -0.079 HD
BRANCH  19  26
ATOM     26  C   UNL     1      34.954 -19.134 -20.863  0.00  0.00    -0.048 C 
BRANCH  26  28
ATOM     27  F   UNL     1      36.060 -21.100 -19.146  0.00  0.00    -0.205 F 
ATOM     28  C   UNL     1      34.117 -20.015 -19.974  0.00  0.00    -0.016 C 
ATOM     29  C   UNL     1      34.727 -20.964 -19.153  0.00  0.00    +0.134 C 
ATOM     30  C   UNL     1      32.729 -19.882 -19.975  0.00  0.00    -0.004 C 
ATOM     31  C   UNL     1      33.948 -21.780 -18.333  0.00  0.00    +0.029 C 
ATOM     32  C   UNL     1      31.950 -20.698 -19.154  0.00  0.00    -0.000 C 
ATOM     33  C   UNL     1      32.559 -21.647 -18.333  0.00  0.00    +0.002 C 
ENDBRANCH  26  28
ENDBRANCH  19  26
ENDBRANCH  18  20
ENDBRANCH   1  18
TORSDOF 5
ENDMDL
MODEL 5
REMARK VINA RESULT:     -11.3      2.926      4.746
REMARK  Name = 23729147
REMARK  5 active torsions:
REMARK  status: ('A' for Active; 'I' for Inactive)
REMARK    1  A    between atoms: O_1  and  C_6
REMARK    2  A    between atoms: O_1  and  C_18
REMARK    3  A    between atoms: C_18  and  C_20
REMARK    4  A    between atoms: N_19  and  C_26
REMARK    5  A    between atoms: C_26  and  C_28
REMARK                            x       y       z     vdW  Elec       q    Type
REMARK                         _______ _______ _______ _____ _____    ______ ____
ROOT
ATOM      1  O   UNL     1      33.605 -24.688 -12.534  0.00  0.00    -0.479 OA
ENDROOT
BRANCH   1   6
ATOM      2  N   UNL     1      38.449 -24.743 -12.396  0.00  0.00    -0.332 NA
ATOM      3  N   UNL     1      37.330 -26.259 -13.899  0.00  0.00    -0.317 NA
ATOM      4  N   UNL     1      35.003 -26.321 -14.051  0.00  0.00    -0.335 N 
ATOM      5  N   UNL     1      39.668 -26.211 -13.760  0.00  0.00    -0.283 N 
ATOM      6  C   UNL     1      34.818 -24.247 -12.063  0.00  0.00    +0.130 C 
ATOM      7  C   UNL     1      36.053 -24.755 -12.502  0.00  0.00    +0.177 C 
ATOM      8  C   UNL     1      34.782 -23.243 -11.100  0.00  0.00    +0.033 C 
ATOM      9  C   UNL     1      37.262 -24.265 -11.982  0.00  0.00    +0.137 C 
ATOM     10  C   UNL     1      36.159 -25.757 -13.463  0.00  0.00    +0.181 C 
ATOM     11  C   UNL     1      35.972 -22.751 -10.577  0.00  0.00    +0.005 C 
ATOM     12  C   UNL     1      37.196 -23.261 -11.020  0.00  0.00    +0.030 C 
ATOM     13  C   UNL     1      38.418 -25.714 -13.332  0.00  0.00    +0.197 C 
ATOM     14  H   UNL     1      35.091 -27.029 -14.729  0.00  0.00    +0.144 HD
ATOM     15  H   UNL     1      34.110 -26.005 -13.783  0.00  0.00    +0.144 HD
ATOM     16  H   UNL     1      40.499 -25.848 -13.379  0.00  0.00    +0.156 HD
ATOM     17  H   UNL     1      39.708 -26.920 -14.443  0.00  0.00    +0.156 HD
ENDBRANCH   1   6
BRANCH   1  18
ATOM     18  C   UNL     1      32.620 -23.705 -12.790  0.00  0.00    +0.205 C 
BRANCH  18  20
ATOM     19  N   UNL     1      32.195 -22.139 -16.793  0.00  0.00    +0.390 N 
ATOM     20  C   UNL     1      32.357 -23.661 -14.292  0.00  0.00    +0.040 C 
ATOM     21  C   UNL     1      33.602 -23.200 -15.057  0.00  0.00    -0.019 C 
ATOM     22  C   UNL     1      31.179 -22.738 -14.619  0.00  0.00    -0.019 C 
ATOM     23  C   UNL     1      33.317 -23.058 -16.553  0.00  0.00    -0.077 C 
ATOM     24  C   UNL     1      30.973 -22.610 -16.130  0.00  0.00    -0.077 C 
ATOM     25  H   UNL     1      32.440 -21.233 -16.395  0.00  0.00    -0.079 HD
BRANCH  19  26
ATOM     26  C   UNL     1      31.968 -21.974 -18.229  0.00  0.00    -0.048 C 
BRANCH  26  28
ATOM     27  F   UNL     1      31.428 -19.961 -20.150  0.00  0.00    -0.205 F 
ATOM     28  C   UNL     1      33.045 -21.143 -18.875  0.00  0.00    -0.016 C 
ATOM     29  C   UNL     1      32.709 -20.168 -19.814  0.00  0.00    +0.134 C 
ATOM     30  C   UNL     1      34.381 -21.351 -18.533  0.00  0.00    -0.004 C 
ATOM     31  C   UNL     1      33.710 -19.401 -20.411  0.00  0.00    +0.029 C 
ATOM     32  C   UNL     1      35.381 -20.584 -19.130  0.00  0.00    -0.000 C 
ATOM     33  C   UNL     1      35.046 -19.609 -20.069  0.00  0.00    +0.002 C 
ENDBRANCH  26  28
ENDBRANCH  19  26
ENDBRANCH  18  20
ENDBRANCH   1  18
TORSDOF 5
ENDMDL
MODEL 6
REMARK VINA RESULT:     -11.3      5.191     11.045
REMARK  Name = 23729147
REMARK  5 active torsions:
REMARK  status: ('A' for Active; 'I' for Inactive)
REMARK    1  A    between atoms: O_1  and  C_6
REMARK    2  A    between atoms: O_1  and  C_18
REMARK    3  A    between atoms: C_18  and  C_20
REMARK    4  A    between atoms: N_19  and  C_26
REMARK    5  A    between atoms: C_26  and  C_28
REMARK                            x       y       z     vdW  Elec       q    Type
REMARK                         _______ _______ _______ _____ _____    ______ ____
ROOT
ATOM      1  O   UNL     1      32.559 -13.741 -22.361  0.00  0.00    -0.479 OA
ENDROOT
BRANCH   1   6
ATOM      2  N   UNL     1      31.355  -9.287 -20.878  0.00  0.00    -0.332 NA
ATOM      3  N   UNL     1      30.783 -11.156 -19.468  0.00  0.00    -0.317 NA
ATOM      4  N   UNL     1      31.312 -13.344 -20.078  0.00  0.00    -0.335 N 
ATOM      5  N   UNL     1      30.244  -8.964 -18.838  0.00  0.00    -0.283 N 
ATOM      6  C   UNL     1      32.511 -12.375 -22.510  0.00  0.00    +0.130 C 
ATOM      7  C   UNL     1      31.929 -11.512 -21.567  0.00  0.00    +0.177 C 
ATOM      8  C   UNL     1      33.079 -11.858 -23.670  0.00  0.00    +0.033 C 
ATOM      9  C   UNL     1      31.909 -10.123 -21.774  0.00  0.00    +0.137 C 
ATOM     10  C   UNL     1      31.346 -11.964 -20.386  0.00  0.00    +0.181 C 
ATOM     11  C   UNL     1      33.064 -10.485 -23.887  0.00  0.00    +0.005 C 
ATOM     12  C   UNL     1      32.484  -9.632 -22.943  0.00  0.00    +0.030 C 
ATOM     13  C   UNL     1      30.823  -9.849 -19.773  0.00  0.00    +0.197 C 
ATOM     14  H   UNL     1      30.897 -13.651 -19.240  0.00  0.00    +0.144 HD
ATOM     15  H   UNL     1      31.704 -13.997 -20.701  0.00  0.00    +0.144 HD
ATOM     16  H   UNL     1      30.244  -7.996 -19.010  0.00  0.00    +0.156 HD
ATOM     17  H   UNL     1      29.840  -9.317 -18.012  0.00  0.00    +0.156 HD
ENDBRANCH   1   6
BRANCH   1  18
ATOM     18  C   UNL     1      33.159 -14.480 -23.408  0.00  0.00    +0.205 C 
BRANCH  18  20
ATOM     19  N   UNL     1      34.286 -18.089 -21.318  0.00  0.00    +0.390 N 
ATOM     20  C   UNL     1      34.036 -15.567 -22.792  0.00  0.00    +0.040 C 
ATOM     21  C   UNL     1      33.763 -16.929 -23.439  0.00  0.00    -0.019 C 
ATOM     22  C   UNL     1      33.817 -15.660 -21.279  0.00  0.00    -0.019 C 
ATOM     23  C   UNL     1      34.565 -18.040 -22.760  0.00  0.00    -0.077 C 
ATOM     24  C   UNL     1      34.618 -16.814 -20.670  0.00  0.00    -0.077 C 
ATOM     25  H   UNL     1      33.286 -18.253 -21.197  0.00  0.00    -0.079 HD
BRANCH  19  26
ATOM     26  C   UNL     1      35.020 -19.188 -20.693  0.00  0.00    -0.048 C 
BRANCH  26  28
ATOM     27  F   UNL     1      35.996 -21.188 -18.936  0.00  0.00    -0.205 F 
ATOM     28  C   UNL     1      34.120 -20.059 -19.856  0.00  0.00    -0.016 C 
ATOM     29  C   UNL     1      34.668 -21.025 -19.011  0.00  0.00    +0.134 C 
ATOM     30  C   UNL     1      32.738 -19.898 -19.927  0.00  0.00    -0.004 C 
ATOM     31  C   UNL     1      33.831 -21.831 -18.238  0.00  0.00    +0.029 C 
ATOM     32  C   UNL     1      31.901 -20.703 -19.154  0.00  0.00    -0.000 C 
ATOM     33  C   UNL     1      32.448 -21.670 -18.310  0.00  0.00    +0.002 C 
ENDBRANCH  26  28
ENDBRANCH  19  26
ENDBRANCH  18  20
ENDBRANCH   1  18
TORSDOF 5
ENDMDL
MODEL 7
REMARK VINA RESULT:     -11.1      2.386      3.478
REMARK  Name = 23729147
REMARK  5 active torsions:
REMARK  status: ('A' for Active; 'I' for Inactive)
REMARK    1  A    between atoms: O_1  and  C_6
REMARK    2  A    between atoms: O_1  and  C_18
REMARK    3  A    between atoms: C_18  and  C_20
REMARK    4  A    between atoms: N_19  and  C_26
REMARK    5  A    between atoms: C_26  and  C_28
REMARK                            x       y       z     vdW  Elec       q    Type
REMARK                         _______ _______ _______ _____ _____    ______ ____
ROOT
ATOM      1  O   UNL     1      32.043 -22.074 -17.084  0.00  0.00    -0.479 OA
ENDROOT
BRANCH   1   6
ATOM      2  N   UNL     1      31.522 -24.214 -12.767  0.00  0.00    -0.332 NA
ATOM      3  N   UNL     1      29.536 -23.596 -13.985  0.00  0.00    -0.317 NA
ATOM      4  N   UNL     1      29.664 -22.561 -16.072  0.00  0.00    -0.335 N 
ATOM      5  N   UNL     1      29.388 -24.635 -11.890  0.00  0.00    -0.283 N 
ATOM      6  C   UNL     1      32.539 -22.648 -15.938  0.00  0.00    +0.130 C 
ATOM      7  C   UNL     1      31.726 -23.152 -14.909  0.00  0.00    +0.177 C 
ATOM      8  C   UNL     1      33.924 -22.713 -15.826  0.00  0.00    +0.033 C 
ATOM      9  C   UNL     1      32.291 -23.727 -13.758  0.00  0.00    +0.137 C 
ATOM     10  C   UNL     1      30.335 -23.119 -14.958  0.00  0.00    +0.181 C 
ATOM     11  C   UNL     1      34.494 -23.279 -14.692  0.00  0.00    +0.005 C 
ATOM     12  C   UNL     1      33.679 -23.780 -13.673  0.00  0.00    +0.030 C 
ATOM     13  C   UNL     1      30.187 -24.122 -12.935  0.00  0.00    +0.197 C 
ATOM     14  H   UNL     1      28.680 -22.544 -16.095  0.00  0.00    +0.144 HD
ATOM     15  H   UNL     1      30.181 -22.192 -16.824  0.00  0.00    +0.144 HD
ATOM     16  H   UNL     1      29.811 -25.032 -11.096  0.00  0.00    +0.156 HD
ATOM     17  H   UNL     1      28.406 -24.596 -11.958  0.00  0.00    +0.156 HD
ENDBRANCH   1   6
BRANCH   1  18
ATOM     18  C   UNL     1      32.766 -22.301 -18.280  0.00  0.00    +0.205 C 
BRANCH  18  20
ATOM     19  N   UNL     1      34.771 -19.365 -20.733  0.00  0.00    +0.390 N 
ATOM     20  C   UNL     1      33.446 -20.997 -18.690  0.00  0.00    +0.040 C 
ATOM     21  C   UNL     1      32.674 -20.305 -19.818  0.00  0.00    -0.019 C 
ATOM     22  C   UNL     1      34.892 -21.245 -19.129  0.00  0.00    -0.019 C 
ATOM     23  C   UNL     1      33.402 -19.050 -20.303  0.00  0.00    -0.077 C 
ATOM     24  C   UNL     1      35.548 -19.959 -19.637  0.00  0.00    -0.077 C 
ATOM     25  H   UNL     1      34.715 -20.051 -21.486  0.00  0.00    -0.079 HD
BRANCH  19  26
ATOM     26  C   UNL     1      35.437 -18.166 -21.241  0.00  0.00    -0.048 C 
BRANCH  26  28
ATOM     27  F   UNL     1      34.196 -19.420 -23.460  0.00  0.00    -0.205 F 
ATOM     28  C   UNL     1      34.577 -17.424 -22.231  0.00  0.00    -0.016 C 
ATOM     29  C   UNL     1      33.996 -18.105 -23.302  0.00  0.00    +0.134 C 
ATOM     30  C   UNL     1      34.363 -16.056 -22.075  0.00  0.00    -0.004 C 
ATOM     31  C   UNL     1      33.201 -17.414 -24.217  0.00  0.00    +0.029 C 
ATOM     32  C   UNL     1      33.567 -15.365 -22.990  0.00  0.00    -0.000 C 
ATOM     33  C   UNL     1      32.987 -16.045 -24.061  0.00  0.00    +0.002 C 
ENDBRANCH  26  28
ENDBRANCH  19  26
ENDBRANCH  18  20
ENDBRANCH   1  18
TORSDOF 5
ENDMDL
MODEL 8
REMARK VINA RESULT:     -10.8      2.416      3.562
REMARK  Name = 23729147
REMARK  5 active torsions:
REMARK  status: ('A' for Active; 'I' for Inactive)
REMARK    1  A    between atoms: O_1  and  C_6
REMARK    2  A    between atoms: O_1  and  C_18
REMARK    3  A    between atoms: C_18  and  C_20
REMARK    4  A    between atoms: N_19  and  C_26
REMARK    5  A    between atoms: C_26  and  C_28
REMARK                            x       y       z     vdW  Elec       q    Type
REMARK                         _______ _______ _______ _____ _____    ______ ____
ROOT
ATOM      1  O   UNL     1      32.060 -22.039 -17.109  0.00  0.00    -0.479 OA
ENDROOT
BRANCH   1   6
ATOM      2  N   UNL     1      31.580 -24.219 -12.808  0.00  0.00    -0.332 NA
ATOM      3  N   UNL     1      29.583 -23.569 -13.990  0.00  0.00    -0.317 NA
ATOM      4  N   UNL     1      29.691 -22.513 -16.067  0.00  0.00    -0.335 N 
ATOM      5  N   UNL     1      29.454 -24.629 -11.904  0.00  0.00    -0.283 N 
ATOM      6  C   UNL     1      32.566 -22.630 -15.976  0.00  0.00    +0.130 C 
ATOM      7  C   UNL     1      31.763 -23.137 -14.941  0.00  0.00    +0.177 C 
ATOM      8  C   UNL     1      33.953 -22.710 -15.886  0.00  0.00    +0.033 C 
ATOM      9  C   UNL     1      32.339 -23.730 -13.805  0.00  0.00    +0.137 C 
ATOM     10  C   UNL     1      30.372 -23.089 -14.970  0.00  0.00    +0.181 C 
ATOM     11  C   UNL     1      34.533 -23.294 -14.766  0.00  0.00    +0.005 C 
ATOM     12  C   UNL     1      33.728 -23.797 -13.740  0.00  0.00    +0.030 C 
ATOM     13  C   UNL     1      30.243 -24.112 -12.955  0.00  0.00    +0.197 C 
ATOM     14  H   UNL     1      28.707 -22.485 -16.076  0.00  0.00    +0.144 HD
ATOM     15  H   UNL     1      30.201 -22.141 -16.823  0.00  0.00    +0.144 HD
ATOM     16  H   UNL     1      29.885 -25.038 -11.120  0.00  0.00    +0.156 HD
ATOM     17  H   UNL     1      28.472 -24.580 -11.957  0.00  0.00    +0.156 HD
ENDBRANCH   1   6
BRANCH   1  18
ATOM     18  C   UNL     1      32.773 -22.245 -18.314  0.00  0.00    +0.205 C 
BRANCH  18  20
ATOM     19  N   UNL     1      34.762 -19.276 -20.740  0.00  0.00    +0.390 N 
ATOM     20  C   UNL     1      33.439 -20.932 -18.715  0.00  0.00    +0.040 C 
ATOM     21  C   UNL     1      32.669 -20.246 -19.848  0.00  0.00    -0.019 C 
ATOM     22  C   UNL     1      34.893 -21.159 -19.141  0.00  0.00    -0.019 C 
ATOM     23  C   UNL     1      33.385 -18.980 -20.322  0.00  0.00    -0.077 C 
ATOM     24  C   UNL     1      35.536 -19.862 -19.639  0.00  0.00    -0.077 C 
ATOM     25  H   UNL     1      34.722 -19.960 -21.495  0.00  0.00    -0.079 HD
BRANCH  19  26
ATOM     26  C   UNL     1      35.416 -18.066 -21.239  0.00  0.00    -0.048 C 
BRANCH  26  28
ATOM     27  F   UNL     1      34.441 -15.442 -20.788  0.00  0.00    -0.205 F 
ATOM     28  C   UNL     1      34.552 -17.328 -22.227  0.00  0.00    -0.016 C 
ATOM     29  C   UNL     1      34.106 -16.038 -21.941  0.00  0.00    +0.134 C 
ATOM     30  C   UNL     1      34.196 -17.939 -23.429  0.00  0.00    -0.004 C 
ATOM     31  C   UNL     1      33.304 -15.358 -22.859  0.00  0.00    +0.029 C 
ATOM     32  C   UNL     1      33.395 -17.259 -24.346  0.00  0.00    -0.000 C 
ATOM     33  C   UNL     1      32.949 -15.969 -24.061  0.00  0.00    +0.002 C 
ENDBRANCH  26  28
ENDBRANCH  19  26
ENDBRANCH  18  20
ENDBRANCH   1  18
TORSDOF 5
ENDMDL
MODEL 9
REMARK VINA RESULT:     -10.7      1.111      1.673
REMARK  Name = 23729147
REMARK  5 active torsions:
REMARK  status: ('A' for Active; 'I' for Inactive)
REMARK    1  A    between atoms: O_1  and  C_6
REMARK    2  A    between atoms: O_1  and  C_18
REMARK    3  A    between atoms: C_18  and  C_20
REMARK    4  A    between atoms: N_19  and  C_26
REMARK    5  A    between atoms: C_26  and  C_28
REMARK                            x       y       z     vdW  Elec       q    Type
REMARK                         _______ _______ _______ _____ _____    ______ ____
ROOT
ATOM      1  O   UNL     1      33.864 -22.576 -16.678  0.00  0.00    -0.479 OA
ENDROOT
BRANCH   1   6
ATOM      2  N   UNL     1      34.398 -23.597 -11.970  0.00  0.00    -0.332 NA
ATOM      3  N   UNL     1      36.370 -23.096 -13.263  0.00  0.00    -0.317 NA
ATOM      4  N   UNL     1      36.235 -22.591 -15.536  0.00  0.00    -0.335 N 
ATOM      5  N   UNL     1      36.525 -23.602 -10.981  0.00  0.00    -0.283 N 
ATOM      6  C   UNL     1      33.375 -22.909 -15.437  0.00  0.00    +0.130 C 
ATOM      7  C   UNL     1      34.188 -23.085 -14.304  0.00  0.00    +0.177 C 
ATOM      8  C   UNL     1      31.997 -23.075 -15.338  0.00  0.00    +0.033 C 
ATOM      9  C   UNL     1      33.630 -23.427 -13.061  0.00  0.00    +0.137 C 
ATOM     10  C   UNL     1      35.572 -22.934 -14.335  0.00  0.00    +0.181 C 
ATOM     11  C   UNL     1      31.434 -23.414 -14.114  0.00  0.00    +0.005 C 
ATOM     12  C   UNL     1      32.249 -23.586 -12.991  0.00  0.00    +0.030 C 
ATOM     13  C   UNL     1      35.726 -23.422 -12.131  0.00  0.00    +0.197 C 
ATOM     14  H   UNL     1      37.214 -22.487 -15.545  0.00  0.00    +0.144 HD
ATOM     15  H   UNL     1      35.718 -22.455 -16.363  0.00  0.00    +0.144 HD
ATOM     16  H   UNL     1      36.107 -23.842 -10.123  0.00  0.00    +0.156 HD
ATOM     17  H   UNL     1      37.501 -23.487 -11.037  0.00  0.00    +0.156 HD
ENDBRANCH   1   6
BRANCH   1  18
ATOM     18  C   UNL     1      32.929 -22.499 -17.737  0.00  0.00    +0.205 C 
BRANCH  18  20
ATOM     19  N   UNL     1      34.893 -19.345 -19.941  0.00  0.00    +0.390 N 
ATOM     20  C   UNL     1      33.573 -21.747 -18.898  0.00  0.00    +0.040 C 
ATOM     21  C   UNL     1      35.039 -21.416 -18.597  0.00  0.00    -0.019 C 
ATOM     22  C   UNL     1      32.807 -20.458 -19.212  0.00  0.00    -0.019 C 
ATOM     23  C   UNL     1      35.662 -20.576 -19.713  0.00  0.00    -0.077 C 
ATOM     24  C   UNL     1      33.504 -19.648 -20.309  0.00  0.00    -0.077 C 
ATOM     25  H   UNL     1      34.880 -18.817 -19.069  0.00  0.00    -0.079 HD
BRANCH  19  26
ATOM     26  C   UNL     1      35.530 -18.529 -20.975  0.00  0.00    -0.048 C 
BRANCH  26  28
ATOM     27  F   UNL     1      34.386 -15.952 -21.266  0.00  0.00    -0.205 F 
ATOM     28  C   UNL     1      34.571 -18.175 -22.080  0.00  0.00    -0.016 C 
ATOM     29  C   UNL     1      34.044 -16.886 -22.164  0.00  0.00    +0.134 C 
ATOM     30  C   UNL     1      34.208 -19.140 -23.018  0.00  0.00    -0.004 C 
ATOM     31  C   UNL     1      33.154 -16.562 -23.189  0.00  0.00    +0.029 C 
ATOM     32  C   UNL     1      33.318 -18.816 -24.043  0.00  0.00    -0.000 C 
ATOM     33  C   UNL     1      32.791 -17.527 -24.128  0.00  0.00    +0.002 C 
ENDBRANCH  26  28
ENDBRANCH  19  26
ENDBRANCH  18  20
ENDBRANCH   1  18
TORSDOF 5
ENDMDL
