MODEL 1
REMARK VINA RESULT:     -11.3      0.000      0.000
REMARK  Name = 11979006
REMARK  7 active torsions:
REMARK  status: ('A' for Active; 'I' for Inactive)
REMARK    1  A    between atoms: C_1  and  N_2
REMARK    2  A    between atoms: C_1  and  C_22
REMARK    3  A    between atoms: C_3  and  N_9
REMARK    4  A    between atoms: C_4  and  O_18
REMARK    5  A    between atoms: C_10  and  C_14
REMARK    6  A    between atoms: N_21  and  C_25
REMARK    7  A    between atoms: C_28  and  N_32
REMARK                            x       y       z     vdW  Elec       q    Type
REMARK                         _______ _______ _______ _____ _____    ______ ____
ROOT
ATOM      1  C   UNL     1      34.463 -21.046 -19.672  0.00  0.00    +0.010 C 
ENDROOT
BRANCH   1   2
ATOM      2  N   UNL     1      34.128 -21.267 -18.273  0.00  0.00    +0.396 N 
ATOM      3  C   UNL     1      34.664 -22.026 -16.157  0.00  0.00    +0.076 C 
ATOM      4  C   UNL     1      33.424 -22.797 -16.616  0.00  0.00    +0.106 C 
ATOM      5  C   UNL     1      35.306 -21.553 -17.453  0.00  0.00    -0.054 C 
ATOM      6  C   UNL     1      33.232 -22.414 -18.084  0.00  0.00    -0.045 C 
ATOM      7  H   UNL     1      33.681 -20.397 -17.986  0.00  0.00    -0.079 HD
BRANCH   3   9
ATOM      8  O   UNL     1      34.206 -22.873 -13.506  0.00  0.00    -0.270 OA
ATOM      9  N   UNL     1      35.554 -22.833 -15.367  0.00  0.00    -0.302 N 
ATOM     10  C   UNL     1      35.255 -23.213 -14.056  0.00  0.00    +0.252 C 
ATOM     11  H   UNL     1      36.404 -23.129 -15.764  0.00  0.00    +0.150 HD
BRANCH  10  14
ATOM     12 CL   UNL     1      39.771 -26.118 -12.983  0.00  0.00    -0.075 Cl
ATOM     13  S   UNL     1      37.682 -24.409 -14.222  0.00  0.00    -0.071 S 
ATOM     14  C   UNL     1      36.250 -24.066 -13.390  0.00  0.00    +0.084 C 
ATOM     15  C   UNL     1      36.160 -24.625 -12.163  0.00  0.00    +0.012 C 
ATOM     16  C   UNL     1      37.330 -25.386 -11.872  0.00  0.00    +0.019 C 
ATOM     17  C   UNL     1      38.239 -25.352 -12.906  0.00  0.00    +0.087 C 
ENDBRANCH  10  14
ENDBRANCH   3   9
BRANCH   4  18
ATOM     18  O   UNL     1      32.305 -22.394 -15.837  0.00  0.00    -0.385 OA
ATOM     19  H   UNL     1      32.386 -21.453 -15.617  0.00  0.00    +0.210 HD
ENDBRANCH   4  18
ENDBRANCH   1   2
BRANCH   1  22
ATOM     20  O   UNL     1      32.544 -19.601 -19.898  0.00  0.00    -0.277 OA
ATOM     21  N   UNL     1      34.553 -19.049 -20.982  0.00  0.00    -0.284 N 
ATOM     22  C   UNL     1      33.717 -19.827 -20.183  0.00  0.00    +0.205 C 
ATOM     23  H   UNL     1      35.472 -19.381 -21.101  0.00  0.00    +0.155 HD
BRANCH  21  25
ATOM     24  F   UNL     1      33.898 -19.009 -23.680  0.00  0.00    -0.203 F 
ATOM     25  C   UNL     1      34.236 -17.837 -21.642  0.00  0.00    +0.078 C 
ATOM     26  C   UNL     1      33.915 -17.860 -22.989  0.00  0.00    +0.155 C 
ATOM     27  C   UNL     1      34.255 -16.653 -20.923  0.00  0.00    +0.018 C 
ATOM     28  C   UNL     1      33.618 -15.463 -22.927  0.00  0.00    +0.061 C 
ATOM     29  C   UNL     1      33.604 -16.664 -23.636  0.00  0.00    +0.046 C 
ATOM     30  C   UNL     1      33.944 -15.458 -21.571  0.00  0.00    +0.017 C 
BRANCH  28  32
ATOM     31  O   UNL     1      32.610 -15.239 -25.629  0.00  0.00    -0.269 OA
ATOM     32  N   UNL     1      33.296 -14.220 -23.601  0.00  0.00    -0.233 N 
ATOM     33  C   UNL     1      32.768 -14.247 -24.919  0.00  0.00    +0.257 C 
ATOM     34  C   UNL     1      33.520 -12.994 -22.972  0.00  0.00    +0.072 C 
ATOM     35  C   UNL     1      32.419 -12.924 -25.522  0.00  0.00    +0.059 C 
ATOM     36  C   UNL     1      33.229 -11.823 -23.546  0.00  0.00    +0.017 C 
ATOM     37  C   UNL     1      32.654 -11.790 -24.858  0.00  0.00    +0.006 C 
ENDBRANCH  28  32
ENDBRANCH  21  25
ENDBRANCH   1  22
TORSDOF 7
ENDMDL
MODEL 2
REMARK VINA RESULT:     -11.2      3.386      5.734
REMARK  Name = 11979006
REMARK  7 active torsions:
REMARK  status: ('A' for Active; 'I' for Inactive)
REMARK    1  A    between atoms: C_1  and  N_2
REMARK    2  A    between atoms: C_1  and  C_22
REMARK    3  A    between atoms: C_3  and  N_9
REMARK    4  A    between atoms: C_4  and  O_18
REMARK    5  A    between atoms: C_10  and  C_14
REMARK    6  A    between atoms: N_21  and  C_25
REMARK    7  A    between atoms: C_28  and  N_32
REMARK                            x       y       z     vdW  Elec       q    Type
REMARK                         _______ _______ _______ _____ _____    ______ ____
ROOT
ATOM      1  C   UNL     1      33.060 -17.467 -23.801  0.00  0.00    +0.010 C 
ENDROOT
BRANCH   1   2
ATOM      2  N   UNL     1      33.949 -18.052 -22.808  0.00  0.00    +0.396 N 
ATOM      3  C   UNL     1      34.338 -19.456 -21.014  0.00  0.00    +0.076 C 
ATOM      4  C   UNL     1      34.714 -18.040 -20.573  0.00  0.00    +0.106 C 
ATOM      5  C   UNL     1      33.374 -19.238 -22.172  0.00  0.00    -0.054 C 
ATOM      6  C   UNL     1      34.252 -17.127 -21.710  0.00  0.00    -0.045 C 
ATOM      7  H   UNL     1      34.788 -18.287 -23.337  0.00  0.00    -0.079 HD
BRANCH   3   9
ATOM      8  O   UNL     1      35.753 -20.948 -19.084  0.00  0.00    -0.270 OA
ATOM      9  N   UNL     1      33.751 -20.226 -19.951  0.00  0.00    -0.302 N 
ATOM     10  C   UNL     1      34.523 -20.941 -19.031  0.00  0.00    +0.252 C 
ATOM     11  H   UNL     1      32.771 -20.251 -19.868  0.00  0.00    +0.150 HD
BRANCH  10  14
ATOM     12 CL   UNL     1      33.216 -23.511 -14.375  0.00  0.00    -0.075 Cl
ATOM     13  S   UNL     1      34.608 -22.071 -16.567  0.00  0.00    -0.071 S 
ATOM     14  C   UNL     1      33.778 -21.653 -17.982  0.00  0.00    +0.084 C 
ATOM     15  C   UNL     1      32.480 -22.028 -18.008  0.00  0.00    +0.012 C 
ATOM     16  C   UNL     1      32.128 -22.699 -16.801  0.00  0.00    +0.019 C 
ATOM     17  C   UNL     1      33.191 -22.791 -15.931  0.00  0.00    +0.087 C 
ENDBRANCH  10  14
ENDBRANCH   3   9
BRANCH   4  18
ATOM     18  O   UNL     1      36.124 -17.960 -20.402  0.00  0.00    -0.385 OA
ATOM     19  H   UNL     1      36.390 -17.029 -20.345  0.00  0.00    +0.210 HD
ENDBRANCH   4  18
ENDBRANCH   1   2
BRANCH   1  22
ATOM     20  O   UNL     1      34.573 -15.870 -24.791  0.00  0.00    -0.277 OA
ATOM     21  N   UNL     1      32.661 -15.115 -23.656  0.00  0.00    -0.284 N 
ATOM     22  C   UNL     1      33.545 -16.071 -24.152  0.00  0.00    +0.205 C 
ATOM     23  H   UNL     1      31.879 -15.459 -23.166  0.00  0.00    +0.155 HD
BRANCH  21  25
ATOM     24  F   UNL     1      32.425 -13.855 -26.119  0.00  0.00    -0.203 F 
ATOM     25  C   UNL     1      32.756 -13.708 -23.772  0.00  0.00    +0.078 C 
ATOM     26  C   UNL     1      32.633 -13.118 -25.018  0.00  0.00    +0.155 C 
ATOM     27  C   UNL     1      32.971 -12.950 -22.632  0.00  0.00    +0.018 C 
ATOM     28  C   UNL     1      32.944 -10.953 -23.991  0.00  0.00    +0.061 C 
ATOM     29  C   UNL     1      32.727 -11.730 -25.129  0.00  0.00    +0.046 C 
ATOM     30  C   UNL     1      33.067 -11.563 -22.742  0.00  0.00    +0.017 C 
BRANCH  28  32
ATOM     31  O   UNL     1      35.230  -9.512 -25.022  0.00  0.00    -0.269 OA
ATOM     32  N   UNL     1      33.043  -9.511 -24.107  0.00  0.00    -0.233 N 
ATOM     33  C   UNL     1      34.208  -8.925 -24.669  0.00  0.00    +0.257 C 
ATOM     34  C   UNL     1      32.010  -8.691 -23.649  0.00  0.00    +0.072 C 
ATOM     35  C   UNL     1      34.208  -7.435 -24.794  0.00  0.00    +0.059 C 
ATOM     36  C   UNL     1      32.048  -7.358 -23.744  0.00  0.00    +0.017 C 
ATOM     37  C   UNL     1      33.180  -6.714 -24.341  0.00  0.00    +0.006 C 
ENDBRANCH  28  32
ENDBRANCH  21  25
ENDBRANCH   1  22
TORSDOF 7
ENDMDL
MODEL 3
REMARK VINA RESULT:     -11.1      7.099     13.518
REMARK  Name = 11979006
REMARK  7 active torsions:
REMARK  status: ('A' for Active; 'I' for Inactive)
REMARK    1  A    between atoms: C_1  and  N_2
REMARK    2  A    between atoms: C_1  and  C_22
REMARK    3  A    between atoms: C_3  and  N_9
REMARK    4  A    between atoms: C_4  and  O_18
REMARK    5  A    between atoms: C_10  and  C_14
REMARK    6  A    between atoms: N_21  and  C_25
REMARK    7  A    between atoms: C_28  and  N_32
REMARK                            x       y       z     vdW  Elec       q    Type
REMARK                         _______ _______ _______ _____ _____    ______ ____
ROOT
ATOM      1  C   UNL     1      32.668 -12.605 -25.774  0.00  0.00    +0.010 C 
ENDROOT
BRANCH   1   2
ATOM      2  N   UNL     1      33.220 -11.690 -24.787  0.00  0.00    +0.396 N 
ATOM      3  C   UNL     1      33.031  -9.847 -23.404  0.00  0.00    +0.076 C 
ATOM      4  C   UNL     1      34.196  -9.581 -24.359  0.00  0.00    +0.106 C 
ATOM      5  C   UNL     1      32.188 -10.886 -24.130  0.00  0.00    -0.054 C 
ATOM      6  C   UNL     1      34.153 -10.722 -25.377  0.00  0.00    -0.045 C 
ATOM      7  H   UNL     1      33.692 -12.300 -24.121  0.00  0.00    -0.079 HD
BRANCH   3   9
ATOM      8  O   UNL     1      34.063  -7.534 -22.165  0.00  0.00    -0.270 OA
ATOM      9  N   UNL     1      32.287  -8.657 -23.096  0.00  0.00    -0.302 N 
ATOM     10  C   UNL     1      32.872  -7.548 -22.479  0.00  0.00    +0.252 C 
ATOM     11  H   UNL     1      31.332  -8.620 -23.328  0.00  0.00    +0.150 HD
BRANCH  10  14
ATOM     12 CL   UNL     1      28.994  -4.236 -20.483  0.00  0.00    -0.075 Cl
ATOM     13  S   UNL     1      30.835  -6.501 -21.027  0.00  0.00    -0.071 S 
ATOM     14  C   UNL     1      31.989  -6.392 -22.260  0.00  0.00    +0.084 C 
ATOM     15  C   UNL     1      31.984  -5.223 -22.938  0.00  0.00    +0.012 C 
ATOM     16  C   UNL     1      30.977  -4.353 -22.428  0.00  0.00    +0.019 C 
ATOM     17  C   UNL     1      30.279  -4.923 -21.387  0.00  0.00    +0.087 C 
ENDBRANCH  10  14
ENDBRANCH   3   9
BRANCH   4  18
ATOM     18  O   UNL     1      35.416  -9.600 -23.629  0.00  0.00    -0.385 OA
ATOM     19  H   UNL     1      35.316 -10.166 -22.848  0.00  0.00    +0.210 HD
ENDBRANCH   4  18
ENDBRANCH   1   2
BRANCH   1  22
ATOM     20  O   UNL     1      32.167 -14.966 -25.795  0.00  0.00    -0.277 OA
ATOM     21  N   UNL     1      33.426 -14.058 -24.033  0.00  0.00    -0.284 N 
ATOM     22  C   UNL     1      32.705 -14.021 -25.225  0.00  0.00    +0.205 C 
ATOM     23  H   UNL     1      33.795 -13.199 -23.722  0.00  0.00    +0.155 HD
BRANCH  21  25
ATOM     24  F   UNL     1      33.692 -13.806 -21.281  0.00  0.00    -0.203 F 
ATOM     25  C   UNL     1      33.688 -15.183 -23.216  0.00  0.00    +0.078 C 
ATOM     26  C   UNL     1      33.814 -15.016 -21.847  0.00  0.00    +0.155 C 
ATOM     27  C   UNL     1      33.814 -16.430 -23.806  0.00  0.00    +0.018 C 
ATOM     28  C   UNL     1      34.203 -17.390 -21.623  0.00  0.00    +0.061 C 
ATOM     29  C   UNL     1      34.074 -16.127 -21.045  0.00  0.00    +0.046 C 
ATOM     30  C   UNL     1      34.074 -17.541 -23.004  0.00  0.00    +0.017 C 
BRANCH  28  32
ATOM     31  O   UNL     1      36.827 -18.261 -20.774  0.00  0.00    -0.269 OA
ATOM     32  N   UNL     1      34.474 -18.544 -20.788  0.00  0.00    -0.233 N 
ATOM     33  C   UNL     1      35.808 -18.844 -20.407  0.00  0.00    +0.257 C 
ATOM     34  C   UNL     1      33.433 -19.378 -20.374  0.00  0.00    +0.072 C 
ATOM     35  C   UNL     1      35.992 -20.025 -19.508  0.00  0.00    +0.059 C 
ATOM     36  C   UNL     1      33.629 -20.447 -19.596  0.00  0.00    +0.017 C 
ATOM     37  C   UNL     1      34.949 -20.773 -19.145  0.00  0.00    +0.006 C 
ENDBRANCH  28  32
ENDBRANCH  21  25
ENDBRANCH   1  22
TORSDOF 7
ENDMDL
MODEL 4
REMARK VINA RESULT:     -11.0      7.964     14.701
REMARK  Name = 11979006
REMARK  7 active torsions:
REMARK  status: ('A' for Active; 'I' for Inactive)
REMARK    1  A    between atoms: C_1  and  N_2
REMARK    2  A    between atoms: C_1  and  C_22
REMARK    3  A    between atoms: C_3  and  N_9
REMARK    4  A    between atoms: C_4  and  O_18
REMARK    5  A    between atoms: C_10  and  C_14
REMARK    6  A    between atoms: N_21  and  C_25
REMARK    7  A    between atoms: C_28  and  N_32
REMARK                            x       y       z     vdW  Elec       q    Type
REMARK                         _______ _______ _______ _____ _____    ______ ____
ROOT
ATOM      1  C   UNL     1      33.109 -11.467 -23.985  0.00  0.00    +0.010 C 
ENDROOT
BRANCH   1   2
ATOM      2  N   UNL     1      33.217 -10.171 -23.333  0.00  0.00    +0.396 N 
ATOM      3  C   UNL     1      32.441  -8.028 -22.946  0.00  0.00    +0.076 C 
ATOM      4  C   UNL     1      33.857  -7.903 -23.513  0.00  0.00    +0.106 C 
ATOM      5  C   UNL     1      31.976  -9.399 -23.413  0.00  0.00    -0.054 C 
ATOM      6  C   UNL     1      34.246  -9.319 -23.941  0.00  0.00    -0.045 C 
ATOM      7  H   UNL     1      33.448 -10.398 -22.367  0.00  0.00    -0.079 HD
BRANCH   3   9
ATOM      8  O   UNL     1      32.248  -5.458 -21.802  0.00  0.00    -0.270 OA
ATOM      9  N   UNL     1      31.574  -6.972 -23.393  0.00  0.00    -0.302 N 
ATOM     10  C   UNL     1      31.536  -5.721 -22.772  0.00  0.00    +0.252 C 
ATOM     11  H   UNL     1      30.986  -7.136 -24.165  0.00  0.00    +0.150 HD
BRANCH  10  14
ATOM     12 CL   UNL     1      27.934  -3.260 -26.082  0.00  0.00    -0.075 Cl
ATOM     13  S   UNL     1      29.810  -5.163 -24.787  0.00  0.00    -0.071 S 
ATOM     14  C   UNL     1      30.620  -4.735 -23.365  0.00  0.00    +0.084 C 
ATOM     15  C   UNL     1      30.339  -3.496 -22.905  0.00  0.00    +0.012 C 
ATOM     16  C   UNL     1      29.403  -2.844 -23.759  0.00  0.00    +0.019 C 
ATOM     17  C   UNL     1      29.031  -3.639 -24.821  0.00  0.00    +0.087 C 
ENDBRANCH  10  14
ENDBRANCH   3   9
BRANCH   4  18
ATOM     18  O   UNL     1      34.730  -7.424 -22.498  0.00  0.00    -0.385 OA
ATOM     19  H   UNL     1      34.232  -6.866 -21.880  0.00  0.00    +0.210 HD
ENDBRANCH   4  18
ENDBRANCH   1   2
BRANCH   1  22
ATOM     20  O   UNL     1      32.398 -12.415 -21.883  0.00  0.00    -0.277 OA
ATOM     21  N   UNL     1      33.733 -13.683 -23.340  0.00  0.00    -0.284 N 
ATOM     22  C   UNL     1      33.023 -12.556 -22.929  0.00  0.00    +0.205 C 
ATOM     23  H   UNL     1      34.174 -13.622 -24.218  0.00  0.00    +0.155 HD
BRANCH  21  25
ATOM     24  F   UNL     1      34.201 -16.061 -24.694  0.00  0.00    -0.203 F 
ATOM     25  C   UNL     1      33.895 -14.904 -22.643  0.00  0.00    +0.078 C 
ATOM     26  C   UNL     1      34.127 -16.069 -23.355  0.00  0.00    +0.155 C 
ATOM     27  C   UNL     1      33.818 -14.906 -21.260  0.00  0.00    +0.018 C 
ATOM     28  C   UNL     1      34.210 -17.291 -21.272  0.00  0.00    +0.061 C 
ATOM     29  C   UNL     1      34.286 -17.271 -22.665  0.00  0.00    +0.046 C 
ATOM     30  C   UNL     1      33.975 -16.108 -20.570  0.00  0.00    +0.017 C 
BRANCH  28  32
ATOM     31  O   UNL     1      36.735 -18.398 -20.401  0.00  0.00    -0.269 OA
ATOM     32  N   UNL     1      34.374 -18.540 -20.556  0.00  0.00    -0.233 N 
ATOM     33  C   UNL     1      35.668 -18.956 -20.148  0.00  0.00    +0.257 C 
ATOM     34  C   UNL     1      33.270 -19.351 -20.283  0.00  0.00    +0.072 C 
ATOM     35  C   UNL     1      35.742 -20.233 -19.373  0.00  0.00    +0.059 C 
ATOM     36  C   UNL     1      33.368 -20.505 -19.617  0.00  0.00    +0.017 C 
ATOM     37  C   UNL     1      34.643 -20.954 -19.142  0.00  0.00    +0.006 C 
ENDBRANCH  28  32
ENDBRANCH  21  25
ENDBRANCH   1  22
TORSDOF 7
ENDMDL
MODEL 5
REMARK VINA RESULT:     -10.9      6.941     13.520
REMARK  Name = 11979006
REMARK  7 active torsions:
REMARK  status: ('A' for Active; 'I' for Inactive)
REMARK    1  A    between atoms: C_1  and  N_2
REMARK    2  A    between atoms: C_1  and  C_22
REMARK    3  A    between atoms: C_3  and  N_9
REMARK    4  A    between atoms: C_4  and  O_18
REMARK    5  A    between atoms: C_10  and  C_14
REMARK    6  A    between atoms: N_21  and  C_25
REMARK    7  A    between atoms: C_28  and  N_32
REMARK                            x       y       z     vdW  Elec       q    Type
REMARK                         _______ _______ _______ _____ _____    ______ ____
ROOT
ATOM      1  C   UNL     1      33.162 -14.138 -25.399  0.00  0.00    +0.010 C 
ENDROOT
BRANCH   1   2
ATOM      2  N   UNL     1      32.613 -13.010 -24.661  0.00  0.00    +0.396 N 
ATOM      3  C   UNL     1      32.360 -10.737 -24.329  0.00  0.00    +0.076 C 
ATOM      4  C   UNL     1      32.985 -11.315 -23.058  0.00  0.00    +0.106 C 
ATOM      5  C   UNL     1      32.707 -11.755 -25.407  0.00  0.00    -0.054 C 
ATOM      6  C   UNL     1      33.320 -12.768 -23.397  0.00  0.00    -0.045 C 
ATOM      7  H   UNL     1      31.642 -13.271 -24.498  0.00  0.00    -0.079 HD
BRANCH   3   9
ATOM      8  O   UNL     1      31.513  -8.334 -23.122  0.00  0.00    -0.270 OA
ATOM      9  N   UNL     1      32.854  -9.423 -24.637  0.00  0.00    -0.302 N 
ATOM     10  C   UNL     1      32.382  -8.276 -23.993  0.00  0.00    +0.252 C 
ATOM     11  H   UNL     1      33.548  -9.326 -25.327  0.00  0.00    +0.150 HD
BRANCH  10  14
ATOM     12 CL   UNL     1      33.658  -3.716 -26.744  0.00  0.00    -0.075 Cl
ATOM     13  S   UNL     1      32.474  -6.280 -25.825  0.00  0.00    -0.071 S 
ATOM     14  C   UNL     1      33.008  -7.008 -24.394  0.00  0.00    +0.084 C 
ATOM     15  C   UNL     1      33.984  -6.333 -23.747  0.00  0.00    +0.012 C 
ATOM     16  C   UNL     1      34.326  -5.144 -24.454  0.00  0.00    +0.019 C 
ATOM     17  C   UNL     1      33.580  -4.993 -25.602  0.00  0.00    +0.087 C 
ENDBRANCH  10  14
ENDBRANCH   3   9
BRANCH   4  18
ATOM     18  O   UNL     1      32.040 -11.248 -21.997  0.00  0.00    -0.385 OA
ATOM     19  H   UNL     1      31.834 -12.145 -21.691  0.00  0.00    +0.210 HD
ENDBRANCH   4  18
ENDBRANCH   1   2
BRANCH   1  22
ATOM     20  O   UNL     1      31.950 -16.176 -24.951  0.00  0.00    -0.277 OA
ATOM     21  N   UNL     1      33.787 -15.594 -23.609  0.00  0.00    -0.284 N 
ATOM     22  C   UNL     1      32.871 -15.424 -24.645  0.00  0.00    +0.205 C 
ATOM     23  H   UNL     1      34.467 -14.888 -23.511  0.00  0.00    +0.155 HD
BRANCH  21  25
ATOM     24  F   UNL     1      34.212 -15.124 -20.906  0.00  0.00    -0.203 F 
ATOM     25  C   UNL     1      33.855 -16.661 -22.681  0.00  0.00    +0.078 C 
ATOM     26  C   UNL     1      34.068 -16.384 -21.341  0.00  0.00    +0.155 C 
ATOM     27  C   UNL     1      33.705 -17.960 -23.137  0.00  0.00    +0.018 C 
ATOM     28  C   UNL     1      33.987 -18.753 -20.871  0.00  0.00    +0.061 C 
ATOM     29  C   UNL     1      34.135 -17.438 -20.430  0.00  0.00    +0.046 C 
ATOM     30  C   UNL     1      33.772 -19.014 -22.225  0.00  0.00    +0.017 C 
BRANCH  28  32
ATOM     31  O   UNL     1      31.711 -20.142 -19.751  0.00  0.00    -0.269 OA
ATOM     32  N   UNL     1      34.057 -19.848 -19.923  0.00  0.00    -0.233 N 
ATOM     33  C   UNL     1      32.864 -20.475 -19.478  0.00  0.00    +0.257 C 
ATOM     34  C   UNL     1      35.289 -20.277 -19.427  0.00  0.00    +0.072 C 
ATOM     35  C   UNL     1      33.029 -21.626 -18.537  0.00  0.00    +0.059 C 
ATOM     36  C   UNL     1      35.408 -21.289 -18.561  0.00  0.00    +0.017 C 
ATOM     37  C   UNL     1      34.240 -21.987 -18.110  0.00  0.00    +0.006 C 
ENDBRANCH  28  32
ENDBRANCH  21  25
ENDBRANCH   1  22
TORSDOF 7
ENDMDL
MODEL 6
REMARK VINA RESULT:     -10.9      1.126      1.637
REMARK  Name = 11979006
REMARK  7 active torsions:
REMARK  status: ('A' for Active; 'I' for Inactive)
REMARK    1  A    between atoms: C_1  and  N_2
REMARK    2  A    between atoms: C_1  and  C_22
REMARK    3  A    between atoms: C_3  and  N_9
REMARK    4  A    between atoms: C_4  and  O_18
REMARK    5  A    between atoms: C_10  and  C_14
REMARK    6  A    between atoms: N_21  and  C_25
REMARK    7  A    between atoms: C_28  and  N_32
REMARK                            x       y       z     vdW  Elec       q    Type
REMARK                         _______ _______ _______ _____ _____    ______ ____
ROOT
ATOM      1  C   UNL     1      34.487 -21.034 -19.765  0.00  0.00    +0.010 C 
ENDROOT
BRANCH   1   2
ATOM      2  N   UNL     1      34.143 -21.268 -18.371  0.00  0.00    +0.396 N 
ATOM      3  C   UNL     1      34.669 -22.037 -16.255  0.00  0.00    +0.076 C 
ATOM      4  C   UNL     1      33.440 -22.816 -16.730  0.00  0.00    +0.106 C 
ATOM      5  C   UNL     1      35.317 -21.549 -17.543  0.00  0.00    -0.054 C 
ATOM      6  C   UNL     1      33.256 -22.424 -18.197  0.00  0.00    -0.045 C 
ATOM      7  H   UNL     1      33.686 -20.404 -18.081  0.00  0.00    -0.079 HD
BRANCH   3   9
ATOM      8  O   UNL     1      34.231 -22.845 -13.589  0.00  0.00    -0.270 OA
ATOM      9  N   UNL     1      35.560 -22.841 -15.465  0.00  0.00    -0.302 N 
ATOM     10  C   UNL     1      35.271 -23.201 -14.146  0.00  0.00    +0.252 C 
ATOM     11  H   UNL     1      36.403 -23.150 -15.866  0.00  0.00    +0.150 HD
BRANCH  10  14
ATOM     12 CL   UNL     1      39.813 -26.055 -13.042  0.00  0.00    -0.075 Cl
ATOM     13  S   UNL     1      37.723 -24.350 -14.284  0.00  0.00    -0.071 S 
ATOM     14  C   UNL     1      36.266 -24.054 -13.478  0.00  0.00    +0.084 C 
ATOM     15  C   UNL     1      36.158 -24.648 -12.269  0.00  0.00    +0.012 C 
ATOM     16  C   UNL     1      37.334 -25.395 -11.970  0.00  0.00    +0.019 C 
ATOM     17  C   UNL     1      38.266 -25.318 -12.981  0.00  0.00    +0.087 C 
ENDBRANCH  10  14
ENDBRANCH   3   9
BRANCH   4  18
ATOM     18  O   UNL     1      32.311 -22.429 -15.957  0.00  0.00    -0.385 OA
ATOM     19  H   UNL     1      32.374 -22.823 -15.073  0.00  0.00    +0.210 HD
ENDBRANCH   4  18
ENDBRANCH   1   2
BRANCH   1  22
ATOM     20  O   UNL     1      32.590 -19.551 -19.923  0.00  0.00    -0.277 OA
ATOM     21  N   UNL     1      34.539 -19.085 -21.148  0.00  0.00    -0.284 N 
ATOM     22  C   UNL     1      33.737 -19.815 -20.272  0.00  0.00    +0.205 C 
ATOM     23  H   UNL     1      35.441 -19.444 -21.312  0.00  0.00    +0.155 HD
BRANCH  21  25
ATOM     24  F   UNL     1      34.498 -16.641 -19.830  0.00  0.00    -0.203 F 
ATOM     25  C   UNL     1      34.208 -17.890 -21.830  0.00  0.00    +0.078 C 
ATOM     26  C   UNL     1      34.199 -16.691 -21.137  0.00  0.00    +0.155 C 
ATOM     27  C   UNL     1      33.901 -17.946 -23.179  0.00  0.00    +0.018 C 
ATOM     28  C   UNL     1      33.560 -15.554 -23.171  0.00  0.00    +0.061 C 
ATOM     29  C   UNL     1      33.873 -15.515 -21.812  0.00  0.00    +0.046 C 
ATOM     30  C   UNL     1      33.574 -16.771 -23.854  0.00  0.00    +0.017 C 
BRANCH  28  32
ATOM     31  O   UNL     1      33.760 -12.887 -22.071  0.00  0.00    -0.269 OA
ATOM     32  N   UNL     1      33.220 -14.331 -23.872  0.00  0.00    -0.233 N 
ATOM     33  C   UNL     1      33.401 -13.077 -23.233  0.00  0.00    +0.257 C 
ATOM     34  C   UNL     1      32.695 -14.379 -25.164  0.00  0.00    +0.072 C 
ATOM     35  C   UNL     1      33.070 -11.864 -24.044  0.00  0.00    +0.059 C 
ATOM     36  C   UNL     1      32.376 -13.280 -25.857  0.00  0.00    +0.017 C 
ATOM     37  C   UNL     1      32.578 -11.985 -25.278  0.00  0.00    +0.006 C 
ENDBRANCH  28  32
ENDBRANCH  21  25
ENDBRANCH   1  22
TORSDOF 7
ENDMDL
MODEL 7
REMARK VINA RESULT:     -10.9      5.734     12.310
REMARK  Name = 11979006
REMARK  7 active torsions:
REMARK  status: ('A' for Active; 'I' for Inactive)
REMARK    1  A    between atoms: C_1  and  N_2
REMARK    2  A    between atoms: C_1  and  C_22
REMARK    3  A    between atoms: C_3  and  N_9
REMARK    4  A    between atoms: C_4  and  O_18
REMARK    5  A    between atoms: C_10  and  C_14
REMARK    6  A    between atoms: N_21  and  C_25
REMARK    7  A    between atoms: C_28  and  N_32
REMARK                            x       y       z     vdW  Elec       q    Type
REMARK                         _______ _______ _______ _____ _____    ______ ____
ROOT
ATOM      1  C   UNL     1      34.160 -17.445 -23.376  0.00  0.00    +0.010 C 
ENDROOT
BRANCH   1   2
ATOM      2  N   UNL     1      33.467 -16.272 -22.866  0.00  0.00    +0.396 N 
ATOM      3  C   UNL     1      32.987 -14.012 -22.936  0.00  0.00    +0.076 C 
ATOM      4  C   UNL     1      33.584 -14.307 -21.558  0.00  0.00    +0.106 C 
ATOM      5  C   UNL     1      33.490 -15.153 -23.809  0.00  0.00    -0.054 C 
ATOM      6  C   UNL     1      34.070 -15.756 -21.631  0.00  0.00    -0.045 C 
ATOM      7  H   UNL     1      32.515 -16.599 -22.704  0.00  0.00    -0.079 HD
BRANCH   3   9
ATOM      8  O   UNL     1      32.007 -11.526 -22.036  0.00  0.00    -0.270 OA
ATOM      9  N   UNL     1      33.377 -12.724 -23.440  0.00  0.00    -0.302 N 
ATOM     10  C   UNL     1      32.844 -11.532 -22.941  0.00  0.00    +0.252 C 
ATOM     11  H   UNL     1      34.042 -12.679 -24.163  0.00  0.00    +0.150 HD
BRANCH  10  14
ATOM     12 CL   UNL     1      33.747  -6.251 -24.070  0.00  0.00    -0.075 Cl
ATOM     13  S   UNL     1      32.772  -8.822 -22.950  0.00  0.00    -0.071 S 
ATOM     14  C   UNL     1      33.366 -10.294 -23.536  0.00  0.00    +0.084 C 
ATOM     15  C   UNL     1      34.284 -10.181 -24.521  0.00  0.00    +0.012 C 
ATOM     16  C   UNL     1      34.528  -8.810 -24.826  0.00  0.00    +0.019 C 
ATOM     17  C   UNL     1      33.771  -7.965 -24.044  0.00  0.00    +0.087 C 
ENDBRANCH  10  14
ENDBRANCH   3   9
BRANCH   4  18
ATOM     18  O   UNL     1      32.574 -14.162 -20.568  0.00  0.00    -0.385 OA
ATOM     19  H   UNL     1      32.001 -13.414 -20.797  0.00  0.00    +0.210 HD
ENDBRANCH   4  18
ENDBRANCH   1   2
BRANCH   1  22
ATOM     20  O   UNL     1      35.859 -18.400 -21.954  0.00  0.00    -0.277 OA
ATOM     21  N   UNL     1      33.594 -18.845 -21.523  0.00  0.00    -0.284 N 
ATOM     22  C   UNL     1      34.666 -18.279 -22.212  0.00  0.00    +0.205 C 
ATOM     23  H   UNL     1      32.697 -18.636 -21.870  0.00  0.00    +0.155 HD
BRANCH  21  25
ATOM     24  F   UNL     1      31.275 -19.832 -20.359  0.00  0.00    -0.203 F 
ATOM     25  C   UNL     1      33.645 -19.683 -20.384  0.00  0.00    +0.078 C 
ATOM     26  C   UNL     1      32.466 -20.155 -19.833  0.00  0.00    +0.155 C 
ATOM     27  C   UNL     1      34.878 -20.014 -19.845  0.00  0.00    +0.018 C 
ATOM     28  C   UNL     1      33.752 -21.323 -18.154  0.00  0.00    +0.061 C 
ATOM     29  C   UNL     1      32.519 -20.981 -18.710  0.00  0.00    +0.046 C 
ATOM     30  C   UNL     1      34.931 -20.839 -18.722  0.00  0.00    +0.017 C 
BRANCH  28  32
ATOM     31  O   UNL     1      36.033 -21.614 -16.400  0.00  0.00    -0.269 OA
ATOM     32  N   UNL     1      33.807 -22.181 -16.987  0.00  0.00    -0.233 N 
ATOM     33  C   UNL     1      34.976 -22.205 -16.182  0.00  0.00    +0.257 C 
ATOM     34  C   UNL     1      32.726 -23.003 -16.660  0.00  0.00    +0.072 C 
ATOM     35  C   UNL     1      34.931 -23.082 -14.971  0.00  0.00    +0.059 C 
ATOM     36  C   UNL     1      32.724 -23.802 -15.589  0.00  0.00    +0.017 C 
ATOM     37  C   UNL     1      33.859 -23.835 -14.716  0.00  0.00    +0.006 C 
ENDBRANCH  28  32
ENDBRANCH  21  25
ENDBRANCH   1  22
TORSDOF 7
ENDMDL
MODEL 8
REMARK VINA RESULT:     -10.5      5.369     11.525
REMARK  Name = 11979006
REMARK  7 active torsions:
REMARK  status: ('A' for Active; 'I' for Inactive)
REMARK    1  A    between atoms: C_1  and  N_2
REMARK    2  A    between atoms: C_1  and  C_22
REMARK    3  A    between atoms: C_3  and  N_9
REMARK    4  A    between atoms: C_4  and  O_18
REMARK    5  A    between atoms: C_10  and  C_14
REMARK    6  A    between atoms: N_21  and  C_25
REMARK    7  A    between atoms: C_28  and  N_32
REMARK                            x       y       z     vdW  Elec       q    Type
REMARK                         _______ _______ _______ _____ _____    ______ ____
ROOT
ATOM      1  C   UNL     1      35.628 -19.328 -21.411  0.00  0.00    +0.010 C 
ENDROOT
BRANCH   1   2
ATOM      2  N   UNL     1      35.272 -18.125 -22.149  0.00  0.00    +0.396 N 
ATOM      3  C   UNL     1      34.364 -16.002 -22.246  0.00  0.00    +0.076 C 
ATOM      4  C   UNL     1      33.574 -16.879 -23.219  0.00  0.00    +0.106 C 
ATOM      5  C   UNL     1      34.977 -16.995 -21.268  0.00  0.00    -0.054 C 
ATOM      6  C   UNL     1      34.070 -18.305 -22.972  0.00  0.00    -0.045 C 
ATOM      7  H   UNL     1      36.092 -17.939 -22.727  0.00  0.00    -0.079 HD
BRANCH   3   9
ATOM      8  O   UNL     1      33.468 -13.578 -23.374  0.00  0.00    -0.270 OA
ATOM      9  N   UNL     1      33.539 -15.025 -21.590  0.00  0.00    -0.302 N 
ATOM     10  C   UNL     1      33.134 -13.844 -22.218  0.00  0.00    +0.252 C 
ATOM     11  H   UNL     1      33.248 -15.193 -20.665  0.00  0.00    +0.150 HD
BRANCH  10  14
ATOM     12 CL   UNL     1      30.272  -9.505 -20.495  0.00  0.00    -0.075 Cl
ATOM     13  S   UNL     1      32.008 -11.387 -21.998  0.00  0.00    -0.071 S 
ATOM     14  C   UNL     1      32.265 -12.959 -21.428  0.00  0.00    +0.084 C 
ATOM     15  C   UNL     1      31.630 -13.253 -20.272  0.00  0.00    +0.012 C 
ATOM     16  C   UNL     1      30.882 -12.130 -19.812  0.00  0.00    +0.019 C 
ATOM     17  C   UNL     1      30.999 -11.050 -20.657  0.00  0.00    +0.087 C 
ENDBRANCH  10  14
ENDBRANCH   3   9
BRANCH   4  18
ATOM     18  O   UNL     1      33.852 -16.471 -24.552  0.00  0.00    -0.385 OA
ATOM     19  H   UNL     1      33.057 -16.580 -25.097  0.00  0.00    +0.210 HD
ENDBRANCH   4  18
ENDBRANCH   1   2
BRANCH   1  22
ATOM     20  O   UNL     1      33.498 -18.993 -20.326  0.00  0.00    -0.277 OA
ATOM     21  N   UNL     1      34.922 -20.709 -19.592  0.00  0.00    -0.284 N 
ATOM     22  C   UNL     1      34.544 -19.632 -20.391  0.00  0.00    +0.205 C 
ATOM     23  H   UNL     1      35.801 -21.108 -19.788  0.00  0.00    +0.155 HD
BRANCH  21  25
ATOM     24  F   UNL     1      36.184 -21.528 -17.258  0.00  0.00    -0.203 F 
ATOM     25  C   UNL     1      34.193 -21.297 -18.531  0.00  0.00    +0.078 C 
ATOM     26  C   UNL     1      34.859 -21.692 -17.383  0.00  0.00    +0.155 C 
ATOM     27  C   UNL     1      32.824 -21.464 -18.666  0.00  0.00    +0.018 C 
ATOM     28  C   UNL     1      32.758 -22.448 -16.460  0.00  0.00    +0.061 C 
ATOM     29  C   UNL     1      34.136 -22.271 -16.340  0.00  0.00    +0.046 C 
ATOM     30  C   UNL     1      32.102 -22.044 -17.624  0.00  0.00    +0.017 C 
BRANCH  28  32
ATOM     31  O   UNL     1      29.883 -22.348 -16.158  0.00  0.00    -0.269 OA
ATOM     32  N   UNL     1      32.008 -23.051 -15.376  0.00  0.00    -0.233 N 
ATOM     33  C   UNL     1      30.591 -22.965 -15.363  0.00  0.00    +0.257 C 
ATOM     34  C   UNL     1      32.670 -23.698 -14.330  0.00  0.00    +0.072 C 
ATOM     35  C   UNL     1      29.893 -23.654 -14.234  0.00  0.00    +0.059 C 
ATOM     36  C   UNL     1      32.024 -24.279 -13.314  0.00  0.00    +0.017 C 
ATOM     37  C   UNL     1      30.591 -24.261 -13.272  0.00  0.00    +0.006 C 
ENDBRANCH  28  32
ENDBRANCH  21  25
ENDBRANCH   1  22
TORSDOF 7
ENDMDL
MODEL 9
REMARK VINA RESULT:     -10.4      3.062      4.763
REMARK  Name = 11979006
REMARK  7 active torsions:
REMARK  status: ('A' for Active; 'I' for Inactive)
REMARK    1  A    between atoms: C_1  and  N_2
REMARK    2  A    between atoms: C_1  and  C_22
REMARK    3  A    between atoms: C_3  and  N_9
REMARK    4  A    between atoms: C_4  and  O_18
REMARK    5  A    between atoms: C_10  and  C_14
REMARK    6  A    between atoms: N_21  and  C_25
REMARK    7  A    between atoms: C_28  and  N_32
REMARK                            x       y       z     vdW  Elec       q    Type
REMARK                         _______ _______ _______ _____ _____    ______ ____
ROOT
ATOM      1  C   UNL     1      31.042 -23.569 -15.405  0.00  0.00    +0.010 C 
ENDROOT
BRANCH   1   2
ATOM      2  N   UNL     1      32.050 -23.273 -14.398  0.00  0.00    +0.396 N 
ATOM      3  C   UNL     1      34.204 -23.441 -13.577  0.00  0.00    +0.076 C 
ATOM      4  C   UNL     1      33.268 -24.033 -12.522  0.00  0.00    +0.106 C 
ATOM      5  C   UNL     1      33.409 -23.538 -14.872  0.00  0.00    -0.054 C 
ATOM      6  C   UNL     1      31.892 -24.087 -13.188  0.00  0.00    -0.045 C 
ATOM      7  H   UNL     1      31.915 -22.282 -14.198  0.00  0.00    -0.079 HD
BRANCH   3   9
ATOM      8  O   UNL     1      36.689 -22.289 -14.249  0.00  0.00    -0.270 OA
ATOM      9  N   UNL     1      35.460 -24.137 -13.652  0.00  0.00    -0.302 N 
ATOM     10  C   UNL     1      36.653 -23.494 -13.993  0.00  0.00    +0.252 C 
ATOM     11  H   UNL     1      35.480 -25.101 -13.457  0.00  0.00    +0.150 HD
BRANCH  10  14
ATOM     12 CL   UNL     1      40.526 -27.085 -12.550  0.00  0.00    -0.075 Cl
ATOM     13  S   UNL     1      38.127 -25.341 -12.663  0.00  0.00    -0.071 S 
ATOM     14  C   UNL     1      37.859 -24.334 -13.996  0.00  0.00    +0.084 C 
ATOM     15  C   UNL     1      38.808 -24.403 -14.956  0.00  0.00    +0.012 C 
ATOM     16  C   UNL     1      39.823 -25.335 -14.592  0.00  0.00    +0.019 C 
ATOM     17  C   UNL     1      39.576 -25.916 -13.368  0.00  0.00    +0.087 C 
ENDBRANCH  10  14
ENDBRANCH   3   9
BRANCH   4  18
ATOM     18  O   UNL     1      33.246 -23.182 -11.383  0.00  0.00    -0.385 OA
ATOM     19  H   UNL     1      33.142 -22.261 -11.670  0.00  0.00    +0.210 HD
ENDBRANCH   4  18
ENDBRANCH   1   2
BRANCH   1  22
ATOM     20  O   UNL     1      30.051 -21.691 -16.552  0.00  0.00    -0.277 OA
ATOM     21  N   UNL     1      32.195 -22.430 -17.163  0.00  0.00    -0.284 N 
ATOM     22  C   UNL     1      31.009 -22.449 -16.431  0.00  0.00    +0.205 C 
ATOM     23  H   UNL     1      32.862 -23.115 -16.926  0.00  0.00    +0.155 HD
BRANCH  21  25
ATOM     24  F   UNL     1      34.848 -22.070 -17.899  0.00  0.00    -0.203 F 
ATOM     25  C   UNL     1      32.552 -21.542 -18.205  0.00  0.00    +0.078 C 
ATOM     26  C   UNL     1      33.887 -21.391 -18.542  0.00  0.00    +0.155 C 
ATOM     27  C   UNL     1      31.556 -20.843 -18.867  0.00  0.00    +0.018 C 
ATOM     28  C   UNL     1      33.245 -19.803 -20.247  0.00  0.00    +0.061 C 
ATOM     29  C   UNL     1      34.236 -20.515 -19.571  0.00  0.00    +0.046 C 
ATOM     30  C   UNL     1      31.905 -19.967 -19.894  0.00  0.00    +0.017 C 
BRANCH  28  32
ATOM     31  O   UNL     1      34.676 -17.313 -19.905  0.00  0.00    -0.269 OA
ATOM     32  N   UNL     1      33.609 -18.892 -21.315  0.00  0.00    -0.233 N 
ATOM     33  C   UNL     1      34.349 -17.717 -21.021  0.00  0.00    +0.257 C 
ATOM     34  C   UNL     1      33.217 -19.150 -22.630  0.00  0.00    +0.072 C 
ATOM     35  C   UNL     1      34.723 -16.858 -22.186  0.00  0.00    +0.059 C 
ATOM     36  C   UNL     1      33.536 -18.348 -23.650  0.00  0.00    +0.017 C 
ATOM     37  C   UNL     1      34.319 -17.171 -23.419  0.00  0.00    +0.006 C 
ENDBRANCH  28  32
ENDBRANCH  21  25
ENDBRANCH   1  22
TORSDOF 7
ENDMDL
