MODEL 1
REMARK VINA RESULT:     -12.2      0.000      0.000
REMARK  Name = 6914614
REMARK  7 active torsions:
REMARK  status: ('A' for Active; 'I' for Inactive)
REMARK    1  A    between atoms: O_1  and  C_4
REMARK    2  A    between atoms: O_1  and  C_18
REMARK    3  A    between atoms: C_9  and  C_13
REMARK    4  A    between atoms: C_18  and  C_19
REMARK    5  A    between atoms: C_19  and  N_20
REMARK    6  A    between atoms: C_19  and  C_24
REMARK    7  A    between atoms: C_24  and  C_26
REMARK                            x       y       z     vdW  Elec       q    Type
REMARK                         _______ _______ _______ _____ _____    ______ ____
ROOT
ATOM      1  O   UNL     1      34.819 -20.355 -19.340  0.00  0.00    -0.476 OA
ENDROOT
BRANCH   1   4
ATOM      2  N   UNL     1      34.334 -23.019 -15.341  0.00  0.00    -0.404 NA
ATOM      3  N   UNL     1      31.982 -22.177 -18.003  0.00  0.00    -0.258 NA
ATOM      4  C   UNL     1      34.099 -21.136 -18.491  0.00  0.00    +0.159 C 
ATOM      5  C   UNL     1      34.646 -21.677 -17.320  0.00  0.00    +0.063 C 
ATOM      6  C   UNL     1      33.855 -22.477 -16.479  0.00  0.00    +0.136 C 
ATOM      7  C   UNL     1      35.977 -21.445 -16.948  0.00  0.00    +0.008 C 
ATOM      8  C   UNL     1      32.776 -21.415 -18.782  0.00  0.00    +0.130 C 
ATOM      9  C   UNL     1      35.624 -22.773 -15.017  0.00  0.00    +0.131 C 
ATOM     10  C   UNL     1      36.479 -22.001 -15.779  0.00  0.00    +0.032 C 
ATOM     11  C   UNL     1      32.546 -22.681 -16.880  0.00  0.00    +0.184 C 
BRANCH   9  13
ATOM     12  N   UNL     1      36.930 -24.570 -11.404  0.00  0.00    -0.242 NA
ATOM     13  C   UNL     1      36.068 -23.385 -13.788  0.00  0.00    +0.033 C 
ATOM     14  C   UNL     1      35.405 -23.119 -12.594  0.00  0.00    +0.023 C 
ATOM     15  C   UNL     1      37.163 -24.244 -13.788  0.00  0.00    +0.023 C 
ATOM     16  C   UNL     1      35.870 -23.732 -11.441  0.00  0.00    +0.099 C 
ATOM     17  C   UNL     1      37.550 -24.806 -12.582  0.00  0.00    +0.099 C 
ENDBRANCH   9  13
ENDBRANCH   1   4
BRANCH   1  18
ATOM     18  C   UNL     1      34.088 -19.575 -20.286  0.00  0.00    +0.184 C 
BRANCH  18  19
ATOM     19  C   UNL     1      34.856 -18.313 -20.697  0.00  0.00    -0.017 C 
BRANCH  19  20
ATOM     20  N   UNL     1      36.184 -18.348 -20.074  0.00  0.00    +0.384 N 
ATOM     21  H   UNL     1      36.736 -19.098 -20.492  0.00  0.00    -0.089 HD
ATOM     22  H   UNL     1      36.086 -18.515 -19.073  0.00  0.00    -0.089 HD
ATOM     23  H   UNL     1      36.655 -17.456 -20.226  0.00  0.00    -0.089 HD
ENDBRANCH  19  20
BRANCH  19  24
ATOM     24  C   UNL     1      35.033 -18.154 -22.220  0.00  0.00    +0.009 C 
BRANCH  24  26
ATOM     25  N   UNL     1      33.274 -15.652 -24.214  0.00  0.00    -0.312 N 
ATOM     26  C   UNL     1      34.293 -16.978 -22.792  0.00  0.00    -0.008 C 
ATOM     27  C   UNL     1      33.879 -15.840 -22.075  0.00  0.00    +0.011 C 
ATOM     28  C   UNL     1      33.234 -15.011 -22.996  0.00  0.00    +0.048 C 
ATOM     29  C   UNL     1      33.919 -16.854 -24.094  0.00  0.00    +0.058 C 
ATOM     30  C   UNL     1      33.979 -15.415 -20.735  0.00  0.00    +0.001 C 
ATOM     31  C   UNL     1      32.682 -13.774 -22.644  0.00  0.00    +0.015 C 
ATOM     32  C   UNL     1      33.432 -14.180 -20.368  0.00  0.00    +0.000 C 
ATOM     33  C   UNL     1      32.794 -13.373 -21.309  0.00  0.00    +0.001 C 
ATOM     34  H   UNL     1      32.893 -15.298 -25.049  0.00  0.00    +0.152 HD
ENDBRANCH  24  26
ENDBRANCH  19  24
ENDBRANCH  18  19
ENDBRANCH   1  18
TORSDOF 7
ENDMDL
MODEL 2
REMARK VINA RESULT:     -12.1      2.125      9.802
REMARK  Name = 6914614
REMARK  7 active torsions:
REMARK  status: ('A' for Active; 'I' for Inactive)
REMARK    1  A    between atoms: O_1  and  C_4
REMARK    2  A    between atoms: O_1  and  C_18
REMARK    3  A    between atoms: C_9  and  C_13
REMARK    4  A    between atoms: C_18  and  C_19
REMARK    5  A    between atoms: C_19  and  N_20
REMARK    6  A    between atoms: C_19  and  C_24
REMARK    7  A    between atoms: C_24  and  C_26
REMARK                            x       y       z     vdW  Elec       q    Type
REMARK                         _______ _______ _______ _____ _____    ______ ____
ROOT
ATOM      1  O   UNL     1      35.518 -22.027 -17.803  0.00  0.00    -0.476 OA
ENDROOT
BRANCH   1   4
ATOM      2  N   UNL     1      33.081 -19.067 -20.740  0.00  0.00    -0.404 NA
ATOM      3  N   UNL     1      31.968 -21.706 -18.475  0.00  0.00    -0.258 NA
ATOM      4  C   UNL     1      34.369 -21.552 -18.355  0.00  0.00    +0.159 C 
ATOM      5  C   UNL     1      34.360 -20.513 -19.294  0.00  0.00    +0.063 C 
ATOM      6  C   UNL     1      33.144 -20.063 -19.833  0.00  0.00    +0.136 C 
ATOM      7  C   UNL     1      35.541 -19.895 -19.727  0.00  0.00    +0.008 C 
ATOM      8  C   UNL     1      33.158 -22.107 -17.983  0.00  0.00    +0.130 C 
ATOM      9  C   UNL     1      34.243 -18.495 -21.131  0.00  0.00    +0.131 C 
ATOM     10  C   UNL     1      35.486 -18.868 -20.660  0.00  0.00    +0.032 C 
ATOM     11  C   UNL     1      32.000 -20.700 -19.381  0.00  0.00    +0.184 C 
BRANCH   9  13
ATOM     12  N   UNL     1      33.824 -15.386 -23.986  0.00  0.00    -0.242 NA
ATOM     13  C   UNL     1      34.101 -17.437 -22.103  0.00  0.00    +0.033 C 
ATOM     14  C   UNL     1      34.281 -16.110 -21.724  0.00  0.00    +0.023 C 
ATOM     15  C   UNL     1      33.781 -17.737 -23.424  0.00  0.00    +0.023 C 
ATOM     16  C   UNL     1      34.134 -15.131 -22.695  0.00  0.00    +0.099 C 
ATOM     17  C   UNL     1      33.656 -16.685 -24.318  0.00  0.00    +0.099 C 
ENDBRANCH   9  13
ENDBRANCH   1   4
BRANCH   1  18
ATOM     18  C   UNL     1      35.844 -21.576 -16.488  0.00  0.00    +0.184 C 
BRANCH  18  19
ATOM     19  C   UNL     1      35.457 -22.606 -15.420  0.00  0.00    -0.017 C 
BRANCH  19  20
ATOM     20  N   UNL     1      36.684 -23.181 -14.857  0.00  0.00    +0.384 N 
ATOM     21  H   UNL     1      37.450 -23.065 -15.521  0.00  0.00    -0.089 HD
ATOM     22  H   UNL     1      36.542 -24.173 -14.672  0.00  0.00    -0.089 HD
ATOM     23  H   UNL     1      36.915 -22.702 -13.986  0.00  0.00    -0.089 HD
ENDBRANCH  19  20
BRANCH  19  24
ATOM     24  C   UNL     1      34.612 -22.029 -14.268  0.00  0.00    +0.009 C 
BRANCH  24  26
ATOM     25  N   UNL     1      32.918 -24.639 -12.359  0.00  0.00    -0.312 N 
ATOM     26  C   UNL     1      33.685 -23.031 -13.641  0.00  0.00    -0.008 C 
ATOM     27  C   UNL     1      32.332 -23.222 -13.978  0.00  0.00    +0.011 C 
ATOM     28  C   UNL     1      31.863 -24.246 -13.153  0.00  0.00    +0.048 C 
ATOM     29  C   UNL     1      34.032 -23.900 -12.653  0.00  0.00    +0.058 C 
ATOM     30  C   UNL     1      31.442 -22.633 -14.900  0.00  0.00    +0.001 C 
ATOM     31  C   UNL     1      30.545 -24.714 -13.202  0.00  0.00    +0.015 C 
ATOM     32  C   UNL     1      30.121 -23.091 -14.961  0.00  0.00    +0.000 C 
ATOM     33  C   UNL     1      29.681 -24.116 -14.124  0.00  0.00    +0.001 C 
ATOM     34  H   UNL     1      32.876 -25.349 -11.678  0.00  0.00    +0.152 HD
ENDBRANCH  24  26
ENDBRANCH  19  24
ENDBRANCH  18  19
ENDBRANCH   1  18
TORSDOF 7
ENDMDL
MODEL 3
REMARK VINA RESULT:     -12.1      2.931      6.160
REMARK  Name = 6914614
REMARK  7 active torsions:
REMARK  status: ('A' for Active; 'I' for Inactive)
REMARK    1  A    between atoms: O_1  and  C_4
REMARK    2  A    between atoms: O_1  and  C_18
REMARK    3  A    between atoms: C_9  and  C_13
REMARK    4  A    between atoms: C_18  and  C_19
REMARK    5  A    between atoms: C_19  and  N_20
REMARK    6  A    between atoms: C_19  and  C_24
REMARK    7  A    between atoms: C_24  and  C_26
REMARK                            x       y       z     vdW  Elec       q    Type
REMARK                         _______ _______ _______ _____ _____    ______ ____
ROOT
ATOM      1  O   UNL     1      35.908 -23.152 -15.354  0.00  0.00    -0.476 OA
ENDROOT
BRANCH   1   4
ATOM      2  N   UNL     1      31.415 -23.558 -13.631  0.00  0.00    -0.404 NA
ATOM      3  N   UNL     1      34.677 -23.965 -12.041  0.00  0.00    -0.258 NA
ATOM      4  C   UNL     1      35.017 -23.394 -14.357  0.00  0.00    +0.159 C 
ATOM      5  C   UNL     1      33.631 -23.338 -14.557  0.00  0.00    +0.063 C 
ATOM      6  C   UNL     1      32.756 -23.598 -13.490  0.00  0.00    +0.136 C 
ATOM      7  C   UNL     1      33.075 -23.028 -15.805  0.00  0.00    +0.008 C 
ATOM      8  C   UNL     1      35.481 -23.709 -13.092  0.00  0.00    +0.130 C 
ATOM      9  C   UNL     1      30.917 -23.254 -14.851  0.00  0.00    +0.131 C 
ATOM     10  C   UNL     1      31.695 -22.983 -15.959  0.00  0.00    +0.032 C 
ATOM     11  C   UNL     1      33.344 -23.902 -12.274  0.00  0.00    +0.184 C 
BRANCH   9  13
ATOM     12  N   UNL     1      26.682 -23.180 -15.080  0.00  0.00    -0.242 NA
ATOM     13  C   UNL     1      29.476 -23.228 -14.929  0.00  0.00    +0.033 C 
ATOM     14  C   UNL     1      28.772 -24.384 -15.253  0.00  0.00    +0.023 C 
ATOM     15  C   UNL     1      28.781 -22.048 -14.681  0.00  0.00    +0.023 C 
ATOM     16  C   UNL     1      27.389 -24.308 -15.314  0.00  0.00    +0.099 C 
ATOM     17  C   UNL     1      27.398 -22.076 -14.769  0.00  0.00    +0.099 C 
ENDBRANCH   9  13
ENDBRANCH   1   4
BRANCH   1  18
ATOM     18  C   UNL     1      36.559 -21.882 -15.352  0.00  0.00    +0.184 C 
BRANCH  18  19
ATOM     19  C   UNL     1      35.984 -20.945 -16.422  0.00  0.00    -0.017 C 
BRANCH  19  20
ATOM     20  N   UNL     1      36.833 -19.750 -16.503  0.00  0.00    +0.384 N 
ATOM     21  H   UNL     1      36.269 -18.920 -16.318  0.00  0.00    -0.089 HD
ATOM     22  H   UNL     1      37.239 -19.684 -17.436  0.00  0.00    -0.089 HD
ATOM     23  H   UNL     1      37.579 -19.815 -15.811  0.00  0.00    -0.089 HD
ENDBRANCH  19  20
BRANCH  19  24
ATOM     24  C   UNL     1      35.892 -21.576 -17.825  0.00  0.00    +0.009 C 
BRANCH  24  26
ATOM     25  N   UNL     1      32.909 -20.469 -19.616  0.00  0.00    -0.312 N 
ATOM     26  C   UNL     1      34.847 -20.945 -18.700  0.00  0.00    -0.008 C 
ATOM     27  C   UNL     1      35.078 -19.948 -19.667  0.00  0.00    +0.011 C 
ATOM     28  C   UNL     1      33.835 -19.660 -20.236  0.00  0.00    +0.048 C 
ATOM     29  C   UNL     1      33.522 -21.255 -18.678  0.00  0.00    +0.058 C 
ATOM     30  C   UNL     1      36.212 -19.249 -20.127  0.00  0.00    +0.001 C 
ATOM     31  C   UNL     1      33.669 -18.705 -21.246  0.00  0.00    +0.015 C 
ATOM     32  C   UNL     1      36.062 -18.292 -21.136  0.00  0.00    +0.000 C 
ATOM     33  C   UNL     1      34.809 -18.025 -21.686  0.00  0.00    +0.001 C 
ATOM     34  H   UNL     1      31.946 -20.480 -19.819  0.00  0.00    +0.152 HD
ENDBRANCH  24  26
ENDBRANCH  19  24
ENDBRANCH  18  19
ENDBRANCH   1  18
TORSDOF 7
ENDMDL
MODEL 4
REMARK VINA RESULT:     -12.0      3.255      9.485
REMARK  Name = 6914614
REMARK  7 active torsions:
REMARK  status: ('A' for Active; 'I' for Inactive)
REMARK    1  A    between atoms: O_1  and  C_4
REMARK    2  A    between atoms: O_1  and  C_18
REMARK    3  A    between atoms: C_9  and  C_13
REMARK    4  A    between atoms: C_18  and  C_19
REMARK    5  A    between atoms: C_19  and  N_20
REMARK    6  A    between atoms: C_19  and  C_24
REMARK    7  A    between atoms: C_24  and  C_26
REMARK                            x       y       z     vdW  Elec       q    Type
REMARK                         _______ _______ _______ _____ _____    ______ ____
ROOT
ATOM      1  O   UNL     1      33.598 -23.651 -15.157  0.00  0.00    -0.476 OA
ENDROOT
BRANCH   1   4
ATOM      2  N   UNL     1      35.668 -20.528 -18.204  0.00  0.00    -0.404 NA
ATOM      3  N   UNL     1      36.854 -22.055 -15.107  0.00  0.00    -0.258 NA
ATOM      4  C   UNL     1      34.629 -22.861 -15.558  0.00  0.00    +0.159 C 
ATOM      5  C   UNL     1      34.575 -22.089 -16.725  0.00  0.00    +0.063 C 
ATOM      6  C   UNL     1      35.670 -21.289 -17.091  0.00  0.00    +0.136 C 
ATOM      7  C   UNL     1      33.448 -22.082 -17.558  0.00  0.00    +0.008 C 
ATOM      8  C   UNL     1      35.781 -22.808 -14.793  0.00  0.00    +0.130 C 
ATOM      9  C   UNL     1      34.561 -20.550 -18.982  0.00  0.00    +0.131 C 
ATOM     10  C   UNL     1      33.436 -21.303 -18.707  0.00  0.00    +0.032 C 
ATOM     11  C   UNL     1      36.764 -21.322 -16.243  0.00  0.00    +0.184 C 
BRANCH   9  13
ATOM     12  N   UNL     1      34.758 -18.088 -22.430  0.00  0.00    -0.242 NA
ATOM     13  C   UNL     1      34.628 -19.712 -20.156  0.00  0.00    +0.033 C 
ATOM     14  C   UNL     1      35.789 -19.000 -20.442  0.00  0.00    +0.023 C 
ATOM     15  C   UNL     1      33.532 -19.611 -21.008  0.00  0.00    +0.023 C 
ATOM     16  C   UNL     1      35.803 -18.211 -21.581  0.00  0.00    +0.099 C 
ATOM     17  C   UNL     1      33.647 -18.793 -22.121  0.00  0.00    +0.099 C 
ENDBRANCH   9  13
ENDBRANCH   1   4
BRANCH   1  18
ATOM     18  C   UNL     1      33.823 -24.493 -14.027  0.00  0.00    +0.184 C 
BRANCH  18  19
ATOM     19  C   UNL     1      33.033 -24.023 -12.799  0.00  0.00    -0.017 C 
BRANCH  19  20
ATOM     20  N   UNL     1      33.954 -23.345 -11.880  0.00  0.00    +0.384 N 
ATOM     21  H   UNL     1      33.448 -22.628 -11.358  0.00  0.00    -0.089 HD
ATOM     22  H   UNL     1      34.707 -22.910 -12.413  0.00  0.00    -0.089 HD
ATOM     23  H   UNL     1      34.348 -24.025 -11.229  0.00  0.00    -0.089 HD
ENDBRANCH  19  20
BRANCH  19  24
ATOM     24  C   UNL     1      31.874 -23.062 -13.129  0.00  0.00    +0.009 C 
BRANCH  24  26
ATOM     25  N   UNL     1      28.910 -25.192 -13.218  0.00  0.00    -0.312 N 
ATOM     26  C   UNL     1      30.566 -23.759 -13.375  0.00  0.00    -0.008 C 
ATOM     27  C   UNL     1      29.597 -23.379 -14.322  0.00  0.00    +0.011 C 
ATOM     28  C   UNL     1      28.554 -24.301 -14.206  0.00  0.00    +0.048 C 
ATOM     29  C   UNL     1      30.138 -24.865 -12.707  0.00  0.00    +0.058 C 
ATOM     30  C   UNL     1      29.486 -22.346 -15.274  0.00  0.00    +0.001 C 
ATOM     31  C   UNL     1      27.401 -24.241 -14.997  0.00  0.00    +0.015 C 
ATOM     32  C   UNL     1      28.339 -22.274 -16.072  0.00  0.00    +0.000 C 
ATOM     33  C   UNL     1      27.313 -23.208 -15.935  0.00  0.00    +0.001 C 
ATOM     34  H   UNL     1      28.361 -25.953 -12.922  0.00  0.00    +0.152 HD
ENDBRANCH  24  26
ENDBRANCH  19  24
ENDBRANCH  18  19
ENDBRANCH   1  18
TORSDOF 7
ENDMDL
MODEL 5
REMARK VINA RESULT:     -11.6      5.960     10.363
REMARK  Name = 6914614
REMARK  7 active torsions:
REMARK  status: ('A' for Active; 'I' for Inactive)
REMARK    1  A    between atoms: O_1  and  C_4
REMARK    2  A    between atoms: O_1  and  C_18
REMARK    3  A    between atoms: C_9  and  C_13
REMARK    4  A    between atoms: C_18  and  C_19
REMARK    5  A    between atoms: C_19  and  N_20
REMARK    6  A    between atoms: C_19  and  C_24
REMARK    7  A    between atoms: C_24  and  C_26
REMARK                            x       y       z     vdW  Elec       q    Type
REMARK                         _______ _______ _______ _____ _____    ______ ____
ROOT
ATOM      1  O   UNL     1      33.059 -10.471 -23.328  0.00  0.00    -0.476 OA
ENDROOT
BRANCH   1   4
ATOM      2  N   UNL     1      33.228 -15.260 -23.929  0.00  0.00    -0.404 NA
ATOM      3  N   UNL     1      32.255 -12.558 -26.183  0.00  0.00    -0.258 NA
ATOM      4  C   UNL     1      32.897 -11.600 -24.068  0.00  0.00    +0.159 C 
ATOM      5  C   UNL     1      33.168 -12.877 -23.560  0.00  0.00    +0.063 C 
ATOM      6  C   UNL     1      32.982 -14.010 -24.370  0.00  0.00    +0.136 C 
ATOM      7  C   UNL     1      33.626 -13.072 -22.250  0.00  0.00    +0.008 C 
ATOM      8  C   UNL     1      32.447 -11.498 -25.372  0.00  0.00    +0.130 C 
ATOM      9  C   UNL     1      33.670 -15.406 -22.658  0.00  0.00    +0.131 C 
ATOM     10  C   UNL     1      33.883 -14.356 -21.788  0.00  0.00    +0.032 C 
ATOM     11  C   UNL     1      32.527 -13.776 -25.657  0.00  0.00    +0.184 C 
BRANCH   9  13
ATOM     12  N   UNL     1      34.384 -19.415 -21.469  0.00  0.00    -0.242 NA
ATOM     13  C   UNL     1      33.912 -16.771 -22.253  0.00  0.00    +0.033 C 
ATOM     14  C   UNL     1      34.340 -17.051 -20.959  0.00  0.00    +0.023 C 
ATOM     15  C   UNL     1      33.721 -17.813 -23.155  0.00  0.00    +0.023 C 
ATOM     16  C   UNL     1      34.559 -18.377 -20.620  0.00  0.00    +0.099 C 
ATOM     17  C   UNL     1      33.968 -19.105 -22.717  0.00  0.00    +0.099 C 
ENDBRANCH   9  13
ENDBRANCH   1   4
BRANCH   1  18
ATOM     18  C   UNL     1      34.043  -9.537 -23.772  0.00  0.00    +0.184 C 
BRANCH  18  19
ATOM     19  C   UNL     1      33.607  -8.088 -23.522  0.00  0.00    -0.017 C 
BRANCH  19  20
ATOM     20  N   UNL     1      33.744  -7.335 -24.774  0.00  0.00    +0.384 N 
ATOM     21  H   UNL     1      33.055  -7.668 -25.449  0.00  0.00    -0.089 HD
ATOM     22  H   UNL     1      34.682  -7.470 -25.151  0.00  0.00    -0.089 HD
ATOM     23  H   UNL     1      33.590  -6.343 -24.593  0.00  0.00    -0.089 HD
ENDBRANCH  19  20
BRANCH  19  24
ATOM     24  C   UNL     1      32.156  -7.947 -23.022  0.00  0.00    +0.009 C 
BRANCH  24  26
ATOM     25  N   UNL     1      32.294  -7.169 -19.457  0.00  0.00    -0.312 N 
ATOM     26  C   UNL     1      32.041  -7.858 -21.526  0.00  0.00    -0.008 C 
ATOM     27  C   UNL     1      31.308  -8.733 -20.704  0.00  0.00    +0.011 C 
ATOM     28  C   UNL     1      31.481  -8.278 -19.395  0.00  0.00    +0.048 C 
ATOM     29  C   UNL     1      32.639  -6.908 -20.756  0.00  0.00    +0.058 C 
ATOM     30  C   UNL     1      30.507  -9.872 -20.926  0.00  0.00    +0.001 C 
ATOM     31  C   UNL     1      30.892  -8.907 -18.292  0.00  0.00    +0.015 C 
ATOM     32  C   UNL     1      29.911 -10.511 -19.832  0.00  0.00    +0.000 C 
ATOM     33  C   UNL     1      30.102 -10.035 -18.536  0.00  0.00    +0.001 C 
ATOM     34  H   UNL     1      32.585  -6.640 -18.680  0.00  0.00    +0.152 HD
ENDBRANCH  24  26
ENDBRANCH  19  24
ENDBRANCH  18  19
ENDBRANCH   1  18
TORSDOF 7
ENDMDL
MODEL 6
REMARK VINA RESULT:     -11.5      4.783      8.882
REMARK  Name = 6914614
REMARK  7 active torsions:
REMARK  status: ('A' for Active; 'I' for Inactive)
REMARK    1  A    between atoms: O_1  and  C_4
REMARK    2  A    between atoms: O_1  and  C_18
REMARK    3  A    between atoms: C_9  and  C_13
REMARK    4  A    between atoms: C_18  and  C_19
REMARK    5  A    between atoms: C_19  and  N_20
REMARK    6  A    between atoms: C_19  and  C_24
REMARK    7  A    between atoms: C_24  and  C_26
REMARK                            x       y       z     vdW  Elec       q    Type
REMARK                         _______ _______ _______ _____ _____    ______ ____
ROOT
ATOM      1  O   UNL     1      33.024 -12.239 -23.112  0.00  0.00    -0.476 OA
ENDROOT
BRANCH   1   4
ATOM      2  N   UNL     1      33.717 -17.003 -22.728  0.00  0.00    -0.404 NA
ATOM      3  N   UNL     1      32.599 -14.924 -25.513  0.00  0.00    -0.258 NA
ATOM      4  C   UNL     1      33.020 -13.503 -23.615  0.00  0.00    +0.159 C 
ATOM      5  C   UNL     1      33.392 -14.616 -22.850  0.00  0.00    +0.063 C 
ATOM      6  C   UNL     1      33.369 -15.900 -23.420  0.00  0.00    +0.136 C 
ATOM      7  C   UNL     1      33.794 -14.497 -21.513  0.00  0.00    +0.008 C 
ATOM      8  C   UNL     1      32.636 -13.711 -24.927  0.00  0.00    +0.130 C 
ATOM      9  C   UNL     1      34.099 -16.846 -21.439  0.00  0.00    +0.131 C 
ATOM     10  C   UNL     1      34.155 -15.627 -20.792  0.00  0.00    +0.032 C 
ATOM     11  C   UNL     1      32.965 -15.976 -24.743  0.00  0.00    +0.184 C 
BRANCH   9  13
ATOM     12  N   UNL     1      35.154 -20.437 -19.443  0.00  0.00    -0.242 NA
ATOM     13  C   UNL     1      34.458 -18.068 -20.759  0.00  0.00    +0.033 C 
ATOM     14  C   UNL     1      35.776 -18.295 -20.376  0.00  0.00    +0.023 C 
ATOM     15  C   UNL     1      33.488 -19.027 -20.484  0.00  0.00    +0.023 C 
ATOM     16  C   UNL     1      36.070 -19.483 -19.726  0.00  0.00    +0.099 C 
ATOM     17  C   UNL     1      33.884 -20.183 -19.830  0.00  0.00    +0.099 C 
ENDBRANCH   9  13
ENDBRANCH   1   4
BRANCH   1  18
ATOM     18  C   UNL     1      33.036 -11.165 -24.052  0.00  0.00    +0.184 C 
BRANCH  18  19
ATOM     19  C   UNL     1      33.555  -9.865 -23.425  0.00  0.00    -0.017 C 
BRANCH  19  20
ATOM     20  N   UNL     1      34.707  -9.397 -24.204  0.00  0.00    +0.384 N 
ATOM     21  H   UNL     1      35.374  -8.937 -23.583  0.00  0.00    -0.089 HD
ATOM     22  H   UNL     1      34.392  -8.736 -24.913  0.00  0.00    -0.089 HD
ATOM     23  H   UNL     1      35.158 -10.192 -24.657  0.00  0.00    -0.089 HD
ENDBRANCH  19  20
BRANCH  19  24
ATOM     24  C   UNL     1      32.510  -8.734 -23.368  0.00  0.00    +0.009 C 
BRANCH  24  26
ATOM     25  N   UNL     1      32.145  -7.018 -20.167  0.00  0.00    -0.312 N 
ATOM     26  C   UNL     1      32.209  -8.263 -21.974  0.00  0.00    -0.008 C 
ATOM     27  C   UNL     1      31.472  -8.972 -21.007  0.00  0.00    +0.011 C 
ATOM     28  C   UNL     1      31.443  -8.164 -19.868  0.00  0.00    +0.048 C 
ATOM     29  C   UNL     1      32.614  -7.073 -21.451  0.00  0.00    +0.058 C 
ATOM     30  C   UNL     1      30.819 -10.221 -20.970  0.00  0.00    +0.001 C 
ATOM     31  C   UNL     1      30.791  -8.544 -18.689  0.00  0.00    +0.015 C 
ATOM     32  C   UNL     1      30.163 -10.614 -19.798  0.00  0.00    +0.000 C 
ATOM     33  C   UNL     1      30.151  -9.787 -18.676  0.00  0.00    +0.001 C 
ATOM     34  H   UNL     1      32.288  -6.268 -19.546  0.00  0.00    +0.152 HD
ENDBRANCH  24  26
ENDBRANCH  19  24
ENDBRANCH  18  19
ENDBRANCH   1  18
TORSDOF 7
ENDMDL
MODEL 7
REMARK VINA RESULT:     -11.4      2.292      3.699
REMARK  Name = 6914614
REMARK  7 active torsions:
REMARK  status: ('A' for Active; 'I' for Inactive)
REMARK    1  A    between atoms: O_1  and  C_4
REMARK    2  A    between atoms: O_1  and  C_18
REMARK    3  A    between atoms: C_9  and  C_13
REMARK    4  A    between atoms: C_18  and  C_19
REMARK    5  A    between atoms: C_19  and  N_20
REMARK    6  A    between atoms: C_19  and  C_24
REMARK    7  A    between atoms: C_24  and  C_26
REMARK                            x       y       z     vdW  Elec       q    Type
REMARK                         _______ _______ _______ _____ _____    ______ ____
ROOT
ATOM      1  O   UNL     1      35.008 -21.142 -19.120  0.00  0.00    -0.476 OA
ENDROOT
BRANCH   1   4
ATOM      2  N   UNL     1      33.245 -22.846 -14.960  0.00  0.00    -0.404 NA
ATOM      3  N   UNL     1      36.556 -21.610 -15.874  0.00  0.00    -0.258 NA
ATOM      4  C   UNL     1      35.127 -21.480 -17.808  0.00  0.00    +0.159 C 
ATOM      5  C   UNL     1      34.060 -22.005 -17.068  0.00  0.00    +0.063 C 
ATOM      6  C   UNL     1      34.239 -22.337 -15.715  0.00  0.00    +0.136 C 
ATOM      7  C   UNL     1      32.796 -22.216 -17.636  0.00  0.00    +0.008 C 
ATOM      8  C   UNL     1      36.341 -21.304 -17.169  0.00  0.00    +0.130 C 
ATOM      9  C   UNL     1      32.039 -23.034 -15.545  0.00  0.00    +0.131 C 
ATOM     10  C   UNL     1      31.766 -22.738 -16.865  0.00  0.00    +0.032 C 
ATOM     11  C   UNL     1      35.502 -22.115 -15.191  0.00  0.00    +0.184 C 
BRANCH   9  13
ATOM     12  N   UNL     1      29.052 -24.638 -12.996  0.00  0.00    -0.242 NA
ATOM     13  C   UNL     1      31.023 -23.580 -14.677  0.00  0.00    +0.033 C 
ATOM     14  C   UNL     1      29.684 -23.534 -15.053  0.00  0.00    +0.023 C 
ATOM     15  C   UNL     1      31.375 -24.155 -13.460  0.00  0.00    +0.023 C 
ATOM     16  C   UNL     1      28.746 -24.073 -14.186  0.00  0.00    +0.099 C 
ATOM     17  C   UNL     1      30.362 -24.665 -12.664  0.00  0.00    +0.099 C 
ENDBRANCH   9  13
ENDBRANCH   1   4
BRANCH   1  18
ATOM     18  C   UNL     1      35.527 -19.872 -19.515  0.00  0.00    +0.184 C 
BRANCH  18  19
ATOM     19  C   UNL     1      34.630 -19.190 -20.556  0.00  0.00    -0.017 C 
BRANCH  19  20
ATOM     20  N   UNL     1      33.231 -19.519 -20.258  0.00  0.00    +0.384 N 
ATOM     21  H   UNL     1      32.641 -18.711 -20.458  0.00  0.00    -0.089 HD
ATOM     22  H   UNL     1      33.143 -19.769 -19.273  0.00  0.00    -0.089 HD
ATOM     23  H   UNL     1      32.937 -20.306 -20.836  0.00  0.00    -0.089 HD
ENDBRANCH  19  20
BRANCH  19  24
ATOM     24  C   UNL     1      34.774 -17.656 -20.598  0.00  0.00    +0.009 C 
BRANCH  24  26
ATOM     25  N   UNL     1      33.816 -16.800 -24.015  0.00  0.00    -0.312 N 
ATOM     26  C   UNL     1      34.317 -17.045 -21.892  0.00  0.00    -0.008 C 
ATOM     27  C   UNL     1      33.855 -15.726 -22.061  0.00  0.00    +0.011 C 
ATOM     28  C   UNL     1      33.542 -15.591 -23.416  0.00  0.00    +0.048 C 
ATOM     29  C   UNL     1      34.288 -17.691 -23.090  0.00  0.00    +0.058 C 
ATOM     30  C   UNL     1      33.666 -14.620 -21.208  0.00  0.00    +0.001 C 
ATOM     31  C   UNL     1      33.046 -14.402 -23.962  0.00  0.00    +0.015 C 
ATOM     32  C   UNL     1      33.171 -13.424 -21.741  0.00  0.00    +0.000 C 
ATOM     33  C   UNL     1      32.867 -13.319 -23.098  0.00  0.00    +0.001 C 
ATOM     34  H   UNL     1      33.688 -16.995 -24.972  0.00  0.00    +0.152 HD
ENDBRANCH  24  26
ENDBRANCH  19  24
ENDBRANCH  18  19
ENDBRANCH   1  18
TORSDOF 7
ENDMDL
MODEL 8
REMARK VINA RESULT:     -11.3      3.245      6.299
REMARK  Name = 6914614
REMARK  7 active torsions:
REMARK  status: ('A' for Active; 'I' for Inactive)
REMARK    1  A    between atoms: O_1  and  C_4
REMARK    2  A    between atoms: O_1  and  C_18
REMARK    3  A    between atoms: C_9  and  C_13
REMARK    4  A    between atoms: C_18  and  C_19
REMARK    5  A    between atoms: C_19  and  N_20
REMARK    6  A    between atoms: C_19  and  C_24
REMARK    7  A    between atoms: C_24  and  C_26
REMARK                            x       y       z     vdW  Elec       q    Type
REMARK                         _______ _______ _______ _____ _____    ______ ____
ROOT
ATOM      1  O   UNL     1      36.089 -23.229 -15.169  0.00  0.00    -0.476 OA
ENDROOT
BRANCH   1   4
ATOM      2  N   UNL     1      31.552 -23.624 -13.563  0.00  0.00    -0.404 NA
ATOM      3  N   UNL     1      34.770 -23.966 -11.872  0.00  0.00    -0.258 NA
ATOM      4  C   UNL     1      35.171 -23.452 -14.191  0.00  0.00    +0.159 C 
ATOM      5  C   UNL     1      33.792 -23.411 -14.432  0.00  0.00    +0.063 C 
ATOM      6  C   UNL     1      32.888 -23.651 -13.384  0.00  0.00    +0.136 C 
ATOM      7  C   UNL     1      33.269 -23.137 -15.703  0.00  0.00    +0.008 C 
ATOM      8  C   UNL     1      35.602 -23.731 -12.906  0.00  0.00    +0.130 C 
ATOM      9  C   UNL     1      31.087 -23.355 -14.805  0.00  0.00    +0.131 C 
ATOM     10  C   UNL     1      31.895 -23.106 -15.897  0.00  0.00    +0.032 C 
ATOM     11  C   UNL     1      33.444 -23.919 -12.144  0.00  0.00    +0.184 C 
BRANCH   9  13
ATOM     12  N   UNL     1      26.860 -23.319 -15.156  0.00  0.00    -0.242 NA
ATOM     13  C   UNL     1      29.648 -23.342 -14.924  0.00  0.00    +0.033 C 
ATOM     14  C   UNL     1      28.890 -24.362 -14.358  0.00  0.00    +0.023 C 
ATOM     15  C   UNL     1      29.011 -22.311 -15.607  0.00  0.00    +0.023 C 
ATOM     16  C   UNL     1      27.512 -24.304 -14.499  0.00  0.00    +0.099 C 
ATOM     17  C   UNL     1      27.628 -22.345 -15.694  0.00  0.00    +0.099 C 
ENDBRANCH   9  13
ENDBRANCH   1   4
BRANCH   1  18
ATOM     18  C   UNL     1      36.723 -21.950 -15.188  0.00  0.00    +0.184 C 
BRANCH  18  19
ATOM     19  C   UNL     1      36.119 -21.031 -16.257  0.00  0.00    -0.017 C 
BRANCH  19  20
ATOM     20  N   UNL     1      36.892 -19.784 -16.295  0.00  0.00    +0.384 N 
ATOM     21  H   UNL     1      36.273 -18.994 -16.106  0.00  0.00    -0.089 HD
ATOM     22  H   UNL     1      37.313 -19.673 -17.216  0.00  0.00    -0.089 HD
ATOM     23  H   UNL     1      37.625 -19.817 -15.586  0.00  0.00    -0.089 HD
ENDBRANCH  19  20
BRANCH  19  24
ATOM     24  C   UNL     1      36.104 -21.640 -17.673  0.00  0.00    +0.009 C 
BRANCH  24  26
ATOM     25  N   UNL     1      35.331 -19.216 -20.291  0.00  0.00    -0.312 N 
ATOM     26  C   UNL     1      35.513 -20.731 -18.713  0.00  0.00    -0.008 C 
ATOM     27  C   UNL     1      34.150 -20.649 -19.054  0.00  0.00    +0.011 C 
ATOM     28  C   UNL     1      34.056 -19.682 -20.058  0.00  0.00    +0.048 C 
ATOM     29  C   UNL     1      36.224 -19.854 -19.472  0.00  0.00    +0.058 C 
ATOM     30  C   UNL     1      32.974 -21.293 -18.621  0.00  0.00    +0.001 C 
ATOM     31  C   UNL     1      32.841 -19.325 -20.653  0.00  0.00    +0.015 C 
ATOM     32  C   UNL     1      31.751 -20.947 -19.207  0.00  0.00    +0.000 C 
ATOM     33  C   UNL     1      31.687 -19.977 -20.207  0.00  0.00    +0.001 C 
ATOM     34  H   UNL     1      35.566 -18.525 -20.951  0.00  0.00    +0.152 HD
ENDBRANCH  24  26
ENDBRANCH  19  24
ENDBRANCH  18  19
ENDBRANCH   1  18
TORSDOF 7
ENDMDL
MODEL 9
REMARK VINA RESULT:     -11.2      3.533     12.081
REMARK  Name = 6914614
REMARK  7 active torsions:
REMARK  status: ('A' for Active; 'I' for Inactive)
REMARK    1  A    between atoms: O_1  and  C_4
REMARK    2  A    between atoms: O_1  and  C_18
REMARK    3  A    between atoms: C_9  and  C_13
REMARK    4  A    between atoms: C_18  and  C_19
REMARK    5  A    between atoms: C_19  and  N_20
REMARK    6  A    between atoms: C_19  and  C_24
REMARK    7  A    between atoms: C_24  and  C_26
REMARK                            x       y       z     vdW  Elec       q    Type
REMARK                         _______ _______ _______ _____ _____    ______ ____
ROOT
ATOM      1  O   UNL     1      33.423 -15.617 -22.505  0.00  0.00    -0.476 OA
ENDROOT
BRANCH   1   4
ATOM      2  N   UNL     1      32.720 -11.419 -24.785  0.00  0.00    -0.404 NA
ATOM      3  N   UNL     1      32.275 -14.877 -25.865  0.00  0.00    -0.258 NA
ATOM      4  C   UNL     1      33.062 -14.879 -23.588  0.00  0.00    +0.159 C 
ATOM      5  C   UNL     1      33.092 -13.478 -23.586  0.00  0.00    +0.063 C 
ATOM      6  C   UNL     1      32.709 -12.766 -24.735  0.00  0.00    +0.136 C 
ATOM      7  C   UNL     1      33.496 -12.747 -22.462  0.00  0.00    +0.008 C 
ATOM      8  C   UNL     1      32.650 -15.522 -24.741  0.00  0.00    +0.130 C 
ATOM      9  C   UNL     1      33.117 -10.748 -23.678  0.00  0.00    +0.131 C 
ATOM     10  C   UNL     1      33.510 -11.359 -22.503  0.00  0.00    +0.032 C 
ATOM     11  C   UNL     1      32.317 -13.525 -25.825  0.00  0.00    +0.184 C 
BRANCH   9  13
ATOM     12  N   UNL     1      33.078  -6.523 -24.045  0.00  0.00    -0.242 NA
ATOM     13  C   UNL     1      33.103  -9.310 -23.802  0.00  0.00    +0.033 C 
ATOM     14  C   UNL     1      32.021  -8.669 -24.397  0.00  0.00    +0.023 C 
ATOM     15  C   UNL     1      34.173  -8.556 -23.330  0.00  0.00    +0.023 C 
ATOM     16  C   UNL     1      32.055  -7.287 -24.492  0.00  0.00    +0.099 C 
ATOM     17  C   UNL     1      34.112  -7.179 -23.474  0.00  0.00    +0.099 C 
ENDBRANCH   9  13
ENDBRANCH   1   4
BRANCH   1  18
ATOM     18  C   UNL     1      34.182 -16.801 -22.747  0.00  0.00    +0.184 C 
BRANCH  18  19
ATOM     19  C   UNL     1      34.548 -17.520 -21.442  0.00  0.00    -0.017 C 
BRANCH  19  20
ATOM     20  N   UNL     1      34.215 -16.642 -20.314  0.00  0.00    +0.384 N 
ATOM     21  H   UNL     1      33.895 -15.740 -20.668  0.00  0.00    -0.089 HD
ATOM     22  H   UNL     1      35.043 -16.505 -19.735  0.00  0.00    -0.089 HD
ATOM     23  H   UNL     1      33.476 -17.069 -19.756  0.00  0.00    -0.089 HD
ENDBRANCH  19  20
BRANCH  19  24
ATOM     24  C   UNL     1      33.824 -18.866 -21.244  0.00  0.00    +0.009 C 
BRANCH  24  26
ATOM     25  N   UNL     1      35.872 -20.659 -18.810  0.00  0.00    -0.312 N 
ATOM     26  C   UNL     1      34.414 -19.711 -20.151  0.00  0.00    -0.008 C 
ATOM     27  C   UNL     1      33.692 -20.538 -19.270  0.00  0.00    +0.011 C 
ATOM     28  C   UNL     1      34.636 -21.130 -18.427  0.00  0.00    +0.048 C 
ATOM     29  C   UNL     1      35.742 -19.792 -19.862  0.00  0.00    +0.058 C 
ATOM     30  C   UNL     1      32.330 -20.853 -19.090  0.00  0.00    +0.001 C 
ATOM     31  C   UNL     1      34.285 -22.024 -17.410  0.00  0.00    +0.015 C 
ATOM     32  C   UNL     1      31.964 -21.747 -18.077  0.00  0.00    +0.000 C 
ATOM     33  C   UNL     1      32.928 -22.323 -17.251  0.00  0.00    +0.001 C 
ATOM     34  H   UNL     1      36.725 -20.909 -18.388  0.00  0.00    +0.152 HD
ENDBRANCH  24  26
ENDBRANCH  19  24
ENDBRANCH  18  19
ENDBRANCH   1  18
TORSDOF 7
ENDMDL
