MODEL 1
REMARK VINA RESULT:     -12.1      0.000      0.000
REMARK  Name = 44129624
REMARK  6 active torsions:
REMARK  status: ('A' for Active; 'I' for Inactive)
REMARK    1  A    between atoms: C_1  and  O_20
REMARK    2  A    between atoms: C_4  and  C_8
REMARK    3  A    between atoms: C_8  and  C_9
REMARK    4  A    between atoms: C_10  and  C_16
REMARK    5  A    between atoms: O_20  and  C_21
REMARK    6  A    between atoms: C_21  and  C_23
REMARK                            x       y       z     vdW  Elec       q    Type
REMARK                         _______ _______ _______ _____ _____    ______ ____
ROOT
ATOM      1  C   UNL     1      32.730 -21.558 -18.507  0.00  0.00    +0.138 C 
ATOM      2  C   UNL     1      32.184 -20.590 -19.348  0.00  0.00    +0.037 C 
ATOM      3  C   UNL     1      34.113 -21.650 -18.354  0.00  0.00    +0.037 C 
ATOM      4  C   UNL     1      34.404 -19.804 -19.885  0.00  0.00    +0.039 C 
ATOM      5  C   UNL     1      33.020 -19.713 -20.037  0.00  0.00    +0.006 C 
ATOM      6  C   UNL     1      34.950 -20.772 -19.044  0.00  0.00    +0.006 C 
ENDROOT
BRANCH   4   8
ATOM      7  O   UNL     1      36.506 -19.036 -20.563  0.00  0.00    -0.287 OA
ATOM      8  C   UNL     1      35.275 -18.887 -20.602  0.00  0.00    +0.196 C 
BRANCH   8   9
ATOM      9  C   UNL     1      34.748 -17.742 -21.405  0.00  0.00    +0.039 C 
ATOM     10  C   UNL     1      33.765 -15.606 -22.906  0.00  0.00    +0.001 C 
ATOM     11  C   UNL     1      34.420 -16.542 -20.776  0.00  0.00    +0.003 C 
ATOM     12  C   UNL     1      34.584 -17.875 -22.785  0.00  0.00    +0.003 C 
ATOM     13  C   UNL     1      33.928 -15.474 -21.527  0.00  0.00    +0.000 C 
ATOM     14  C   UNL     1      34.093 -16.807 -23.534  0.00  0.00    +0.000 C 
BRANCH  10  16
ATOM     15  S   UNL     1      32.181 -13.247 -25.640  0.00  0.00    -0.086 S 
ATOM     16  C   UNL     1      33.260 -14.505 -23.676  0.00  0.00    +0.007 C 
ATOM     17  C   UNL     1      33.246 -13.130 -23.305  0.00  0.00    +0.007 C 
ATOM     18  C   UNL     1      32.711 -14.710 -24.923  0.00  0.00    +0.035 C 
ATOM     19  C   UNL     1      32.687 -12.335 -24.282  0.00  0.00    +0.035 C 
ENDBRANCH  10  16
ENDBRANCH   8   9
ENDBRANCH   4   8
BRANCH   1  20
ATOM     20  O   UNL     1      31.907 -22.423 -17.828  0.00  0.00    -0.478 OA
BRANCH  20  21
ATOM     21  C   UNL     1      32.270 -22.740 -16.495  0.00  0.00    +0.184 C 
BRANCH  21  23
ATOM     22  N   UNL     1      29.837 -22.388 -16.168  0.00  0.00    +0.388 N 
ATOM     23  C   UNL     1      31.020 -23.143 -15.729  0.00  0.00    -0.017 C 
ATOM     24  C   UNL     1      31.103 -22.824 -14.245  0.00  0.00    -0.020 C 
ATOM     25  C   UNL     1      29.650 -22.718 -13.808  0.00  0.00    -0.025 C 
ATOM     26  C   UNL     1      28.853 -22.588 -15.098  0.00  0.00    -0.082 C 
ATOM     27  H   UNL     1      29.485 -22.753 -17.053  0.00  0.00    -0.084 HD
ATOM     28  H   UNL     1      30.044 -21.402 -16.323  0.00  0.00    -0.084 HD
ENDBRANCH  21  23
ENDBRANCH  20  21
ENDBRANCH   1  20
TORSDOF 6
ENDMDL
MODEL 2
REMARK VINA RESULT:     -11.5      1.004      1.840
REMARK  Name = 44129624
REMARK  6 active torsions:
REMARK  status: ('A' for Active; 'I' for Inactive)
REMARK    1  A    between atoms: C_1  and  O_20
REMARK    2  A    between atoms: C_4  and  C_8
REMARK    3  A    between atoms: C_8  and  C_9
REMARK    4  A    between atoms: C_10  and  C_16
REMARK    5  A    between atoms: O_20  and  C_21
REMARK    6  A    between atoms: C_21  and  C_23
REMARK                            x       y       z     vdW  Elec       q    Type
REMARK                         _______ _______ _______ _____ _____    ______ ____
ROOT
ATOM      1  C   UNL     1      32.790 -21.712 -18.520  0.00  0.00    +0.138 C 
ATOM      2  C   UNL     1      34.175 -21.817 -18.394  0.00  0.00    +0.037 C 
ATOM      3  C   UNL     1      32.235 -20.696 -19.299  0.00  0.00    +0.037 C 
ATOM      4  C   UNL     1      34.451 -19.891 -19.826  0.00  0.00    +0.039 C 
ATOM      5  C   UNL     1      35.006 -20.908 -19.047  0.00  0.00    +0.006 C 
ATOM      6  C   UNL     1      33.067 -19.786 -19.952  0.00  0.00    +0.006 C 
ENDROOT
BRANCH   4   8
ATOM      7  O   UNL     1      36.551 -19.059 -20.433  0.00  0.00    -0.287 OA
ATOM      8  C   UNL     1      35.318 -18.945 -20.509  0.00  0.00    +0.196 C 
BRANCH   8   9
ATOM      9  C   UNL     1      34.784 -17.809 -21.321  0.00  0.00    +0.039 C 
ATOM     10  C   UNL     1      33.785 -15.690 -22.835  0.00  0.00    +0.001 C 
ATOM     11  C   UNL     1      34.595 -17.963 -22.694  0.00  0.00    +0.003 C 
ATOM     12  C   UNL     1      34.474 -16.596 -20.705  0.00  0.00    +0.003 C 
ATOM     13  C   UNL     1      34.095 -16.903 -23.451  0.00  0.00    +0.000 C 
ATOM     14  C   UNL     1      33.975 -15.537 -21.462  0.00  0.00    +0.000 C 
BRANCH  10  16
ATOM     15  S   UNL     1      32.186 -13.370 -25.594  0.00  0.00    -0.086 S 
ATOM     16  C   UNL     1      33.270 -14.601 -23.616  0.00  0.00    +0.007 C 
ATOM     17  C   UNL     1      33.238 -13.223 -23.254  0.00  0.00    +0.007 C 
ATOM     18  C   UNL     1      32.730 -14.821 -24.864  0.00  0.00    +0.035 C 
ATOM     19  C   UNL     1      32.673 -12.443 -24.240  0.00  0.00    +0.035 C 
ENDBRANCH  10  16
ENDBRANCH   8   9
ENDBRANCH   4   8
BRANCH   1  20
ATOM     20  O   UNL     1      31.971 -22.607 -17.877  0.00  0.00    -0.478 OA
BRANCH  20  21
ATOM     21  C   UNL     1      31.475 -22.223 -16.606  0.00  0.00    +0.184 C 
BRANCH  21  23
ATOM     22  N   UNL     1      31.081 -23.255 -14.385  0.00  0.00    +0.388 N 
ATOM     23  C   UNL     1      31.953 -23.227 -15.569  0.00  0.00    -0.017 C 
ATOM     24  C   UNL     1      33.315 -22.879 -14.988  0.00  0.00    -0.020 C 
ATOM     25  C   UNL     1      33.328 -23.577 -13.636  0.00  0.00    -0.025 C 
ATOM     26  C   UNL     1      31.876 -23.935 -13.356  0.00  0.00    -0.082 C 
ATOM     27  H   UNL     1      30.226 -23.774 -14.581  0.00  0.00    -0.084 HD
ATOM     28  H   UNL     1      30.794 -22.320 -14.095  0.00  0.00    -0.084 HD
ENDBRANCH  21  23
ENDBRANCH  20  21
ENDBRANCH   1  20
TORSDOF 6
ENDMDL
MODEL 3
REMARK VINA RESULT:     -10.7      3.982      6.075
REMARK  Name = 44129624
REMARK  6 active torsions:
REMARK  status: ('A' for Active; 'I' for Inactive)
REMARK    1  A    between atoms: C_1  and  O_20
REMARK    2  A    between atoms: C_4  and  C_8
REMARK    3  A    between atoms: C_8  and  C_9
REMARK    4  A    between atoms: C_10  and  C_16
REMARK    5  A    between atoms: O_20  and  C_21
REMARK    6  A    between atoms: C_21  and  C_23
REMARK                            x       y       z     vdW  Elec       q    Type
REMARK                         _______ _______ _______ _____ _____    ______ ____
ROOT
ATOM      1  C   UNL     1      34.811 -22.821 -13.467  0.00  0.00    +0.138 C 
ATOM      2  C   UNL     1      35.559 -22.375 -14.556  0.00  0.00    +0.037 C 
ATOM      3  C   UNL     1      33.506 -23.278 -13.658  0.00  0.00    +0.037 C 
ATOM      4  C   UNL     1      33.701 -22.843 -16.026  0.00  0.00    +0.039 C 
ATOM      5  C   UNL     1      35.005 -22.386 -15.835  0.00  0.00    +0.006 C 
ATOM      6  C   UNL     1      32.952 -23.289 -14.938  0.00  0.00    +0.006 C 
ENDROOT
BRANCH   4   8
ATOM      7  O   UNL     1      32.431 -23.816 -17.732  0.00  0.00    -0.287 OA
ATOM      8  C   UNL     1      33.124 -22.857 -17.361  0.00  0.00    +0.196 C 
BRANCH   8   9
ATOM      9  C   UNL     1      33.329 -21.742 -18.334  0.00  0.00    +0.039 C 
ATOM     10  C   UNL     1      33.711 -19.661 -20.152  0.00  0.00    +0.001 C 
ATOM     11  C   UNL     1      34.620 -21.385 -18.723  0.00  0.00    +0.003 C 
ATOM     12  C   UNL     1      32.229 -21.057 -18.853  0.00  0.00    +0.003 C 
ATOM     13  C   UNL     1      34.811 -20.344 -19.633  0.00  0.00    +0.000 C 
ATOM     14  C   UNL     1      32.421 -20.017 -19.762  0.00  0.00    +0.000 C 
BRANCH  10  16
ATOM     15  S   UNL     1      33.905 -17.332 -23.329  0.00  0.00    -0.086 S 
ATOM     16  C   UNL     1      33.910 -18.591 -21.089  0.00  0.00    +0.007 C 
ATOM     17  C   UNL     1      34.445 -17.298 -20.817  0.00  0.00    +0.007 C 
ATOM     18  C   UNL     1      33.575 -18.744 -22.416  0.00  0.00    +0.035 C 
ATOM     19  C   UNL     1      34.498 -16.512 -21.948  0.00  0.00    +0.035 C 
ENDBRANCH  10  16
ENDBRANCH   8   9
ENDBRANCH   4   8
BRANCH   1  20
ATOM     20  O   UNL     1      35.355 -22.810 -12.207  0.00  0.00    -0.478 OA
BRANCH  20  21
ATOM     21  C   UNL     1      35.225 -23.996 -11.442  0.00  0.00    +0.184 C 
BRANCH  21  23
ATOM     22  N   UNL     1      37.596 -24.217 -12.136  0.00  0.00    +0.388 N 
ATOM     23  C   UNL     1      36.360 -24.941 -11.805  0.00  0.00    -0.017 C 
ATOM     24  C   UNL     1      36.083 -25.746 -13.065  0.00  0.00    -0.020 C 
ATOM     25  C   UNL     1      37.467 -26.120 -13.575  0.00  0.00    -0.025 C 
ATOM     26  C   UNL     1      38.429 -25.204 -12.832  0.00  0.00    -0.082 C 
ATOM     27  H   UNL     1      38.059 -23.890 -11.288  0.00  0.00    -0.084 HD
ATOM     28  H   UNL     1      37.418 -23.390 -12.706  0.00  0.00    -0.084 HD
ENDBRANCH  21  23
ENDBRANCH  20  21
ENDBRANCH   1  20
TORSDOF 6
ENDMDL
MODEL 4
REMARK VINA RESULT:     -10.4      3.795      5.549
REMARK  Name = 44129624
REMARK  6 active torsions:
REMARK  status: ('A' for Active; 'I' for Inactive)
REMARK    1  A    between atoms: C_1  and  O_20
REMARK    2  A    between atoms: C_4  and  C_8
REMARK    3  A    between atoms: C_8  and  C_9
REMARK    4  A    between atoms: C_10  and  C_16
REMARK    5  A    between atoms: O_20  and  C_21
REMARK    6  A    between atoms: C_21  and  C_23
REMARK                            x       y       z     vdW  Elec       q    Type
REMARK                         _______ _______ _______ _____ _____    ______ ____
ROOT
ATOM      1  C   UNL     1      36.013 -22.772 -14.505  0.00  0.00    +0.138 C 
ATOM      2  C   UNL     1      36.309 -21.964 -15.602  0.00  0.00    +0.037 C 
ATOM      3  C   UNL     1      34.771 -23.403 -14.417  0.00  0.00    +0.037 C 
ATOM      4  C   UNL     1      34.123 -22.416 -16.525  0.00  0.00    +0.039 C 
ATOM      5  C   UNL     1      35.364 -21.785 -16.611  0.00  0.00    +0.006 C 
ATOM      6  C   UNL     1      33.827 -23.224 -15.428  0.00  0.00    +0.006 C 
ENDROOT
BRANCH   4   8
ATOM      7  O   UNL     1      32.112 -22.926 -17.603  0.00  0.00    -0.287 OA
ATOM      8  C   UNL     1      33.139 -22.231 -17.579  0.00  0.00    +0.196 C 
BRANCH   8   9
ATOM      9  C   UNL     1      33.308 -21.219 -18.665  0.00  0.00    +0.039 C 
ATOM     10  C   UNL     1      33.623 -19.330 -20.693  0.00  0.00    +0.001 C 
ATOM     11  C   UNL     1      34.586 -20.881 -19.110  0.00  0.00    +0.003 C 
ATOM     12  C   UNL     1      32.188 -20.611 -19.234  0.00  0.00    +0.003 C 
ATOM     13  C   UNL     1      34.743 -19.936 -20.125  0.00  0.00    +0.000 C 
ATOM     14  C   UNL     1      32.345 -19.667 -20.247  0.00  0.00    +0.000 C 
BRANCH  10  16
ATOM     15  S   UNL     1      34.352 -16.117 -22.861  0.00  0.00    -0.086 S 
ATOM     16  C   UNL     1      33.787 -18.358 -21.738  0.00  0.00    +0.007 C 
ATOM     17  C   UNL     1      33.527 -18.536 -23.127  0.00  0.00    +0.007 C 
ATOM     18  C   UNL     1      34.241 -17.088 -21.455  0.00  0.00    +0.035 C 
ATOM     19  C   UNL     1      33.792 -17.396 -23.853  0.00  0.00    +0.035 C 
ENDBRANCH  10  16
ENDBRANCH   8   9
ENDBRANCH   4   8
BRANCH   1  20
ATOM     20  O   UNL     1      36.942 -22.948 -13.510  0.00  0.00    -0.478 OA
BRANCH  20  21
ATOM     21  C   UNL     1      37.098 -24.263 -13.004  0.00  0.00    +0.184 C 
BRANCH  21  23
ATOM     22  N   UNL     1      35.315 -24.937 -11.416  0.00  0.00    +0.388 N 
ATOM     23  C   UNL     1      36.629 -24.291 -11.557  0.00  0.00    -0.017 C 
ATOM     24  C   UNL     1      36.395 -22.903 -10.982  0.00  0.00    -0.020 C 
ATOM     25  C   UNL     1      35.407 -23.136  -9.848  0.00  0.00    -0.025 C 
ATOM     26  C   UNL     1      34.843 -24.529 -10.089  0.00  0.00    -0.082 C 
ATOM     27  H   UNL     1      35.406 -25.952 -11.469  0.00  0.00    -0.084 HD
ATOM     28  H   UNL     1      34.670 -24.665 -12.157  0.00  0.00    -0.084 HD
ENDBRANCH  21  23
ENDBRANCH  20  21
ENDBRANCH   1  20
TORSDOF 6
ENDMDL
MODEL 5
REMARK VINA RESULT:     -10.3      5.166     10.636
REMARK  Name = 44129624
REMARK  6 active torsions:
REMARK  status: ('A' for Active; 'I' for Inactive)
REMARK    1  A    between atoms: C_1  and  O_20
REMARK    2  A    between atoms: C_4  and  C_8
REMARK    3  A    between atoms: C_8  and  C_9
REMARK    4  A    between atoms: C_10  and  C_16
REMARK    5  A    between atoms: O_20  and  C_21
REMARK    6  A    between atoms: C_21  and  C_23
REMARK                            x       y       z     vdW  Elec       q    Type
REMARK                         _______ _______ _______ _____ _____    ______ ____
ROOT
ATOM      1  C   UNL     1      32.775 -12.069 -22.815  0.00  0.00    +0.138 C 
ATOM      2  C   UNL     1      32.778 -12.512 -24.137  0.00  0.00    +0.037 C 
ATOM      3  C   UNL     1      33.121 -12.944 -21.785  0.00  0.00    +0.037 C 
ATOM      4  C   UNL     1      33.474 -14.705 -23.401  0.00  0.00    +0.039 C 
ATOM      5  C   UNL     1      33.127 -13.829 -24.431  0.00  0.00    +0.006 C 
ATOM      6  C   UNL     1      33.471 -14.262 -22.079  0.00  0.00    +0.006 C 
ENDROOT
BRANCH   4   8
ATOM      7  O   UNL     1      34.138 -16.401 -24.868  0.00  0.00    -0.287 OA
ATOM      8  C   UNL     1      33.841 -16.078 -23.708  0.00  0.00    +0.196 C 
BRANCH   8   9
ATOM      9  C   UNL     1      33.880 -17.149 -22.666  0.00  0.00    +0.039 C 
ATOM     10  C   UNL     1      33.952 -19.148 -20.722  0.00  0.00    +0.001 C 
ATOM     11  C   UNL     1      34.501 -16.907 -21.441  0.00  0.00    +0.003 C 
ATOM     12  C   UNL     1      33.297 -18.391 -22.920  0.00  0.00    +0.003 C 
ATOM     13  C   UNL     1      34.537 -17.907 -20.469  0.00  0.00    +0.000 C 
ATOM     14  C   UNL     1      33.333 -19.390 -21.948  0.00  0.00    +0.000 C 
BRANCH  10  16
ATOM     15  S   UNL     1      33.133 -21.967 -18.089  0.00  0.00    -0.086 S 
ATOM     16  C   UNL     1      33.990 -20.176 -19.720  0.00  0.00    +0.007 C 
ATOM     17  C   UNL     1      35.142 -20.699 -19.067  0.00  0.00    +0.007 C 
ATOM     18  C   UNL     1      32.829 -20.776 -19.282  0.00  0.00    +0.035 C 
ATOM     19  C   UNL     1      34.820 -21.680 -18.155  0.00  0.00    +0.035 C 
ENDBRANCH  10  16
ENDBRANCH   8   9
ENDBRANCH   4   8
BRANCH   1  20
ATOM     20  O   UNL     1      32.430 -10.772 -22.525  0.00  0.00    -0.478 OA
BRANCH  20  21
ATOM     21  C   UNL     1      32.629  -9.812 -23.549  0.00  0.00    +0.184 C 
BRANCH  21  23
ATOM     22  N   UNL     1      31.996  -7.417 -23.423  0.00  0.00    +0.388 N 
ATOM     23  C   UNL     1      32.896  -8.459 -22.908  0.00  0.00    -0.017 C 
ATOM     24  C   UNL     1      34.278  -7.913 -23.229  0.00  0.00    -0.020 C 
ATOM     25  C   UNL     1      34.131  -6.409 -23.049  0.00  0.00    -0.025 C 
ATOM     26  C   UNL     1      32.630  -6.153 -23.031  0.00  0.00    -0.082 C 
ATOM     27  H   UNL     1      31.071  -7.501 -23.002  0.00  0.00    -0.084 HD
ATOM     28  H   UNL     1      31.863  -7.486 -24.432  0.00  0.00    -0.084 HD
ENDBRANCH  21  23
ENDBRANCH  20  21
ENDBRANCH   1  20
TORSDOF 6
ENDMDL
MODEL 6
REMARK VINA RESULT:     -10.3      3.022      5.807
REMARK  Name = 44129624
REMARK  6 active torsions:
REMARK  status: ('A' for Active; 'I' for Inactive)
REMARK    1  A    between atoms: C_1  and  O_20
REMARK    2  A    between atoms: C_4  and  C_8
REMARK    3  A    between atoms: C_8  and  C_9
REMARK    4  A    between atoms: C_10  and  C_16
REMARK    5  A    between atoms: O_20  and  C_21
REMARK    6  A    between atoms: C_21  and  C_23
REMARK                            x       y       z     vdW  Elec       q    Type
REMARK                         _______ _______ _______ _____ _____    ______ ____
ROOT
ATOM      1  C   UNL     1      34.259 -18.032 -22.594  0.00  0.00    +0.138 C 
ATOM      2  C   UNL     1      33.367 -18.290 -23.633  0.00  0.00    +0.037 C 
ATOM      3  C   UNL     1      34.622 -16.719 -22.295  0.00  0.00    +0.037 C 
ATOM      4  C   UNL     1      33.199 -15.922 -24.077  0.00  0.00    +0.039 C 
ATOM      5  C   UNL     1      32.836 -17.236 -24.375  0.00  0.00    +0.006 C 
ATOM      6  C   UNL     1      34.091 -15.664 -23.038  0.00  0.00    +0.006 C 
ENDROOT
BRANCH   4   8
ATOM      7  O   UNL     1      32.024 -15.047 -25.900  0.00  0.00    -0.287 OA
ATOM      8  C   UNL     1      32.643 -14.822 -24.849  0.00  0.00    +0.196 C 
BRANCH   8   9
ATOM      9  C   UNL     1      32.785 -13.395 -24.428  0.00  0.00    +0.039 C 
ATOM     10  C   UNL     1      33.049 -10.732 -23.643  0.00  0.00    +0.001 C 
ATOM     11  C   UNL     1      32.646 -13.048 -23.085  0.00  0.00    +0.003 C 
ATOM     12  C   UNL     1      33.055 -12.410 -25.379  0.00  0.00    +0.003 C 
ATOM     13  C   UNL     1      32.779 -11.716 -22.692  0.00  0.00    +0.000 C 
ATOM     14  C   UNL     1      33.187 -11.079 -24.986  0.00  0.00    +0.000 C 
BRANCH  10  16
ATOM     15  S   UNL     1      32.572  -7.100 -22.183  0.00  0.00    -0.086 S 
ATOM     16  C   UNL     1      33.186  -9.361 -23.236  0.00  0.00    +0.007 C 
ATOM     17  C   UNL     1      34.305  -8.507 -23.455  0.00  0.00    +0.007 C 
ATOM     18  C   UNL     1      32.173  -8.723 -22.556  0.00  0.00    +0.035 C 
ATOM     19  C   UNL     1      34.104  -7.248 -22.933  0.00  0.00    +0.035 C 
ENDBRANCH  10  16
ENDBRANCH   8   9
ENDBRANCH   4   8
BRANCH   1  20
ATOM     20  O   UNL     1      34.782 -19.070 -21.863  0.00  0.00    -0.478 OA
BRANCH  20  21
ATOM     21  C   UNL     1      34.603 -19.019 -20.458  0.00  0.00    +0.184 C 
BRANCH  21  23
ATOM     22  N   UNL     1      32.709 -20.248 -19.429  0.00  0.00    +0.388 N 
ATOM     23  C   UNL     1      34.067 -20.361 -19.983  0.00  0.00    -0.017 C 
ATOM     24  C   UNL     1      34.865 -20.944 -18.826  0.00  0.00    -0.020 C 
ATOM     25  C   UNL     1      33.883 -21.880 -18.137  0.00  0.00    -0.025 C 
ATOM     26  C   UNL     1      32.513 -21.489 -18.673  0.00  0.00    -0.082 C 
ATOM     27  H   UNL     1      32.022 -20.170 -20.178  0.00  0.00    -0.084 HD
ATOM     28  H   UNL     1      32.598 -19.418 -18.846  0.00  0.00    -0.084 HD
ENDBRANCH  21  23
ENDBRANCH  20  21
ENDBRANCH   1  20
TORSDOF 6
ENDMDL
MODEL 7
REMARK VINA RESULT:     -10.3      4.758     10.120
REMARK  Name = 44129624
REMARK  6 active torsions:
REMARK  status: ('A' for Active; 'I' for Inactive)
REMARK    1  A    between atoms: C_1  and  O_20
REMARK    2  A    between atoms: C_4  and  C_8
REMARK    3  A    between atoms: C_8  and  C_9
REMARK    4  A    between atoms: C_10  and  C_16
REMARK    5  A    between atoms: O_20  and  C_21
REMARK    6  A    between atoms: C_21  and  C_23
REMARK                            x       y       z     vdW  Elec       q    Type
REMARK                         _______ _______ _______ _____ _____    ______ ____
ROOT
ATOM      1  C   UNL     1      34.808 -18.899 -20.586  0.00  0.00    +0.138 C 
ATOM      2  C   UNL     1      33.430 -19.111 -20.553  0.00  0.00    +0.037 C 
ATOM      3  C   UNL     1      35.658 -19.716 -19.841  0.00  0.00    +0.037 C 
ATOM      4  C   UNL     1      33.751 -20.959 -19.031  0.00  0.00    +0.039 C 
ATOM      5  C   UNL     1      32.901 -20.140 -19.776  0.00  0.00    +0.006 C 
ATOM      6  C   UNL     1      35.129 -20.747 -19.064  0.00  0.00    +0.006 C 
ENDROOT
BRANCH   4   8
ATOM      7  O   UNL     1      32.303 -22.760 -18.676  0.00  0.00    -0.287 OA
ATOM      8  C   UNL     1      33.199 -22.034 -18.222  0.00  0.00    +0.196 C 
BRANCH   8   9
ATOM      9  C   UNL     1      33.672 -22.316 -16.833  0.00  0.00    +0.039 C 
ATOM     10  C   UNL     1      34.556 -22.843 -14.240  0.00  0.00    +0.001 C 
ATOM     11  C   UNL     1      32.809 -22.906 -15.909  0.00  0.00    +0.003 C 
ATOM     12  C   UNL     1      34.976 -21.989 -16.460  0.00  0.00    +0.003 C 
ATOM     13  C   UNL     1      33.252 -23.169 -14.612  0.00  0.00    +0.000 C 
ATOM     14  C   UNL     1      35.417 -22.252 -15.163  0.00  0.00    +0.000 C 
BRANCH  10  16
ATOM     15  S   UNL     1      34.978 -24.018 -10.499  0.00  0.00    -0.086 S 
ATOM     16  C   UNL     1      35.009 -23.116 -12.905  0.00  0.00    +0.007 C 
ATOM     17  C   UNL     1      36.249 -22.728 -12.322  0.00  0.00    +0.007 C 
ATOM     18  C   UNL     1      34.221 -23.823 -12.023  0.00  0.00    +0.035 C 
ATOM     19  C   UNL     1      36.363 -23.155 -11.016  0.00  0.00    +0.035 C 
ENDBRANCH  10  16
ENDBRANCH   8   9
ENDBRANCH   4   8
BRANCH   1  20
ATOM     20  O   UNL     1      35.329 -17.885 -21.350  0.00  0.00    -0.478 OA
BRANCH  20  21
ATOM     21  C   UNL     1      34.479 -17.323 -22.336  0.00  0.00    +0.184 C 
BRANCH  21  23
ATOM     22  N   UNL     1      33.831 -15.448 -20.846  0.00  0.00    +0.388 N 
ATOM     23  C   UNL     1      34.428 -15.815 -22.139  0.00  0.00    -0.017 C 
ATOM     24  C   UNL     1      33.532 -15.114 -23.146  0.00  0.00    -0.020 C 
ATOM     25  C   UNL     1      33.140 -13.818 -22.452  0.00  0.00    -0.025 C 
ATOM     26  C   UNL     1      33.492 -14.028 -20.986  0.00  0.00    -0.082 C 
ATOM     27  H   UNL     1      34.500 -15.585 -20.089  0.00  0.00    -0.084 HD
ATOM     28  H   UNL     1      33.017 -16.020 -20.621  0.00  0.00    -0.084 HD
ENDBRANCH  21  23
ENDBRANCH  20  21
ENDBRANCH   1  20
TORSDOF 6
ENDMDL
MODEL 8
REMARK VINA RESULT:     -10.3      4.389     10.019
REMARK  Name = 44129624
REMARK  6 active torsions:
REMARK  status: ('A' for Active; 'I' for Inactive)
REMARK    1  A    between atoms: C_1  and  O_20
REMARK    2  A    between atoms: C_4  and  C_8
REMARK    3  A    between atoms: C_8  and  C_9
REMARK    4  A    between atoms: C_10  and  C_16
REMARK    5  A    between atoms: O_20  and  C_21
REMARK    6  A    between atoms: C_21  and  C_23
REMARK                            x       y       z     vdW  Elec       q    Type
REMARK                         _______ _______ _______ _____ _____    ______ ____
ROOT
ATOM      1  C   UNL     1      33.669 -14.587 -21.925  0.00  0.00    +0.138 C 
ATOM      2  C   UNL     1      33.673 -15.309 -23.117  0.00  0.00    +0.037 C 
ATOM      3  C   UNL     1      33.863 -15.245 -20.710  0.00  0.00    +0.037 C 
ATOM      4  C   UNL     1      34.065 -17.348 -21.882  0.00  0.00    +0.039 C 
ATOM      5  C   UNL     1      33.871 -16.689 -23.097  0.00  0.00    +0.006 C 
ATOM      6  C   UNL     1      34.061 -16.626 -20.690  0.00  0.00    +0.006 C 
ENDROOT
BRANCH   4   8
ATOM      7  O   UNL     1      34.725 -19.366 -22.861  0.00  0.00    -0.287 OA
ATOM      8  C   UNL     1      34.275 -18.786 -21.862  0.00  0.00    +0.196 C 
BRANCH   8   9
ATOM      9  C   UNL     1      33.966 -19.624 -20.663  0.00  0.00    +0.039 C 
ATOM     10  C   UNL     1      33.389 -21.187 -18.426  0.00  0.00    +0.001 C 
ATOM     11  C   UNL     1      35.003 -20.192 -19.924  0.00  0.00    +0.003 C 
ATOM     12  C   UNL     1      32.640 -19.838 -20.284  0.00  0.00    +0.003 C 
ATOM     13  C   UNL     1      34.714 -20.974 -18.805  0.00  0.00    +0.000 C 
ATOM     14  C   UNL     1      32.352 -20.620 -19.166  0.00  0.00    +0.000 C 
BRANCH  10  16
ATOM     15  S   UNL     1      33.496 -23.338 -15.123  0.00  0.00    -0.086 S 
ATOM     16  C   UNL     1      33.094 -21.991 -17.273  0.00  0.00    +0.007 C 
ATOM     17  C   UNL     1      31.817 -22.469 -16.862  0.00  0.00    +0.007 C 
ATOM     18  C   UNL     1      34.097 -22.391 -16.417  0.00  0.00    +0.035 C 
ATOM     19  C   UNL     1      31.891 -23.215 -15.706  0.00  0.00    +0.035 C 
ENDBRANCH  10  16
ENDBRANCH   8   9
ENDBRANCH   4   8
BRANCH   1  20
ATOM     20  O   UNL     1      33.473 -13.229 -21.944  0.00  0.00    -0.478 OA
BRANCH  20  21
ATOM     21  C   UNL     1      33.152 -12.645 -23.195  0.00  0.00    +0.184 C 
BRANCH  21  23
ATOM     22  N   UNL     1      32.214 -10.457 -22.495  0.00  0.00    +0.388 N 
ATOM     23  C   UNL     1      33.365 -11.142 -23.104  0.00  0.00    -0.017 C 
ATOM     24  C   UNL     1      33.483 -10.475 -24.466  0.00  0.00    -0.020 C 
ATOM     25  C   UNL     1      33.082  -9.031 -24.205  0.00  0.00    -0.025 C 
ATOM     26  C   UNL     1      32.395  -9.045 -22.846  0.00  0.00    -0.082 C 
ATOM     27  H   UNL     1      32.218 -10.580 -21.483  0.00  0.00    -0.084 HD
ATOM     28  H   UNL     1      31.324 -10.828 -22.828  0.00  0.00    -0.084 HD
ENDBRANCH  21  23
ENDBRANCH  20  21
ENDBRANCH   1  20
TORSDOF 6
ENDMDL
MODEL 9
REMARK VINA RESULT:     -10.1      2.411      3.816
REMARK  Name = 44129624
REMARK  6 active torsions:
REMARK  status: ('A' for Active; 'I' for Inactive)
REMARK    1  A    between atoms: C_1  and  O_20
REMARK    2  A    between atoms: C_4  and  C_8
REMARK    3  A    between atoms: C_8  and  C_9
REMARK    4  A    between atoms: C_10  and  C_16
REMARK    5  A    between atoms: O_20  and  C_21
REMARK    6  A    between atoms: C_21  and  C_23
REMARK                            x       y       z     vdW  Elec       q    Type
REMARK                         _______ _______ _______ _____ _____    ______ ____
ROOT
ATOM      1  C   UNL     1      35.099 -19.564 -19.964  0.00  0.00    +0.138 C 
ATOM      2  C   UNL     1      35.998 -18.735 -20.633  0.00  0.00    +0.037 C 
ATOM      3  C   UNL     1      33.781 -19.668 -20.409  0.00  0.00    +0.037 C 
ATOM      4  C   UNL     1      34.262 -18.113 -22.194  0.00  0.00    +0.039 C 
ATOM      5  C   UNL     1      35.580 -18.010 -21.748  0.00  0.00    +0.006 C 
ATOM      6  C   UNL     1      33.363 -18.942 -21.524  0.00  0.00    +0.006 C 
ENDROOT
BRANCH   4   8
ATOM      7  O   UNL     1      33.635 -17.934 -24.439  0.00  0.00    -0.287 OA
ATOM      8  C   UNL     1      33.828 -17.358 -23.358  0.00  0.00    +0.196 C 
BRANCH   8   9
ATOM      9  C   UNL     1      33.595 -15.882 -23.316  0.00  0.00    +0.039 C 
ATOM     10  C   UNL     1      33.161 -13.128 -23.236  0.00  0.00    +0.001 C 
ATOM     11  C   UNL     1      33.028 -15.235 -24.413  0.00  0.00    +0.003 C 
ATOM     12  C   UNL     1      33.947 -15.153 -22.179  0.00  0.00    +0.003 C 
ATOM     13  C   UNL     1      32.810 -13.857 -24.372  0.00  0.00    +0.000 C 
ATOM     14  C   UNL     1      33.730 -13.776 -22.140  0.00  0.00    +0.000 C 
BRANCH  10  16
ATOM     15  S   UNL     1      33.049  -9.244 -23.907  0.00  0.00    -0.086 S 
ATOM     16  C   UNL     1      32.936 -11.711 -23.197  0.00  0.00    +0.007 C 
ATOM     17  C   UNL     1      32.200 -10.984 -22.217  0.00  0.00    +0.007 C 
ATOM     18  C   UNL     1      33.452 -10.887 -24.173  0.00  0.00    +0.035 C 
ATOM     19  C   UNL     1      32.182  -9.631 -22.482  0.00  0.00    +0.035 C 
ENDBRANCH  10  16
ENDBRANCH   8   9
ENDBRANCH   4   8
BRANCH   1  20
ATOM     20  O   UNL     1      35.509 -20.279 -18.865  0.00  0.00    -0.478 OA
BRANCH  20  21
ATOM     21  C   UNL     1      34.860 -21.517 -18.627  0.00  0.00    +0.184 C 
BRANCH  21  23
ATOM     22  N   UNL     1      35.515 -22.041 -16.292  0.00  0.00    +0.388 N 
ATOM     23  C   UNL     1      34.431 -21.572 -17.169  0.00  0.00    -0.017 C 
ATOM     24  C   UNL     1      33.320 -22.580 -16.914  0.00  0.00    -0.020 C 
ATOM     25  C   UNL     1      33.463 -22.921 -15.439  0.00  0.00    -0.025 C 
ATOM     26  C   UNL     1      34.844 -22.417 -15.043  0.00  0.00    -0.082 C 
ATOM     27  H   UNL     1      36.191 -21.295 -16.127  0.00  0.00    -0.084 HD
ATOM     28  H   UNL     1      36.034 -22.817 -16.702  0.00  0.00    -0.084 HD
ENDBRANCH  21  23
ENDBRANCH  20  21
ENDBRANCH   1  20
TORSDOF 6
ENDMDL
