MODEL 1
REMARK VINA RESULT:     -11.7      0.000      0.000
REMARK  Name = 11978813
REMARK  7 active torsions:
REMARK  status: ('A' for Active; 'I' for Inactive)
REMARK    1  A    between atoms: C_1  and  N_2
REMARK    2  A    between atoms: C_1  and  C_18
REMARK    3  A    between atoms: N_3  and  C_10
REMARK    4  A    between atoms: C_18  and  C_19
REMARK    5  A    between atoms: C_19  and  C_20
REMARK    6  A    between atoms: C_20  and  O_21
REMARK    7  A    between atoms: O_21  and  C_24
REMARK                            x       y       z     vdW  Elec       q    Type
REMARK                         _______ _______ _______ _____ _____    ______ ____
ROOT
ATOM      1  C   UNL     1      34.955 -21.404 -18.206  0.00  0.00    -0.077 C 
ENDROOT
BRANCH   1   2
ATOM      2  N   UNL     1      34.868 -20.642 -19.451  0.00  0.00    +0.389 N 
ATOM      3  N   UNL     1      34.372 -18.343 -21.073  0.00  0.00    -0.312 N 
ATOM      4  C   UNL     1      33.496 -20.173 -19.673  0.00  0.00    -0.055 C 
ATOM      5  C   UNL     1      35.788 -19.498 -19.421  0.00  0.00    -0.055 C 
ATOM      6  C   UNL     1      33.379 -19.423 -21.002  0.00  0.00    +0.068 C 
ATOM      7  C   UNL     1      35.748 -18.724 -20.741  0.00  0.00    +0.068 C 
ATOM      8  H   UNL     1      35.135 -21.258 -20.220  0.00  0.00    -0.080 HD
BRANCH   3  10
ATOM      9  S   UNL     1      33.338 -13.435 -21.727  0.00  0.00    -0.086 S 
ATOM     10  C   UNL     1      34.139 -17.293 -21.969  0.00  0.00    +0.048 C 
ATOM     11  C   UNL     1      33.868 -15.958 -21.528  0.00  0.00    +0.020 C 
ATOM     12  C   UNL     1      34.170 -17.545 -23.358  0.00  0.00    +0.015 C 
ATOM     13  C   UNL     1      33.644 -14.956 -22.478  0.00  0.00    +0.031 C 
ATOM     14  C   UNL     1      33.779 -15.436 -20.194  0.00  0.00    +0.009 C 
ATOM     15  C   UNL     1      33.945 -16.535 -24.282  0.00  0.00    +0.002 C 
ATOM     16  C   UNL     1      33.679 -15.230 -23.859  0.00  0.00    +0.007 C 
ATOM     17  C   UNL     1      33.499 -14.091 -20.163  0.00  0.00    +0.035 C 
ENDBRANCH   3  10
ENDBRANCH   1   2
BRANCH   1  18
ATOM     18  C   UNL     1      36.096 -20.874 -17.338  0.00  0.00    -0.019 C 
BRANCH  18  19
ATOM     19  C   UNL     1      36.442 -21.858 -16.221  0.00  0.00    +0.045 C 
BRANCH  19  20
ATOM     20  C   UNL     1      35.301 -21.996 -15.222  0.00  0.00    +0.205 C 
BRANCH  20  21
ATOM     21  O   UNL     1      34.699 -23.278 -15.352  0.00  0.00    -0.475 OA
BRANCH  21  24
ATOM     22  O   UNL     1      27.759 -22.107 -16.393  0.00  0.00    -0.270 OA
ATOM     23  N   UNL     1      30.009 -22.476 -16.071  0.00  0.00    -0.280 N 
ATOM     24  C   UNL     1      33.398 -23.395 -14.936  0.00  0.00    +0.140 C 
ATOM     25  C   UNL     1      32.377 -22.872 -15.720  0.00  0.00    +0.052 C 
ATOM     26  C   UNL     1      31.054 -22.998 -15.288  0.00  0.00    +0.054 C 
ATOM     27  C   UNL     1      33.118 -24.036 -13.734  0.00  0.00    +0.037 C 
ATOM     28  C   UNL     1      30.756 -23.640 -14.081  0.00  0.00    +0.014 C 
ATOM     29  C   UNL     1      31.794 -24.160 -13.303  0.00  0.00    +0.004 C 
ATOM     30  C   UNL     1      29.360 -23.750 -13.666  0.00  0.00    +0.006 C 
ATOM     31  C   UNL     1      28.678 -22.560 -15.713  0.00  0.00    +0.250 C 
ATOM     32  C   UNL     1      28.380 -23.246 -14.427  0.00  0.00    +0.058 C 
ATOM     33  H   UNL     1      30.238 -22.026 -16.917  0.00  0.00    +0.155 HD
ENDBRANCH  21  24
ENDBRANCH  20  21
ENDBRANCH  19  20
ENDBRANCH  18  19
ENDBRANCH   1  18
TORSDOF 7
ENDMDL
MODEL 2
REMARK VINA RESULT:     -11.4      3.778      6.312
REMARK  Name = 11978813
REMARK  7 active torsions:
REMARK  status: ('A' for Active; 'I' for Inactive)
REMARK    1  A    between atoms: C_1  and  N_2
REMARK    2  A    between atoms: C_1  and  C_18
REMARK    3  A    between atoms: N_3  and  C_10
REMARK    4  A    between atoms: C_18  and  C_19
REMARK    5  A    between atoms: C_19  and  C_20
REMARK    6  A    between atoms: C_20  and  O_21
REMARK    7  A    between atoms: O_21  and  C_24
REMARK                            x       y       z     vdW  Elec       q    Type
REMARK                         _______ _______ _______ _____ _____    ______ ____
ROOT
ATOM      1  C   UNL     1      33.117 -16.415 -24.142  0.00  0.00    -0.077 C 
ENDROOT
BRANCH   1   2
ATOM      2  N   UNL     1      32.797 -15.021 -23.837  0.00  0.00    +0.389 N 
ATOM      3  N   UNL     1      33.239 -12.200 -23.760  0.00  0.00    -0.312 N 
ATOM      4  C   UNL     1      33.797 -14.451 -22.926  0.00  0.00    -0.055 C 
ATOM      5  C   UNL     1      32.731 -14.225 -25.068  0.00  0.00    -0.055 C 
ATOM      6  C   UNL     1      33.441 -13.010 -22.553  0.00  0.00    +0.068 C 
ATOM      7  C   UNL     1      32.342 -12.776 -24.767  0.00  0.00    +0.068 C 
ATOM      8  H   UNL     1      31.884 -14.997 -23.381  0.00  0.00    -0.080 HD
BRANCH   3  10
ATOM      9  S   UNL     1      31.642  -7.948 -21.534  0.00  0.00    -0.086 S 
ATOM     10  C   UNL     1      33.354 -10.810 -23.647  0.00  0.00    +0.048 C 
ATOM     11  C   UNL     1      32.546 -10.046 -22.744  0.00  0.00    +0.020 C 
ATOM     12  C   UNL     1      34.294 -10.124 -24.446  0.00  0.00    +0.015 C 
ATOM     13  C   UNL     1      32.713  -8.659 -22.683  0.00  0.00    +0.031 C 
ATOM     14  C   UNL     1      31.529 -10.487 -21.832  0.00  0.00    +0.009 C 
ATOM     15  C   UNL     1      34.442  -8.745 -24.368  0.00  0.00    +0.002 C 
ATOM     16  C   UNL     1      33.658  -7.995 -23.489  0.00  0.00    +0.007 C 
ATOM     17  C   UNL     1      30.964  -9.456 -21.121  0.00  0.00    +0.035 C 
ENDBRANCH   3  10
ENDBRANCH   1   2
BRANCH   1  18
ATOM     18  C   UNL     1      34.117 -16.965 -23.126  0.00  0.00    -0.019 C 
BRANCH  18  19
ATOM     19  C   UNL     1      34.006 -18.485 -23.010  0.00  0.00    +0.045 C 
BRANCH  19  20
ATOM     20  C   UNL     1      34.348 -18.966 -21.606  0.00  0.00    +0.205 C 
BRANCH  20  21
ATOM     21  O   UNL     1      33.174 -19.444 -20.961  0.00  0.00    -0.475 OA
BRANCH  21  24
ATOM     22  O   UNL     1      30.471 -23.229 -15.578  0.00  0.00    -0.270 OA
ATOM     23  N   UNL     1      31.329 -21.998 -17.324  0.00  0.00    -0.280 N 
ATOM     24  C   UNL     1      33.354 -20.233 -19.855  0.00  0.00    +0.140 C 
ATOM     25  C   UNL     1      32.246 -20.706 -19.162  0.00  0.00    +0.052 C 
ATOM     26  C   UNL     1      32.440 -21.511 -18.037  0.00  0.00    +0.054 C 
ATOM     27  C   UNL     1      34.643 -20.552 -19.442  0.00  0.00    +0.037 C 
ATOM     28  C   UNL     1      33.730 -21.840 -17.608  0.00  0.00    +0.014 C 
ATOM     29  C   UNL     1      34.834 -21.357 -18.316  0.00  0.00    +0.004 C 
ATOM     30  C   UNL     1      33.889 -22.685 -16.427  0.00  0.00    +0.006 C 
ATOM     31  C   UNL     1      31.437 -22.799 -16.205  0.00  0.00    +0.250 C 
ATOM     32  C   UNL     1      32.817 -23.138 -15.764  0.00  0.00    +0.058 C 
ATOM     33  H   UNL     1      30.428 -21.756 -17.640  0.00  0.00    +0.155 HD
ENDBRANCH  21  24
ENDBRANCH  20  21
ENDBRANCH  19  20
ENDBRANCH  18  19
ENDBRANCH   1  18
TORSDOF 7
ENDMDL
MODEL 3
REMARK VINA RESULT:     -11.3      4.594      8.017
REMARK  Name = 11978813
REMARK  7 active torsions:
REMARK  status: ('A' for Active; 'I' for Inactive)
REMARK    1  A    between atoms: C_1  and  N_2
REMARK    2  A    between atoms: C_1  and  C_18
REMARK    3  A    between atoms: N_3  and  C_10
REMARK    4  A    between atoms: C_18  and  C_19
REMARK    5  A    between atoms: C_19  and  C_20
REMARK    6  A    between atoms: C_20  and  O_21
REMARK    7  A    between atoms: O_21  and  C_24
REMARK                            x       y       z     vdW  Elec       q    Type
REMARK                         _______ _______ _______ _____ _____    ______ ____
ROOT
ATOM      1  C   UNL     1      32.320 -14.587 -25.140  0.00  0.00    -0.077 C 
ENDROOT
BRANCH   1   2
ATOM      2  N   UNL     1      32.927 -13.378 -24.586  0.00  0.00    +0.389 N 
ATOM      3  N   UNL     1      32.965 -10.708 -23.571  0.00  0.00    -0.312 N 
ATOM      4  C   UNL     1      32.721 -12.238 -25.487  0.00  0.00    -0.055 C 
ATOM      5  C   UNL     1      32.365 -13.078 -23.264  0.00  0.00    -0.055 C 
ATOM      6  C   UNL     1      33.402 -10.979 -24.946  0.00  0.00    +0.068 C 
ATOM      7  C   UNL     1      33.032 -11.846 -22.648  0.00  0.00    +0.068 C 
ATOM      8  H   UNL     1      33.929 -13.542 -24.487  0.00  0.00    -0.080 HD
BRANCH   3  10
ATOM      9  S   UNL     1      31.294  -7.120 -20.420  0.00  0.00    -0.086 S 
ATOM     10  C   UNL     1      33.110  -9.406 -23.079  0.00  0.00    +0.048 C 
ATOM     11  C   UNL     1      32.244  -8.868 -22.073  0.00  0.00    +0.020 C 
ATOM     12  C   UNL     1      34.141  -8.583 -23.584  0.00  0.00    +0.015 C 
ATOM     13  C   UNL     1      32.445  -7.557 -21.627  0.00  0.00    +0.031 C 
ATOM     14  C   UNL     1      31.134  -9.479 -21.400  0.00  0.00    +0.009 C 
ATOM     15  C   UNL     1      34.321  -7.285 -23.126  0.00  0.00    +0.002 C 
ATOM     16  C   UNL     1      33.481  -6.754 -22.145  0.00  0.00    +0.007 C 
ATOM     17  C   UNL     1      30.536  -8.645 -20.486  0.00  0.00    +0.035 C 
ENDBRANCH   3  10
ENDBRANCH   1   2
BRANCH   1  18
ATOM     18  C   UNL     1      32.688 -15.803 -24.290  0.00  0.00    -0.019 C 
BRANCH  18  19
ATOM     19  C   UNL     1      34.188 -15.845 -24.005  0.00  0.00    +0.045 C 
BRANCH  19  20
ATOM     20  C   UNL     1      34.488 -16.522 -22.674  0.00  0.00    +0.205 C 
BRANCH  20  21
ATOM     21  O   UNL     1      33.644 -17.653 -22.508  0.00  0.00    -0.475 OA
BRANCH  21  24
ATOM     22  O   UNL     1      31.707 -22.419 -17.594  0.00  0.00    -0.270 OA
ATOM     23  N   UNL     1      32.316 -20.873 -19.188  0.00  0.00    -0.280 N 
ATOM     24  C   UNL     1      33.974 -18.529 -21.506  0.00  0.00    +0.140 C 
ATOM     25  C   UNL     1      32.972 -19.247 -20.865  0.00  0.00    +0.052 C 
ATOM     26  C   UNL     1      33.318 -20.138 -19.846  0.00  0.00    +0.054 C 
ATOM     27  C   UNL     1      35.308 -18.687 -21.145  0.00  0.00    +0.037 C 
ATOM     28  C   UNL     1      34.655 -20.308 -19.471  0.00  0.00    +0.014 C 
ATOM     29  C   UNL     1      35.652 -19.579 -20.126  0.00  0.00    +0.004 C 
ATOM     30  C   UNL     1      34.975 -21.250 -18.401  0.00  0.00    +0.006 C 
ATOM     31  C   UNL     1      32.577 -21.773 -18.173  0.00  0.00    +0.250 C 
ATOM     32  C   UNL     1      34.005 -21.940 -17.788  0.00  0.00    +0.058 C 
ATOM     33  H   UNL     1      31.380 -20.740 -19.465  0.00  0.00    +0.155 HD
ENDBRANCH  21  24
ENDBRANCH  20  21
ENDBRANCH  19  20
ENDBRANCH  18  19
ENDBRANCH   1  18
TORSDOF 7
ENDMDL
MODEL 4
REMARK VINA RESULT:     -11.3      3.491      6.322
REMARK  Name = 11978813
REMARK  7 active torsions:
REMARK  status: ('A' for Active; 'I' for Inactive)
REMARK    1  A    between atoms: C_1  and  N_2
REMARK    2  A    between atoms: C_1  and  C_18
REMARK    3  A    between atoms: N_3  and  C_10
REMARK    4  A    between atoms: C_18  and  C_19
REMARK    5  A    between atoms: C_19  and  C_20
REMARK    6  A    between atoms: C_20  and  O_21
REMARK    7  A    between atoms: O_21  and  C_24
REMARK                            x       y       z     vdW  Elec       q    Type
REMARK                         _______ _______ _______ _____ _____    ______ ____
ROOT
ATOM      1  C   UNL     1      34.300 -16.355 -22.994  0.00  0.00    -0.077 C 
ENDROOT
BRANCH   1   2
ATOM      2  N   UNL     1      33.308 -15.390 -22.523  0.00  0.00    +0.389 N 
ATOM      3  N   UNL     1      32.320 -12.811 -21.790  0.00  0.00    -0.312 N 
ATOM      4  C   UNL     1      33.766 -14.743 -21.287  0.00  0.00    -0.055 C 
ATOM      5  C   UNL     1      33.047 -14.375 -23.550  0.00  0.00    -0.055 C 
ATOM      6  C   UNL     1      32.710 -13.773 -20.752  0.00  0.00    +0.068 C 
ATOM      7  C   UNL     1      31.969 -13.391 -23.091  0.00  0.00    +0.068 C 
ATOM      8  H   UNL     1      32.442 -15.893 -22.330  0.00  0.00    -0.080 HD
BRANCH   3  10
ATOM      9  S   UNL     1      31.829  -7.833 -22.543  0.00  0.00    -0.086 S 
ATOM     10  C   UNL     1      31.734 -11.607 -21.386  0.00  0.00    +0.048 C 
ATOM     11  C   UNL     1      31.995 -10.367 -22.054  0.00  0.00    +0.020 C 
ATOM     12  C   UNL     1      30.852 -11.600 -20.283  0.00  0.00    +0.015 C 
ATOM     13  C   UNL     1      31.374  -9.200 -21.596  0.00  0.00    +0.031 C 
ATOM     14  C   UNL     1      32.836 -10.097 -23.184  0.00  0.00    +0.009 C 
ATOM     15  C   UNL     1      30.248 -10.428 -19.846  0.00  0.00    +0.002 C 
ATOM     16  C   UNL     1      30.498  -9.216 -20.493  0.00  0.00    +0.007 C 
ATOM     17  C   UNL     1      32.836  -8.772 -23.547  0.00  0.00    +0.035 C 
ENDBRANCH   3  10
ENDBRANCH   1   2
BRANCH   1  18
ATOM     18  C   UNL     1      33.690 -17.268 -24.056  0.00  0.00    -0.019 C 
BRANCH  18  19
ATOM     19  C   UNL     1      33.674 -18.723 -23.590  0.00  0.00    +0.045 C 
BRANCH  19  20
ATOM     20  C   UNL     1      34.157 -18.858 -22.152  0.00  0.00    +0.205 C 
BRANCH  20  21
ATOM     21  O   UNL     1      33.060 -19.164 -21.302  0.00  0.00    -0.475 OA
BRANCH  21  24
ATOM     22  O   UNL     1      30.776 -23.118 -15.846  0.00  0.00    -0.270 OA
ATOM     23  N   UNL     1      31.498 -21.833 -17.615  0.00  0.00    -0.280 N 
ATOM     24  C   UNL     1      33.325 -19.948 -20.209  0.00  0.00    +0.140 C 
ATOM     25  C   UNL     1      32.272 -20.483 -19.478  0.00  0.00    +0.052 C 
ATOM     26  C   UNL     1      32.552 -21.283 -18.366  0.00  0.00    +0.054 C 
ATOM     27  C   UNL     1      34.645 -20.197 -19.847  0.00  0.00    +0.037 C 
ATOM     28  C   UNL     1      33.874 -21.542 -17.989  0.00  0.00    +0.014 C 
ATOM     29  C   UNL     1      34.923 -20.996 -18.735  0.00  0.00    +0.004 C 
ATOM     30  C   UNL     1      34.124 -22.383 -16.821  0.00  0.00    +0.006 C 
ATOM     31  C   UNL     1      31.692 -22.632 -16.506  0.00  0.00    +0.250 C 
ATOM     32  C   UNL     1      33.105 -22.897 -16.121  0.00  0.00    +0.058 C 
ATOM     33  H   UNL     1      30.573 -21.639 -17.895  0.00  0.00    +0.155 HD
ENDBRANCH  21  24
ENDBRANCH  20  21
ENDBRANCH  19  20
ENDBRANCH  18  19
ENDBRANCH   1  18
TORSDOF 7
ENDMDL
MODEL 5
REMARK VINA RESULT:     -11.1      2.254      3.902
REMARK  Name = 11978813
REMARK  7 active torsions:
REMARK  status: ('A' for Active; 'I' for Inactive)
REMARK    1  A    between atoms: C_1  and  N_2
REMARK    2  A    between atoms: C_1  and  C_18
REMARK    3  A    between atoms: N_3  and  C_10
REMARK    4  A    between atoms: C_18  and  C_19
REMARK    5  A    between atoms: C_19  and  C_20
REMARK    6  A    between atoms: C_20  and  O_21
REMARK    7  A    between atoms: O_21  and  C_24
REMARK                            x       y       z     vdW  Elec       q    Type
REMARK                         _______ _______ _______ _____ _____    ______ ____
ROOT
ATOM      1  C   UNL     1      34.636 -21.303 -18.421  0.00  0.00    -0.077 C 
ENDROOT
BRANCH   1   2
ATOM      2  N   UNL     1      34.624 -20.514 -19.651  0.00  0.00    +0.389 N 
ATOM      3  N   UNL     1      34.264 -18.169 -21.243  0.00  0.00    -0.312 N 
ATOM      4  C   UNL     1      33.276 -19.999 -19.920  0.00  0.00    -0.055 C 
ATOM      5  C   UNL     1      35.574 -19.399 -19.558  0.00  0.00    -0.055 C 
ATOM      6  C   UNL     1      33.238 -19.219 -21.237  0.00  0.00    +0.068 C 
ATOM      7  C   UNL     1      35.613 -18.598 -20.862  0.00  0.00    +0.068 C 
ATOM      8  H   UNL     1      34.904 -21.122 -20.421  0.00  0.00    -0.080 HD
BRANCH   3  10
ATOM      9  S   UNL     1      33.429 -13.215 -21.834  0.00  0.00    -0.086 S 
ATOM     10  C   UNL     1      34.100 -17.095 -22.125  0.00  0.00    +0.048 C 
ATOM     11  C   UNL     1      33.861 -15.759 -21.667  0.00  0.00    +0.020 C 
ATOM     12  C   UNL     1      34.171 -17.322 -23.517  0.00  0.00    +0.015 C 
ATOM     13  C   UNL     1      33.706 -14.732 -22.604  0.00  0.00    +0.031 C 
ATOM     14  C   UNL     1      33.745 -15.259 -20.327  0.00  0.00    +0.009 C 
ATOM     15  C   UNL     1      34.014 -16.286 -24.428  0.00  0.00    +0.002 C 
ATOM     16  C   UNL     1      33.781 -14.981 -23.989  0.00  0.00    +0.007 C 
ATOM     17  C   UNL     1      33.512 -13.906 -20.278  0.00  0.00    +0.035 C 
ENDBRANCH   3  10
ENDBRANCH   1   2
BRANCH   1  18
ATOM     18  C   UNL     1      33.622 -22.443 -18.510  0.00  0.00    -0.019 C 
BRANCH  18  19
ATOM     19  C   UNL     1      32.325 -22.087 -17.785  0.00  0.00    +0.045 C 
BRANCH  19  20
ATOM     20  C   UNL     1      32.301 -22.649 -16.370  0.00  0.00    +0.205 C 
BRANCH  20  21
ATOM     21  O   UNL     1      33.383 -23.554 -16.192  0.00  0.00    -0.475 OA
BRANCH  21  24
ATOM     22  O   UNL     1      34.472 -24.856  -9.283  0.00  0.00    -0.270 OA
ATOM     23  N   UNL     1      34.104 -24.443 -11.518  0.00  0.00    -0.280 N 
ATOM     24  C   UNL     1      34.138 -23.401 -15.058  0.00  0.00    +0.140 C 
ATOM     25  C   UNL     1      33.728 -24.001 -13.875  0.00  0.00    +0.052 C 
ATOM     26  C   UNL     1      34.504 -23.840 -12.724  0.00  0.00    +0.054 C 
ATOM     27  C   UNL     1      35.305 -22.645 -15.108  0.00  0.00    +0.037 C 
ATOM     28  C   UNL     1      35.680 -23.083 -12.757  0.00  0.00    +0.014 C 
ATOM     29  C   UNL     1      36.080 -22.485 -13.956  0.00  0.00    +0.004 C 
ATOM     30  C   UNL     1      36.464 -22.940 -11.533  0.00  0.00    +0.006 C 
ATOM     31  C   UNL     1      34.816 -24.331 -10.340  0.00  0.00    +0.250 C 
ATOM     32  C   UNL     1      36.064 -23.522 -10.396  0.00  0.00    +0.058 C 
ATOM     33  H   UNL     1      33.272 -24.971 -11.513  0.00  0.00    +0.155 HD
ENDBRANCH  21  24
ENDBRANCH  20  21
ENDBRANCH  19  20
ENDBRANCH  18  19
ENDBRANCH   1  18
TORSDOF 7
ENDMDL
MODEL 6
REMARK VINA RESULT:     -10.9      3.635      6.487
REMARK  Name = 11978813
REMARK  7 active torsions:
REMARK  status: ('A' for Active; 'I' for Inactive)
REMARK    1  A    between atoms: C_1  and  N_2
REMARK    2  A    between atoms: C_1  and  C_18
REMARK    3  A    between atoms: N_3  and  C_10
REMARK    4  A    between atoms: C_18  and  C_19
REMARK    5  A    between atoms: C_19  and  C_20
REMARK    6  A    between atoms: C_20  and  O_21
REMARK    7  A    between atoms: O_21  and  C_24
REMARK                            x       y       z     vdW  Elec       q    Type
REMARK                         _______ _______ _______ _____ _____    ______ ____
ROOT
ATOM      1  C   UNL     1      33.374 -16.621 -23.871  0.00  0.00    -0.077 C 
ENDROOT
BRANCH   1   2
ATOM      2  N   UNL     1      32.968 -15.242 -23.604  0.00  0.00    +0.389 N 
ATOM      3  N   UNL     1      33.227 -12.397 -23.617  0.00  0.00    -0.312 N 
ATOM      4  C   UNL     1      33.936 -14.581 -22.721  0.00  0.00    -0.055 C 
ATOM      5  C   UNL     1      32.841 -14.490 -24.858  0.00  0.00    -0.055 C 
ATOM      6  C   UNL     1      33.492 -13.155 -22.387  0.00  0.00    +0.068 C 
ATOM      7  C   UNL     1      32.361 -13.061 -24.597  0.00  0.00    +0.068 C 
ATOM      8  H   UNL     1      32.059 -15.263 -23.139  0.00  0.00    -0.080 HD
BRANCH   3  10
ATOM      9  S   UNL     1      31.424  -8.193 -21.458  0.00  0.00    -0.086 S 
ATOM     10  C   UNL     1      33.253 -11.000 -23.547  0.00  0.00    +0.048 C 
ATOM     11  C   UNL     1      32.425 -10.264 -22.638  0.00  0.00    +0.020 C 
ATOM     12  C   UNL     1      34.120 -10.278 -24.396  0.00  0.00    +0.015 C 
ATOM     13  C   UNL     1      32.502  -8.868 -22.622  0.00  0.00    +0.031 C 
ATOM     14  C   UNL     1      31.470 -10.742 -21.681  0.00  0.00    +0.009 C 
ATOM     15  C   UNL     1      34.179  -8.891 -24.361  0.00  0.00    +0.002 C 
ATOM     16  C   UNL     1      33.375  -8.168 -23.478  0.00  0.00    +0.007 C 
ATOM     17  C   UNL     1      30.861  -9.729 -20.980  0.00  0.00    +0.035 C 
ENDBRANCH   3  10
ENDBRANCH   1   2
BRANCH   1  18
ATOM     18  C   UNL     1      34.220 -17.159 -22.717  0.00  0.00    -0.019 C 
BRANCH  18  19
ATOM     19  C   UNL     1      33.684 -18.499 -22.217  0.00  0.00    +0.045 C 
BRANCH  19  20
ATOM     20  C   UNL     1      34.045 -18.740 -20.757  0.00  0.00    +0.205 C 
BRANCH  20  21
ATOM     21  O   UNL     1      34.619 -20.032 -20.609  0.00  0.00    -0.475 OA
BRANCH  21  24
ATOM     22  O   UNL     1      36.875 -22.648 -14.390  0.00  0.00    -0.270 OA
ATOM     23  N   UNL     1      36.162 -21.797 -16.407  0.00  0.00    -0.280 N 
ATOM     24  C   UNL     1      34.364 -20.690 -19.434  0.00  0.00    +0.140 C 
ATOM     25  C   UNL     1      35.397 -20.903 -18.530  0.00  0.00    +0.052 C 
ATOM     26  C   UNL     1      35.128 -21.574 -17.334  0.00  0.00    +0.054 C 
ATOM     27  C   UNL     1      33.075 -21.137 -19.163  0.00  0.00    +0.037 C 
ATOM     28  C   UNL     1      33.837 -22.030 -17.047  0.00  0.00    +0.014 C 
ATOM     29  C   UNL     1      32.808 -21.808 -17.967  0.00  0.00    +0.004 C 
ATOM     30  C   UNL     1      33.597 -22.727 -15.785  0.00  0.00    +0.006 C 
ATOM     31  C   UNL     1      35.976 -22.451 -15.205  0.00  0.00    +0.250 C 
ATOM     32  C   UNL     1      34.596 -22.928 -14.917  0.00  0.00    +0.058 C 
ATOM     33  H   UNL     1      37.065 -21.470 -16.626  0.00  0.00    +0.155 HD
ENDBRANCH  21  24
ENDBRANCH  20  21
ENDBRANCH  19  20
ENDBRANCH  18  19
ENDBRANCH   1  18
TORSDOF 7
ENDMDL
MODEL 7
REMARK VINA RESULT:     -10.9      2.407      4.511
REMARK  Name = 11978813
REMARK  7 active torsions:
REMARK  status: ('A' for Active; 'I' for Inactive)
REMARK    1  A    between atoms: C_1  and  N_2
REMARK    2  A    between atoms: C_1  and  C_18
REMARK    3  A    between atoms: N_3  and  C_10
REMARK    4  A    between atoms: C_18  and  C_19
REMARK    5  A    between atoms: C_19  and  C_20
REMARK    6  A    between atoms: C_20  and  O_21
REMARK    7  A    between atoms: O_21  and  C_24
REMARK                            x       y       z     vdW  Elec       q    Type
REMARK                         _______ _______ _______ _____ _____    ______ ____
ROOT
ATOM      1  C   UNL     1      34.495 -21.491 -18.376  0.00  0.00    -0.077 C 
ENDROOT
BRANCH   1   2
ATOM      2  N   UNL     1      34.483 -20.695 -19.602  0.00  0.00    +0.389 N 
ATOM      3  N   UNL     1      34.190 -18.325 -21.170  0.00  0.00    -0.312 N 
ATOM      4  C   UNL     1      33.155 -20.111 -19.824  0.00  0.00    -0.055 C 
ATOM      5  C   UNL     1      35.491 -19.631 -19.535  0.00  0.00    -0.055 C 
ATOM      6  C   UNL     1      33.113 -19.322 -21.135  0.00  0.00    +0.068 C 
ATOM      7  C   UNL     1      35.528 -18.824 -20.836  0.00  0.00    +0.068 C 
ATOM      8  H   UNL     1      34.706 -21.312 -20.383  0.00  0.00    -0.080 HD
BRANCH   3  10
ATOM      9  S   UNL     1      33.472 -13.347 -21.711  0.00  0.00    -0.086 S 
ATOM     10  C   UNL     1      34.053 -17.239 -22.041  0.00  0.00    +0.048 C 
ATOM     11  C   UNL     1      33.844 -15.902 -21.570  0.00  0.00    +0.020 C 
ATOM     12  C   UNL     1      34.120 -17.453 -23.435  0.00  0.00    +0.015 C 
ATOM     13  C   UNL     1      33.715 -14.862 -22.497  0.00  0.00    +0.031 C 
ATOM     14  C   UNL     1      33.738 -15.413 -20.225  0.00  0.00    +0.009 C 
ATOM     15  C   UNL     1      33.988 -16.405 -24.336  0.00  0.00    +0.002 C 
ATOM     16  C   UNL     1      33.785 -15.099 -23.884  0.00  0.00    +0.007 C 
ATOM     17  C   UNL     1      33.537 -14.056 -20.163  0.00  0.00    +0.035 C 
ENDBRANCH   3  10
ENDBRANCH   1   2
BRANCH   1  18
ATOM     18  C   UNL     1      33.070 -21.702 -17.864  0.00  0.00    -0.019 C 
BRANCH  18  19
ATOM     19  C   UNL     1      32.880 -23.119 -17.327  0.00  0.00    +0.045 C 
BRANCH  19  20
ATOM     20  C   UNL     1      32.415 -23.111 -15.876  0.00  0.00    +0.205 C 
BRANCH  20  21
ATOM     21  O   UNL     1      33.332 -22.373 -15.080  0.00  0.00    -0.475 OA
BRANCH  21  24
ATOM     22  O   UNL     1      39.864 -25.095 -14.338  0.00  0.00    -0.270 OA
ATOM     23  N   UNL     1      37.754 -24.208 -14.595  0.00  0.00    -0.280 N 
ATOM     24  C   UNL     1      34.244 -23.096 -14.355  0.00  0.00    +0.140 C 
ATOM     25  C   UNL     1      35.528 -23.278 -14.853  0.00  0.00    +0.052 C 
ATOM     26  C   UNL     1      36.450 -24.016 -14.106  0.00  0.00    +0.054 C 
ATOM     27  C   UNL     1      33.870 -23.639 -13.130  0.00  0.00    +0.037 C 
ATOM     28  C   UNL     1      36.089 -24.568 -12.872  0.00  0.00    +0.014 C 
ATOM     29  C   UNL     1      34.793 -24.376 -12.384  0.00  0.00    +0.004 C 
ATOM     30  C   UNL     1      37.083 -25.332 -12.122  0.00  0.00    +0.006 C 
ATOM     31  C   UNL     1      38.721 -24.924 -13.917  0.00  0.00    +0.250 C 
ATOM     32  C   UNL     1      38.319 -25.503 -12.607  0.00  0.00    +0.058 C 
ATOM     33  H   UNL     1      37.990 -23.813 -15.466  0.00  0.00    +0.155 HD
ENDBRANCH  21  24
ENDBRANCH  20  21
ENDBRANCH  19  20
ENDBRANCH  18  19
ENDBRANCH   1  18
TORSDOF 7
ENDMDL
MODEL 8
REMARK VINA RESULT:     -10.8      1.977      3.310
REMARK  Name = 11978813
REMARK  7 active torsions:
REMARK  status: ('A' for Active; 'I' for Inactive)
REMARK    1  A    between atoms: C_1  and  N_2
REMARK    2  A    between atoms: C_1  and  C_18
REMARK    3  A    between atoms: N_3  and  C_10
REMARK    4  A    between atoms: C_18  and  C_19
REMARK    5  A    between atoms: C_19  and  C_20
REMARK    6  A    between atoms: C_20  and  O_21
REMARK    7  A    between atoms: O_21  and  C_24
REMARK                            x       y       z     vdW  Elec       q    Type
REMARK                         _______ _______ _______ _____ _____    ______ ____
ROOT
ATOM      1  C   UNL     1      34.496 -19.093 -21.719  0.00  0.00    -0.077 C 
ENDROOT
BRANCH   1   2
ATOM      2  N   UNL     1      34.558 -17.650 -21.947  0.00  0.00    +0.389 N 
ATOM      3  N   UNL     1      33.514 -15.004 -22.212  0.00  0.00    -0.312 N 
ATOM      4  C   UNL     1      33.764 -17.280 -23.125  0.00  0.00    -0.055 C 
ATOM      5  C   UNL     1      34.074 -16.921 -20.769  0.00  0.00    -0.055 C 
ATOM      6  C   UNL     1      33.867 -15.779 -23.408  0.00  0.00    +0.068 C 
ATOM      7  C   UNL     1      34.186 -15.408 -20.973  0.00  0.00    +0.068 C 
ATOM      8  H   UNL     1      35.532 -17.396 -22.114  0.00  0.00    -0.080 HD
BRANCH   3  10
ATOM      9  S   UNL     1      30.896 -11.061 -20.427  0.00  0.00    -0.086 S 
ATOM     10  C   UNL     1      33.117 -13.673 -22.384  0.00  0.00    +0.048 C 
ATOM     11  C   UNL     1      32.271 -12.999 -21.445  0.00  0.00    +0.020 C 
ATOM     12  C   UNL     1      33.558 -12.958 -23.519  0.00  0.00    +0.015 C 
ATOM     13  C   UNL     1      31.913 -11.668 -21.680  0.00  0.00    +0.031 C 
ATOM     14  C   UNL     1      31.690 -13.485 -20.226  0.00  0.00    +0.009 C 
ATOM     15  C   UNL     1      33.189 -11.637 -23.731  0.00  0.00    +0.002 C 
ATOM     16  C   UNL     1      32.365 -10.974 -22.819  0.00  0.00    +0.007 C 
ATOM     17  C   UNL     1      30.928 -12.541 -19.583  0.00  0.00    +0.035 C 
ENDBRANCH   3  10
ENDBRANCH   1   2
BRANCH   1  18
ATOM     18  C   UNL     1      33.620 -19.402 -20.506  0.00  0.00    -0.019 C 
BRANCH  18  19
ATOM     19  C   UNL     1      34.280 -20.438 -19.597  0.00  0.00    +0.045 C 
BRANCH  19  20
ATOM     20  C   UNL     1      33.248 -21.332 -18.922  0.00  0.00    +0.205 C 
BRANCH  20  21
ATOM     21  O   UNL     1      33.878 -22.125 -17.925  0.00  0.00    -0.475 OA
BRANCH  21  24
ATOM     22  O   UNL     1      27.556 -22.931 -14.763  0.00  0.00    -0.270 OA
ATOM     23  N   UNL     1      29.593 -22.664 -15.801  0.00  0.00    -0.280 N 
ATOM     24  C   UNL     1      33.134 -22.425 -16.813  0.00  0.00    +0.140 C 
ATOM     25  C   UNL     1      31.747 -22.388 -16.884  0.00  0.00    +0.052 C 
ATOM     26  C   UNL     1      30.998 -22.696 -15.745  0.00  0.00    +0.054 C 
ATOM     27  C   UNL     1      33.779 -22.761 -15.627  0.00  0.00    +0.037 C 
ATOM     28  C   UNL     1      31.632 -23.036 -14.545  0.00  0.00    +0.014 C 
ATOM     29  C   UNL     1      33.028 -23.068 -14.489  0.00  0.00    +0.004 C 
ATOM     30  C   UNL     1      30.812 -23.351 -13.378  0.00  0.00    +0.006 C 
ATOM     31  C   UNL     1      28.784 -22.956 -14.721  0.00  0.00    +0.250 C 
ATOM     32  C   UNL     1      29.476 -23.315 -13.453  0.00  0.00    +0.058 C 
ATOM     33  H   UNL     1      29.164 -22.422 -16.654  0.00  0.00    +0.155 HD
ENDBRANCH  21  24
ENDBRANCH  20  21
ENDBRANCH  19  20
ENDBRANCH  18  19
ENDBRANCH   1  18
TORSDOF 7
ENDMDL
MODEL 9
REMARK VINA RESULT:     -10.7      3.187      5.966
REMARK  Name = 11978813
REMARK  7 active torsions:
REMARK  status: ('A' for Active; 'I' for Inactive)
REMARK    1  A    between atoms: C_1  and  N_2
REMARK    2  A    between atoms: C_1  and  C_18
REMARK    3  A    between atoms: N_3  and  C_10
REMARK    4  A    between atoms: C_18  and  C_19
REMARK    5  A    between atoms: C_19  and  C_20
REMARK    6  A    between atoms: C_20  and  O_21
REMARK    7  A    between atoms: O_21  and  C_24
REMARK                            x       y       z     vdW  Elec       q    Type
REMARK                         _______ _______ _______ _____ _____    ______ ____
ROOT
ATOM      1  C   UNL     1      34.188 -17.025 -23.435  0.00  0.00    -0.077 C 
ENDROOT
BRANCH   1   2
ATOM      2  N   UNL     1      33.957 -15.599 -23.213  0.00  0.00    +0.389 N 
ATOM      3  N   UNL     1      32.570 -13.303 -22.229  0.00  0.00    -0.312 N 
ATOM      4  C   UNL     1      32.687 -15.182 -23.820  0.00  0.00    -0.055 C 
ATOM      5  C   UNL     1      33.947 -15.296 -21.777  0.00  0.00    -0.055 C 
ATOM      6  C   UNL     1      32.462 -13.678 -23.644  0.00  0.00    +0.068 C 
ATOM      7  C   UNL     1      33.762 -13.796 -21.532  0.00  0.00    +0.068 C 
ATOM      8  H   UNL     1      34.718 -15.082 -23.653  0.00  0.00    -0.080 HD
BRANCH   3  10
ATOM      9  S   UNL     1      32.209  -8.289 -22.788  0.00  0.00    -0.086 S 
ATOM     10  C   UNL     1      31.970 -12.108 -21.817  0.00  0.00    +0.048 C 
ATOM     11  C   UNL     1      32.300 -10.844 -22.405  0.00  0.00    +0.020 C 
ATOM     12  C   UNL     1      31.004 -12.135 -20.788  0.00  0.00    +0.015 C 
ATOM     13  C   UNL     1      31.661  -9.688 -21.944  0.00  0.00    +0.031 C 
ATOM     14  C   UNL     1      33.233 -10.539 -23.451  0.00  0.00    +0.009 C 
ATOM     15  C   UNL     1      30.383 -10.974 -20.347  0.00  0.00    +0.002 C 
ATOM     16  C   UNL     1      30.700  -9.738 -20.915  0.00  0.00    +0.007 C 
ATOM     17  C   UNL     1      33.280  -9.199 -23.752  0.00  0.00    +0.035 C 
ENDBRANCH   3  10
ENDBRANCH   1   2
BRANCH   1  18
ATOM     18  C   UNL     1      34.684 -17.690 -22.151  0.00  0.00    -0.019 C 
BRANCH  18  19
ATOM     19  C   UNL     1      33.779 -18.852 -21.746  0.00  0.00    +0.045 C 
BRANCH  19  20
ATOM     20  C   UNL     1      33.965 -19.224 -20.281  0.00  0.00    +0.205 C 
BRANCH  20  21
ATOM     21  O   UNL     1      34.282 -20.605 -20.171  0.00  0.00    -0.475 OA
BRANCH  21  24
ATOM     22  O   UNL     1      36.740 -22.751 -13.848  0.00  0.00    -0.270 OA
ATOM     23  N   UNL     1      35.962 -22.052 -15.900  0.00  0.00    -0.280 N 
ATOM     24  C   UNL     1      34.071 -21.193 -18.950  0.00  0.00    +0.140 C 
ATOM     25  C   UNL     1      35.128 -21.319 -18.057  0.00  0.00    +0.052 C 
ATOM     26  C   UNL     1      34.903 -21.918 -16.815  0.00  0.00    +0.054 C 
ATOM     27  C   UNL     1      32.801 -21.655 -18.622  0.00  0.00    +0.037 C 
ATOM     28  C   UNL     1      33.631 -22.388 -16.470  0.00  0.00    +0.014 C 
ATOM     29  C   UNL     1      32.578 -22.254 -17.380  0.00  0.00    +0.004 C 
ATOM     30  C   UNL     1      33.438 -23.008 -15.162  0.00  0.00    +0.006 C 
ATOM     31  C   UNL     1      35.819 -22.631 -14.654  0.00  0.00    +0.250 C 
ATOM     32  C   UNL     1      34.460 -23.126 -14.305  0.00  0.00    +0.058 C 
ATOM     33  H   UNL     1      36.851 -21.716 -16.160  0.00  0.00    +0.155 HD
ENDBRANCH  21  24
ENDBRANCH  20  21
ENDBRANCH  19  20
ENDBRANCH  18  19
ENDBRANCH   1  18
TORSDOF 7
ENDMDL
