MODEL 1
REMARK VINA RESULT:     -12.6      0.000      0.000
REMARK  Name = 76958312
REMARK  3 active torsions:
REMARK  status: ('A' for Active; 'I' for Inactive)
REMARK    1  A    between atoms: C_16  and  C_21
REMARK    2  A    between atoms: C_26  and  N_28
REMARK    3  A    between atoms: N_29  and  C_34
REMARK                            x       y       z     vdW  Elec       q    Type
REMARK                         _______ _______ _______ _____ _____    ______ ____
ROOT
ATOM      1  O   UNL     1      30.461 -22.556 -12.223  0.00  0.00    -0.350 OA
ATOM      2  O   UNL     1      38.422 -24.660 -12.603  0.00  0.00    -0.350 OA
ATOM      3  N   UNL     1      31.460 -24.063 -14.401  0.00  0.00    -0.231 N 
ATOM      4  N   UNL     1      33.755 -24.104 -14.191  0.00  0.00    -0.246 NA
ATOM      5  N   UNL     1      32.684 -22.909 -15.976  0.00  0.00    -0.260 NA
ATOM      6  N   UNL     1      36.085 -24.090 -14.056  0.00  0.00    -0.228 N 
ATOM      7  N   UNL     1      35.077 -22.918 -15.803  0.00  0.00    -0.260 NA
ATOM      8  C   UNL     1      31.296 -24.698 -13.092  0.00  0.00    +0.114 C 
ATOM      9  C   UNL     1      30.261 -23.241 -14.574  0.00  0.00    +0.114 C 
ATOM     10  C   UNL     1      29.835 -25.178 -13.162  0.00  0.00    +0.025 C 
ATOM     11  C   UNL     1      29.152 -24.216 -14.141  0.00  0.00    +0.025 C 
ATOM     12  C   UNL     1      30.389 -22.075 -13.575  0.00  0.00    +0.163 C 
ATOM     13  C   UNL     1      31.456 -23.579 -12.047  0.00  0.00    +0.163 C 
ATOM     14  C   UNL     1      32.680 -23.678 -14.875  0.00  0.00    +0.224 C 
ATOM     15  C   UNL     1      34.919 -23.685 -14.713  0.00  0.00    +0.224 C 
ATOM     16  C   UNL     1      33.917 -22.568 -16.382  0.00  0.00    +0.163 C 
ATOM     17  C   UNL     1      37.395 -23.673 -14.566  0.00  0.00    +0.135 C 
ATOM     18  C   UNL     1      36.021 -24.316 -12.605  0.00  0.00    +0.135 C 
ATOM     19  C   UNL     1      37.177 -25.210 -12.172  0.00  0.00    +0.164 C 
ATOM     20  C   UNL     1      38.478 -24.601 -14.028  0.00  0.00    +0.164 C 
ENDROOT
BRANCH  16  21
ATOM     21  C   UNL     1      34.006 -21.742 -17.558  0.00  0.00    +0.087 C 
ATOM     22  C   UNL     1      35.249 -21.291 -18.001  0.00  0.00    +0.013 C 
ATOM     23  C   UNL     1      32.848 -21.394 -18.254  0.00  0.00    +0.013 C 
ATOM     24  C   UNL     1      35.334 -20.491 -19.141  0.00  0.00    +0.015 C 
ATOM     25  C   UNL     1      32.934 -20.594 -19.393  0.00  0.00    +0.015 C 
ATOM     26  C   UNL     1      34.177 -20.143 -19.837  0.00  0.00    +0.052 C 
BRANCH  26  28
ATOM     27  O   UNL     1      33.308 -17.320 -20.280  0.00  0.00    -0.252 OA
ATOM     28  N   UNL     1      34.262 -19.343 -20.977  0.00  0.00    -0.268 N 
ATOM     29  N   UNL     1      34.113 -17.579 -22.461  0.00  0.00    -0.268 N 
ATOM     30  C   UNL     1      33.838 -18.003 -21.151  0.00  0.00    +0.308 C 
ATOM     31  H   UNL     1      34.671 -19.767 -21.766  0.00  0.00    +0.156 HD
ATOM     32  H   UNL     1      34.543 -18.242 -23.048  0.00  0.00    +0.156 HD
BRANCH  29  34
ATOM     33  N   UNL     1      33.327 -13.820 -24.184  0.00  0.00    -0.242 NA
ATOM     34  C   UNL     1      33.849 -16.316 -23.041  0.00  0.00    +0.055 C 
ATOM     35  C   UNL     1      34.094 -15.152 -22.320  0.00  0.00    +0.035 C 
ATOM     36  C   UNL     1      33.343 -16.233 -24.333  0.00  0.00    +0.035 C 
ATOM     37  C   UNL     1      33.818 -13.941 -22.930  0.00  0.00    +0.100 C 
ATOM     38  C   UNL     1      33.101 -14.971 -24.854  0.00  0.00    +0.100 C 
ENDBRANCH  29  34
ENDBRANCH  26  28
ENDBRANCH  16  21
TORSDOF 3
ENDMDL
MODEL 2
REMARK VINA RESULT:     -11.9      1.162      4.609
REMARK  Name = 76958312
REMARK  3 active torsions:
REMARK  status: ('A' for Active; 'I' for Inactive)
REMARK    1  A    between atoms: C_16  and  C_21
REMARK    2  A    between atoms: C_26  and  N_28
REMARK    3  A    between atoms: N_29  and  C_34
REMARK                            x       y       z     vdW  Elec       q    Type
REMARK                         _______ _______ _______ _____ _____    ______ ____
ROOT
ATOM      1  O   UNL     1      36.919 -26.870 -13.694  0.00  0.00    -0.350 OA
ATOM      2  O   UNL     1      29.031 -24.593 -12.946  0.00  0.00    -0.350 OA
ATOM      3  N   UNL     1      36.224 -24.154 -13.306  0.00  0.00    -0.231 N 
ATOM      4  N   UNL     1      33.930 -24.017 -13.479  0.00  0.00    -0.246 NA
ATOM      5  N   UNL     1      35.369 -23.038 -15.132  0.00  0.00    -0.260 NA
ATOM      6  N   UNL     1      31.618 -23.830 -13.738  0.00  0.00    -0.228 N 
ATOM      7  N   UNL     1      32.987 -22.868 -15.363  0.00  0.00    -0.260 NA
ATOM      8  C   UNL     1      36.117 -25.097 -12.192  0.00  0.00    +0.114 C 
ATOM      9  C   UNL     1      37.484 -24.495 -13.969  0.00  0.00    +0.114 C 
ATOM     10  C   UNL     1      37.534 -25.035 -11.596  0.00  0.00    +0.025 C 
ATOM     11  C   UNL     1      38.437 -24.637 -12.769  0.00  0.00    +0.025 C 
ATOM     12  C   UNL     1      37.256 -25.856 -14.654  0.00  0.00    +0.163 C 
ATOM     13  C   UNL     1      35.846 -26.477 -12.820  0.00  0.00    +0.163 C 
ATOM     14  C   UNL     1      35.132 -23.719 -13.999  0.00  0.00    +0.224 C 
ATOM     15  C   UNL     1      32.904 -23.560 -14.215  0.00  0.00    +0.224 C 
ATOM     16  C   UNL     1      34.250 -22.645 -15.761  0.00  0.00    +0.163 C 
ATOM     17  C   UNL     1      30.446 -23.363 -14.486  0.00  0.00    +0.135 C 
ATOM     18  C   UNL     1      31.412 -25.056 -12.954  0.00  0.00    +0.135 C 
ATOM     19  C   UNL     1      30.145 -24.925 -12.117  0.00  0.00    +0.164 C 
ATOM     20  C   UNL     1      29.229 -23.324 -13.568  0.00  0.00    +0.164 C 
ENDROOT
BRANCH  16  21
ATOM     21  C   UNL     1      34.421 -21.909 -16.986  0.00  0.00    +0.087 C 
ATOM     22  C   UNL     1      35.638 -21.286 -17.262  0.00  0.00    +0.013 C 
ATOM     23  C   UNL     1      33.368 -21.818 -17.896  0.00  0.00    +0.013 C 
ATOM     24  C   UNL     1      35.802 -20.573 -18.450  0.00  0.00    +0.015 C 
ATOM     25  C   UNL     1      33.533 -21.104 -19.084  0.00  0.00    +0.015 C 
ATOM     26  C   UNL     1      34.750 -20.482 -19.360  0.00  0.00    +0.052 C 
BRANCH  26  28
ATOM     27  O   UNL     1      33.112 -18.273 -20.524  0.00  0.00    -0.252 OA
ATOM     28  N   UNL     1      34.914 -19.769 -20.548  0.00  0.00    -0.268 N 
ATOM     29  N   UNL     1      34.639 -18.284 -22.296  0.00  0.00    -0.268 N 
ATOM     30  C   UNL     1      34.115 -18.723 -21.069  0.00  0.00    +0.308 C 
ATOM     31  H   UNL     1      35.690 -20.027 -21.097  0.00  0.00    +0.156 HD
ATOM     32  H   UNL     1      35.451 -18.743 -22.607  0.00  0.00    +0.156 HD
BRANCH  29  34
ATOM     33  N   UNL     1      33.160 -15.243 -24.804  0.00  0.00    -0.242 NA
ATOM     34  C   UNL     1      34.141 -17.262 -23.139  0.00  0.00    +0.055 C 
ATOM     35  C   UNL     1      34.687 -15.984 -23.082  0.00  0.00    +0.035 C 
ATOM     36  C   UNL     1      33.106 -17.532 -24.027  0.00  0.00    +0.035 C 
ATOM     37  C   UNL     1      34.166 -15.019 -23.927  0.00  0.00    +0.100 C 
ATOM     38  C   UNL     1      32.656 -16.496 -24.831  0.00  0.00    +0.100 C 
ENDBRANCH  29  34
ENDBRANCH  26  28
ENDBRANCH  16  21
TORSDOF 3
ENDMDL
MODEL 3
REMARK VINA RESULT:     -10.2      6.754     15.953
REMARK  Name = 76958312
REMARK  3 active torsions:
REMARK  status: ('A' for Active; 'I' for Inactive)
REMARK    1  A    between atoms: C_16  and  C_21
REMARK    2  A    between atoms: C_26  and  N_28
REMARK    3  A    between atoms: N_29  and  C_34
REMARK                            x       y       z     vdW  Elec       q    Type
REMARK                         _______ _______ _______ _____ _____    ______ ____
ROOT
ATOM      1  O   UNL     1      33.777  -4.941 -25.840  0.00  0.00    -0.350 OA
ATOM      2  O   UNL     1      30.882  -5.242 -18.128  0.00  0.00    -0.350 OA
ATOM      3  N   UNL     1      31.544  -6.555 -25.192  0.00  0.00    -0.231 N 
ATOM      4  N   UNL     1      31.345  -6.533 -22.896  0.00  0.00    -0.246 NA
ATOM      5  N   UNL     1      31.984  -8.522 -24.077  0.00  0.00    -0.260 NA
ATOM      6  N   UNL     1      31.170  -6.604 -20.569  0.00  0.00    -0.228 N 
ATOM      7  N   UNL     1      31.794  -8.556 -21.685  0.00  0.00    -0.260 NA
ATOM      8  C   UNL     1      31.396  -5.100 -25.251  0.00  0.00    +0.114 C 
ATOM      9  C   UNL     1      32.377  -6.896 -26.345  0.00  0.00    +0.114 C 
ATOM     10  C   UNL     1      31.068  -4.882 -26.739  0.00  0.00    +0.025 C 
ATOM     11  C   UNL     1      31.716  -6.069 -27.461  0.00  0.00    +0.025 C 
ATOM     12  C   UNL     1      33.789  -6.365 -26.030  0.00  0.00    +0.163 C 
ATOM     13  C   UNL     1      32.776  -4.512 -24.902  0.00  0.00    +0.163 C 
ATOM     14  C   UNL     1      31.627  -7.230 -24.009  0.00  0.00    +0.224 C 
ATOM     15  C   UNL     1      31.450  -7.260 -21.772  0.00  0.00    +0.224 C 
ATOM     16  C   UNL     1      32.048  -9.120 -22.877  0.00  0.00    +0.163 C 
ATOM     17  C   UNL     1      31.263  -7.332 -19.299  0.00  0.00    +0.135 C 
ATOM     18  C   UNL     1      31.444  -5.162 -20.486  0.00  0.00    +0.135 C 
ATOM     19  C   UNL     1      30.632  -4.549 -19.351  0.00  0.00    +0.164 C 
ATOM     20  C   UNL     1      30.461  -6.602 -18.227  0.00  0.00    +0.164 C 
ENDROOT
BRANCH  16  21
ATOM     21  C   UNL     1      32.425 -10.510 -22.865  0.00  0.00    +0.087 C 
ATOM     22  C   UNL     1      33.212 -11.028 -23.893  0.00  0.00    +0.013 C 
ATOM     23  C   UNL     1      32.003 -11.337 -21.824  0.00  0.00    +0.013 C 
ATOM     24  C   UNL     1      33.577 -12.374 -23.881  0.00  0.00    +0.015 C 
ATOM     25  C   UNL     1      32.368 -12.684 -21.813  0.00  0.00    +0.015 C 
ATOM     26  C   UNL     1      33.155 -13.202 -22.841  0.00  0.00    +0.052 C 
BRANCH  26  28
ATOM     27  O   UNL     1      33.816 -14.999 -20.550  0.00  0.00    -0.252 OA
ATOM     28  N   UNL     1      33.520 -14.548 -22.829  0.00  0.00    -0.268 N 
ATOM     29  N   UNL     1      34.145 -16.668 -22.155  0.00  0.00    -0.268 N 
ATOM     30  C   UNL     1      33.827 -15.372 -21.719  0.00  0.00    +0.308 C 
ATOM     31  H   UNL     1      33.572 -14.985 -23.711  0.00  0.00    +0.156 HD
ATOM     32  H   UNL     1      34.111 -16.816 -23.128  0.00  0.00    +0.156 HD
BRANCH  29  34
ATOM     33  N   UNL     1      35.222 -19.997 -19.815  0.00  0.00    -0.242 NA
ATOM     34  C   UNL     1      34.508 -17.787 -21.369  0.00  0.00    +0.055 C 
ATOM     35  C   UNL     1      33.559 -18.752 -21.049  0.00  0.00    +0.035 C 
ATOM     36  C   UNL     1      35.814 -17.925 -20.912  0.00  0.00    +0.035 C 
ATOM     37  C   UNL     1      33.963 -19.828 -20.276  0.00  0.00    +0.100 C 
ATOM     38  C   UNL     1      36.117 -19.040 -20.146  0.00  0.00    +0.100 C 
ENDBRANCH  29  34
ENDBRANCH  26  28
ENDBRANCH  16  21
TORSDOF 3
ENDMDL
MODEL 4
REMARK VINA RESULT:     -10.2      8.104     17.734
REMARK  Name = 76958312
REMARK  3 active torsions:
REMARK  status: ('A' for Active; 'I' for Inactive)
REMARK    1  A    between atoms: C_16  and  C_21
REMARK    2  A    between atoms: C_26  and  N_28
REMARK    3  A    between atoms: N_29  and  C_34
REMARK                            x       y       z     vdW  Elec       q    Type
REMARK                         _______ _______ _______ _____ _____    ______ ____
ROOT
ATOM      1  O   UNL     1      33.144  -4.059 -28.154  0.00  0.00    -0.350 OA
ATOM      2  O   UNL     1      29.559  -2.823 -20.835  0.00  0.00    -0.350 OA
ATOM      3  N   UNL     1      31.074  -5.764 -27.247  0.00  0.00    -0.231 N 
ATOM      4  N   UNL     1      30.648  -5.193 -25.056  0.00  0.00    -0.246 NA
ATOM      5  N   UNL     1      31.642  -7.301 -25.628  0.00  0.00    -0.260 NA
ATOM      6  N   UNL     1      30.254  -4.699 -22.809  0.00  0.00    -0.228 N 
ATOM      7  N   UNL     1      31.222  -6.758 -23.329  0.00  0.00    -0.260 NA
ATOM      8  C   UNL     1      30.755  -4.408 -27.697  0.00  0.00    +0.114 C 
ATOM      9  C   UNL     1      32.054  -6.260 -28.215  0.00  0.00    +0.114 C 
ATOM     10  C   UNL     1      30.552  -4.622 -29.207  0.00  0.00    +0.025 C 
ATOM     11  C   UNL     1      31.410  -5.847 -29.549  0.00  0.00    +0.025 C 
ATOM     12  C   UNL     1      33.351  -5.468 -27.961  0.00  0.00    +0.163 C 
ATOM     13  C   UNL     1      32.009  -3.557 -27.428  0.00  0.00    +0.163 C 
ATOM     14  C   UNL     1      31.123  -6.100 -25.926  0.00  0.00    +0.224 C 
ATOM     15  C   UNL     1      30.730  -5.590 -23.775  0.00  0.00    +0.224 C 
ATOM     16  C   UNL     1      31.660  -7.562 -24.311  0.00  0.00    +0.163 C 
ATOM     17  C   UNL     1      30.310  -5.062 -21.389  0.00  0.00    +0.135 C 
ATOM     18  C   UNL     1      30.338  -3.259 -23.090  0.00  0.00    +0.135 C 
ATOM     19  C   UNL     1      29.348  -2.505 -22.211  0.00  0.00    +0.164 C 
ATOM     20  C   UNL     1      29.322  -4.210 -20.599  0.00  0.00    +0.164 C 
ENDROOT
BRANCH  16  21
ATOM     21  C   UNL     1      32.203  -8.833 -23.910  0.00  0.00    +0.087 C 
ATOM     22  C   UNL     1      33.108  -9.498 -24.738  0.00  0.00    +0.013 C 
ATOM     23  C   UNL     1      31.824  -9.400 -22.693  0.00  0.00    +0.013 C 
ATOM     24  C   UNL     1      33.633 -10.730 -24.348  0.00  0.00    +0.015 C 
ATOM     25  C   UNL     1      32.350 -10.632 -22.304  0.00  0.00    +0.015 C 
ATOM     26  C   UNL     1      33.255 -11.297 -23.132  0.00  0.00    +0.052 C 
BRANCH  26  28
ATOM     27  O   UNL     1      32.311 -14.068 -23.720  0.00  0.00    -0.252 OA
ATOM     28  N   UNL     1      33.781 -12.529 -22.742  0.00  0.00    -0.268 N 
ATOM     29  N   UNL     1      34.135 -14.792 -22.448  0.00  0.00    -0.268 N 
ATOM     30  C   UNL     1      33.305 -13.828 -23.042  0.00  0.00    +0.308 C 
ATOM     31  H   UNL     1      34.592 -12.489 -22.184  0.00  0.00    +0.156 HD
ATOM     32  H   UNL     1      34.898 -14.446 -21.930  0.00  0.00    +0.156 HD
BRANCH  29  34
ATOM     33  N   UNL     1      33.767 -18.983 -22.607  0.00  0.00    -0.242 NA
ATOM     34  C   UNL     1      34.011 -16.201 -22.502  0.00  0.00    +0.055 C 
ATOM     35  C   UNL     1      34.274 -16.968 -21.372  0.00  0.00    +0.035 C 
ATOM     36  C   UNL     1      33.627 -16.823 -23.684  0.00  0.00    +0.035 C 
ATOM     37  C   UNL     1      34.139 -18.342 -21.476  0.00  0.00    +0.100 C 
ATOM     38  C   UNL     1      33.520 -18.205 -23.684  0.00  0.00    +0.100 C 
ENDBRANCH  29  34
ENDBRANCH  26  28
ENDBRANCH  16  21
TORSDOF 3
ENDMDL
