MODEL 1
REMARK VINA RESULT:     -11.6      0.000      0.000
REMARK  Name = 9801640
REMARK  6 active torsions:
REMARK  status: ('A' for Active; 'I' for Inactive)
REMARK    1  A    between atoms: C_1  and  C_2
REMARK    2  A    between atoms: C_1  and  C_16
REMARK    3  A    between atoms: C_2  and  N_3
REMARK    4  A    between atoms: C_7  and  C_11
REMARK    5  A    between atoms: C_16  and  C_17
REMARK    6  A    between atoms: C_17  and  N_21
REMARK                            x       y       z     vdW  Elec       q    Type
REMARK                         _______ _______ _______ _____ _____    ______ ____
ROOT
ATOM      1  C   UNL     1      32.618 -14.986 -24.167  0.00  0.00    -0.021 C 
ENDROOT
BRANCH   1   2
ATOM      2  C   UNL     1      34.088 -15.404 -24.172  0.00  0.00    -0.077 C 
BRANCH   2   3
ATOM      3  N   UNL     1      34.307 -16.497 -23.227  0.00  0.00    +0.390 N 
ATOM      4  C   UNL     1      34.080 -16.058 -21.847  0.00  0.00    -0.072 C 
ATOM      5  C   UNL     1      33.450 -17.648 -23.554  0.00  0.00    -0.051 C 
ATOM      6  C   UNL     1      34.478 -17.175 -20.871  0.00  0.00    +0.005 C 
ATOM      7  C   UNL     1      33.908 -18.523 -21.253  0.00  0.00    -0.013 C 
ATOM      8  C   UNL     1      33.435 -18.720 -22.498  0.00  0.00    -0.052 C 
ATOM      9  H   UNL     1      35.281 -16.790 -23.307  0.00  0.00    -0.079 HD
BRANCH   7  11
ATOM     10  N   UNL     1      35.097 -19.948 -19.720  0.00  0.00    -0.244 NA
ATOM     11  C   UNL     1      33.894 -19.596 -20.230  0.00  0.00    +0.077 C 
ATOM     12  C   UNL     1      32.694 -20.177 -19.848  0.00  0.00    +0.019 C 
ATOM     13  C   UNL     1      32.731 -21.181 -18.886  0.00  0.00    +0.003 C 
ATOM     14  C   UNL     1      35.094 -20.928 -18.788  0.00  0.00    +0.099 C 
ATOM     15  C   UNL     1      33.950 -21.569 -18.341  0.00  0.00    +0.021 C 
ENDBRANCH   7  11
ENDBRANCH   2   3
ENDBRANCH   1   2
BRANCH   1  16
ATOM     16  C   UNL     1      32.477 -13.465 -24.290  0.00  0.00    +0.020 C 
BRANCH  16  17
ATOM     17  C   UNL     1      33.416 -12.711 -23.355  0.00  0.00    +0.099 C 
BRANCH  17  21
ATOM     18 CL   UNL     1      34.467 -10.085 -24.145  0.00  0.00    -0.062 Cl
ATOM     19  O   UNL     1      31.065  -9.127 -22.367  0.00  0.00    -0.448 OA
ATOM     20  O   UNL     1      31.503 -13.026 -21.383  0.00  0.00    -0.269 OA
ATOM     21  N   UNL     1      32.761 -11.568 -22.703  0.00  0.00    -0.244 N 
ATOM     22  C   UNL     1      31.883 -11.881 -21.641  0.00  0.00    +0.256 C 
ATOM     23  C   UNL     1      33.039 -10.285 -23.170  0.00  0.00    +0.151 C 
ATOM     24  C   UNL     1      31.445 -10.833 -20.689  0.00  0.00    +0.088 C 
ATOM     25  C   UNL     1      31.053  -9.554 -21.070  0.00  0.00    +0.150 C 
ATOM     26  C   UNL     1      32.274  -9.200 -22.999  0.00  0.00    +0.206 C 
ATOM     27  C   UNL     1      31.367 -11.190 -19.332  0.00  0.00    +0.008 C 
ATOM     28  C   UNL     1      30.568  -8.646 -20.121  0.00  0.00    +0.038 C 
ATOM     29  C   UNL     1      30.903 -10.278 -18.382  0.00  0.00    +0.000 C 
ATOM     30  C   UNL     1      30.499  -9.006 -18.778  0.00  0.00    +0.003 C 
ENDBRANCH  17  21
ENDBRANCH  16  17
ENDBRANCH   1  16
TORSDOF 6
ENDMDL
MODEL 2
REMARK VINA RESULT:     -11.3      1.613      2.687
REMARK  Name = 9801640
REMARK  6 active torsions:
REMARK  status: ('A' for Active; 'I' for Inactive)
REMARK    1  A    between atoms: C_1  and  C_2
REMARK    2  A    between atoms: C_1  and  C_16
REMARK    3  A    between atoms: C_2  and  N_3
REMARK    4  A    between atoms: C_7  and  C_11
REMARK    5  A    between atoms: C_16  and  C_17
REMARK    6  A    between atoms: C_17  and  N_21
REMARK                            x       y       z     vdW  Elec       q    Type
REMARK                         _______ _______ _______ _____ _____    ______ ____
ROOT
ATOM      1  C   UNL     1      32.790 -14.740 -23.836  0.00  0.00    -0.021 C 
ENDROOT
BRANCH   1   2
ATOM      2  C   UNL     1      34.156 -15.382 -24.076  0.00  0.00    -0.077 C 
BRANCH   2   3
ATOM      3  N   UNL     1      34.372 -16.480 -23.137  0.00  0.00    +0.390 N 
ATOM      4  C   UNL     1      34.109 -16.058 -21.758  0.00  0.00    -0.072 C 
ATOM      5  C   UNL     1      33.541 -17.642 -23.493  0.00  0.00    -0.051 C 
ATOM      6  C   UNL     1      34.503 -17.179 -20.784  0.00  0.00    +0.005 C 
ATOM      7  C   UNL     1      33.963 -18.531 -21.191  0.00  0.00    -0.013 C 
ATOM      8  C   UNL     1      33.521 -18.724 -22.448  0.00  0.00    -0.052 C 
ATOM      9  H   UNL     1      35.352 -16.757 -23.198  0.00  0.00    -0.079 HD
BRANCH   7  11
ATOM     10  N   UNL     1      35.146 -19.981 -19.677  0.00  0.00    -0.244 NA
ATOM     11  C   UNL     1      33.945 -19.615 -20.179  0.00  0.00    +0.077 C 
ATOM     12  C   UNL     1      32.741 -20.191 -19.799  0.00  0.00    +0.019 C 
ATOM     13  C   UNL     1      32.773 -21.204 -18.846  0.00  0.00    +0.003 C 
ATOM     14  C   UNL     1      35.139 -20.970 -18.754  0.00  0.00    +0.099 C 
ATOM     15  C   UNL     1      33.991 -21.606 -18.309  0.00  0.00    +0.021 C 
ENDBRANCH   7  11
ENDBRANCH   2   3
ENDBRANCH   1   2
BRANCH   1  16
ATOM     16  C   UNL     1      32.840 -13.229 -24.082  0.00  0.00    +0.020 C 
BRANCH  16  17
ATOM     17  C   UNL     1      33.425 -12.461 -22.902  0.00  0.00    +0.099 C 
BRANCH  17  21
ATOM     18 CL   UNL     1      31.119 -12.890 -21.134  0.00  0.00    -0.062 Cl
ATOM     19  O   UNL     1      31.553  -8.959 -21.008  0.00  0.00    -0.448 OA
ATOM     20  O   UNL     1      33.986 -10.014 -24.063  0.00  0.00    -0.269 OA
ATOM     21  N   UNL     1      32.659 -11.246 -22.588  0.00  0.00    -0.244 N 
ATOM     22  C   UNL     1      32.991 -10.095 -23.337  0.00  0.00    +0.256 C 
ATOM     23  C   UNL     1      31.687 -11.309 -21.593  0.00  0.00    +0.151 C 
ATOM     24  C   UNL     1      32.078  -8.928 -23.374  0.00  0.00    +0.088 C 
ATOM     25  C   UNL     1      31.432  -8.413 -22.254  0.00  0.00    +0.150 C 
ATOM     26  C   UNL     1      31.193 -10.273 -20.904  0.00  0.00    +0.206 C 
ATOM     27  C   UNL     1      31.917  -8.276 -24.608  0.00  0.00    +0.008 C 
ATOM     28  C   UNL     1      30.653  -7.254 -22.351  0.00  0.00    +0.038 C 
ATOM     29  C   UNL     1      31.123  -7.131 -24.710  0.00  0.00    +0.000 C 
ATOM     30  C   UNL     1      30.495  -6.618 -23.579  0.00  0.00    +0.003 C 
ENDBRANCH  17  21
ENDBRANCH  16  17
ENDBRANCH   1  16
TORSDOF 6
ENDMDL
MODEL 3
REMARK VINA RESULT:     -11.1      1.163      1.527
REMARK  Name = 9801640
REMARK  6 active torsions:
REMARK  status: ('A' for Active; 'I' for Inactive)
REMARK    1  A    between atoms: C_1  and  C_2
REMARK    2  A    between atoms: C_1  and  C_16
REMARK    3  A    between atoms: C_2  and  N_3
REMARK    4  A    between atoms: C_7  and  C_11
REMARK    5  A    between atoms: C_16  and  C_17
REMARK    6  A    between atoms: C_17  and  N_21
REMARK                            x       y       z     vdW  Elec       q    Type
REMARK                         _______ _______ _______ _____ _____    ______ ____
ROOT
ATOM      1  C   UNL     1      32.718 -14.301 -23.480  0.00  0.00    -0.021 C 
ENDROOT
BRANCH   1   2
ATOM      2  C   UNL     1      34.007 -15.003 -23.908  0.00  0.00    -0.077 C 
BRANCH   2   3
ATOM      3  N   UNL     1      34.302 -16.115 -23.007  0.00  0.00    +0.390 N 
ATOM      4  C   UNL     1      33.892 -15.807 -21.634  0.00  0.00    -0.072 C 
ATOM      5  C   UNL     1      33.658 -17.351 -23.478  0.00  0.00    -0.051 C 
ATOM      6  C   UNL     1      34.364 -16.920 -20.686  0.00  0.00    +0.005 C 
ATOM      7  C   UNL     1      34.036 -18.306 -21.194  0.00  0.00    -0.013 C 
ATOM      8  C   UNL     1      33.710 -18.484 -22.488  0.00  0.00    -0.052 C 
ATOM      9  H   UNL     1      35.312 -16.259 -23.008  0.00  0.00    -0.079 HD
BRANCH   7  11
ATOM     10  N   UNL     1      35.325 -19.800 -19.816  0.00  0.00    -0.244 NA
ATOM     11  C   UNL     1      34.092 -19.438 -20.237  0.00  0.00    +0.077 C 
ATOM     12  C   UNL     1      32.921 -20.059 -19.826  0.00  0.00    +0.019 C 
ATOM     13  C   UNL     1      33.024 -21.116 -18.928  0.00  0.00    +0.003 C 
ATOM     14  C   UNL     1      35.386 -20.832 -18.943  0.00  0.00    +0.099 C 
ATOM     15  C   UNL     1      34.276 -21.516 -18.474  0.00  0.00    +0.021 C 
ENDBRANCH   7  11
ENDBRANCH   2   3
ENDBRANCH   1   2
BRANCH   1  16
ATOM     16  C   UNL     1      32.713 -12.836 -23.928  0.00  0.00    +0.020 C 
BRANCH  16  17
ATOM     17  C   UNL     1      33.375 -11.910 -22.914  0.00  0.00    +0.099 C 
BRANCH  17  21
ATOM     18 CL   UNL     1      34.724 -10.036 -24.730  0.00  0.00    -0.062 Cl
ATOM     19  O   UNL     1      31.342  -8.143 -23.931  0.00  0.00    -0.448 OA
ATOM     20  O   UNL     1      31.336 -11.140 -21.212  0.00  0.00    -0.269 OA
ATOM     21  N   UNL     1      32.803 -10.556 -22.933  0.00  0.00    -0.244 N 
ATOM     22  C   UNL     1      31.842 -10.277 -21.935  0.00  0.00    +0.256 C 
ATOM     23  C   UNL     1      33.232  -9.665 -23.914  0.00  0.00    +0.151 C 
ATOM     24  C   UNL     1      31.460  -8.879 -21.625  0.00  0.00    +0.088 C 
ATOM     25  C   UNL     1      31.219  -7.908 -22.591  0.00  0.00    +0.150 C 
ATOM     26  C   UNL     1      32.571  -8.581 -24.339  0.00  0.00    +0.206 C 
ATOM     27  C   UNL     1      31.273  -8.549 -20.272  0.00  0.00    +0.008 C 
ATOM     28  C   UNL     1      30.775  -6.632 -22.224  0.00  0.00    +0.038 C 
ATOM     29  C   UNL     1      30.851  -7.270 -19.902  0.00  0.00    +0.000 C 
ATOM     30  C   UNL     1      30.598  -6.312 -20.880  0.00  0.00    +0.003 C 
ENDBRANCH  17  21
ENDBRANCH  16  17
ENDBRANCH   1  16
TORSDOF 6
ENDMDL
MODEL 4
REMARK VINA RESULT:     -10.7      6.372     11.814
REMARK  Name = 9801640
REMARK  6 active torsions:
REMARK  status: ('A' for Active; 'I' for Inactive)
REMARK    1  A    between atoms: C_1  and  C_2
REMARK    2  A    between atoms: C_1  and  C_16
REMARK    3  A    between atoms: C_2  and  N_3
REMARK    4  A    between atoms: C_7  and  C_11
REMARK    5  A    between atoms: C_16  and  C_17
REMARK    6  A    between atoms: C_17  and  N_21
REMARK                            x       y       z     vdW  Elec       q    Type
REMARK                         _______ _______ _______ _____ _____    ______ ____
ROOT
ATOM      1  C   UNL     1      36.091 -21.157 -16.299  0.00  0.00    -0.021 C 
ENDROOT
BRANCH   1   2
ATOM      2  C   UNL     1      35.343 -21.652 -17.536  0.00  0.00    -0.077 C 
BRANCH   2   3
ATOM      3  N   UNL     1      35.038 -20.533 -18.425  0.00  0.00    +0.390 N 
ATOM      4  C   UNL     1      36.126 -20.304 -19.381  0.00  0.00    -0.072 C 
ATOM      5  C   UNL     1      33.766 -20.759 -19.130  0.00  0.00    -0.051 C 
ATOM      6  C   UNL     1      35.853 -19.026 -20.187  0.00  0.00    +0.005 C 
ATOM      7  C   UNL     1      34.446 -18.965 -20.739  0.00  0.00    -0.013 C 
ATOM      8  C   UNL     1      33.496 -19.776 -20.238  0.00  0.00    -0.052 C 
ATOM      9  H   UNL     1      34.943 -19.694 -17.853  0.00  0.00    -0.079 HD
BRANCH   7  11
ATOM     10  N   UNL     1      34.422 -16.698 -21.548  0.00  0.00    -0.244 NA
ATOM     11  C   UNL     1      34.158 -17.995 -21.823  0.00  0.00    +0.077 C 
ATOM     12  C   UNL     1      33.645 -18.440 -23.034  0.00  0.00    +0.019 C 
ATOM     13  C   UNL     1      33.390 -17.493 -24.021  0.00  0.00    +0.003 C 
ATOM     14  C   UNL     1      34.160 -15.807 -22.531  0.00  0.00    +0.099 C 
ATOM     15  C   UNL     1      33.649 -16.150 -23.772  0.00  0.00    +0.021 C 
ENDBRANCH   7  11
ENDBRANCH   2   3
ENDBRANCH   1   2
BRANCH   1  16
ATOM     16  C   UNL     1      35.673 -21.941 -15.051  0.00  0.00    +0.020 C 
BRANCH  16  17
ATOM     17  C   UNL     1      34.963 -23.247 -15.389  0.00  0.00    +0.099 C 
BRANCH  17  21
ATOM     18 CL   UNL     1      35.580 -24.927 -13.060  0.00  0.00    -0.062 Cl
ATOM     19  O   UNL     1      32.063 -23.399 -12.084  0.00  0.00    -0.448 OA
ATOM     20  O   UNL     1      32.397 -22.410 -15.993  0.00  0.00    -0.269 OA
ATOM     21  N   UNL     1      33.819 -23.510 -14.504  0.00  0.00    -0.244 N 
ATOM     22  C   UNL     1      32.554 -23.116 -14.994  0.00  0.00    +0.256 C 
ATOM     23  C   UNL     1      34.057 -24.110 -13.269  0.00  0.00    +0.151 C 
ATOM     24  C   UNL     1      31.310 -23.633 -14.376  0.00  0.00    +0.088 C 
ATOM     25  C   UNL     1      31.111 -23.738 -13.003  0.00  0.00    +0.150 C 
ATOM     26  C   UNL     1      33.252 -24.062 -12.200  0.00  0.00    +0.206 C 
ATOM     27  C   UNL     1      30.257 -23.976 -15.241  0.00  0.00    +0.008 C 
ATOM     28  C   UNL     1      29.875 -24.153 -12.492  0.00  0.00    +0.038 C 
ATOM     29  C   UNL     1      29.031 -24.411 -14.733  0.00  0.00    +0.000 C 
ATOM     30  C   UNL     1      28.839 -24.495 -13.358  0.00  0.00    +0.003 C 
ENDBRANCH  17  21
ENDBRANCH  16  17
ENDBRANCH   1  16
TORSDOF 6
ENDMDL
MODEL 5
REMARK VINA RESULT:     -10.6      6.248     11.952
REMARK  Name = 9801640
REMARK  6 active torsions:
REMARK  status: ('A' for Active; 'I' for Inactive)
REMARK    1  A    between atoms: C_1  and  C_2
REMARK    2  A    between atoms: C_1  and  C_16
REMARK    3  A    between atoms: C_2  and  N_3
REMARK    4  A    between atoms: C_7  and  C_11
REMARK    5  A    between atoms: C_16  and  C_17
REMARK    6  A    between atoms: C_17  and  N_21
REMARK                            x       y       z     vdW  Elec       q    Type
REMARK                         _______ _______ _______ _____ _____    ______ ____
ROOT
ATOM      1  C   UNL     1      34.003 -21.991 -18.235  0.00  0.00    -0.021 C 
ENDROOT
BRANCH   1   2
ATOM      2  C   UNL     1      35.278 -21.238 -18.611  0.00  0.00    -0.077 C 
BRANCH   2   3
ATOM      3  N   UNL     1      34.947 -19.978 -19.272  0.00  0.00    +0.390 N 
ATOM      4  C   UNL     1      36.073 -19.487 -20.072  0.00  0.00    -0.072 C 
ATOM      5  C   UNL     1      33.743 -20.127 -20.105  0.00  0.00    -0.051 C 
ATOM      6  C   UNL     1      35.755 -18.086 -20.617  0.00  0.00    +0.005 C 
ATOM      7  C   UNL     1      34.386 -17.997 -21.252  0.00  0.00    -0.013 C 
ATOM      8  C   UNL     1      33.470 -18.952 -21.005  0.00  0.00    -0.052 C 
ATOM      9  H   UNL     1      34.752 -19.286 -18.549  0.00  0.00    -0.079 HD
BRANCH   7  11
ATOM     10  N   UNL     1      34.028 -15.632 -21.528  0.00  0.00    -0.244 NA
ATOM     11  C   UNL     1      34.094 -16.840 -22.133  0.00  0.00    +0.077 C 
ATOM     12  C   UNL     1      33.905 -17.034 -23.494  0.00  0.00    +0.019 C 
ATOM     13  C   UNL     1      33.633 -15.919 -24.280  0.00  0.00    +0.003 C 
ATOM     14  C   UNL     1      33.760 -14.572 -22.324  0.00  0.00    +0.099 C 
ATOM     15  C   UNL     1      33.557 -14.662 -23.692  0.00  0.00    +0.021 C 
ENDBRANCH   7  11
ENDBRANCH   2   3
ENDBRANCH   1   2
BRANCH   1  16
ATOM     16  C   UNL     1      33.768 -21.956 -16.722  0.00  0.00    +0.020 C 
BRANCH  16  17
ATOM     17  C   UNL     1      33.099 -23.225 -16.202  0.00  0.00    +0.099 C 
BRANCH  17  21
ATOM     18 CL   UNL     1      30.736 -22.439 -14.644  0.00  0.00    -0.062 Cl
ATOM     19  O   UNL     1      32.851 -24.478 -11.992  0.00  0.00    -0.448 OA
ATOM     20  O   UNL     1      35.483 -23.987 -15.026  0.00  0.00    -0.269 OA
ATOM     21  N   UNL     1      33.245 -23.381 -14.748  0.00  0.00    -0.244 N 
ATOM     22  C   UNL     1      34.548 -23.671 -14.285  0.00  0.00    +0.256 C 
ATOM     23  C   UNL     1      32.114 -23.242 -13.946  0.00  0.00    +0.151 C 
ATOM     24  C   UNL     1      34.896 -23.503 -12.854  0.00  0.00    +0.088 C 
ATOM     25  C   UNL     1      34.078 -23.909 -11.804  0.00  0.00    +0.150 C 
ATOM     26  C   UNL     1      31.960 -23.729 -12.708  0.00  0.00    +0.206 C 
ATOM     27  C   UNL     1      36.157 -22.958 -12.558  0.00  0.00    +0.008 C 
ATOM     28  C   UNL     1      34.513 -23.797 -10.478  0.00  0.00    +0.038 C 
ATOM     29  C   UNL     1      36.584 -22.826 -11.235  0.00  0.00    +0.000 C 
ATOM     30  C   UNL     1      35.762 -23.250 -10.195  0.00  0.00    +0.003 C 
ENDBRANCH  17  21
ENDBRANCH  16  17
ENDBRANCH   1  16
TORSDOF 6
ENDMDL
MODEL 6
REMARK VINA RESULT:     -10.4      2.694      4.425
REMARK  Name = 9801640
REMARK  6 active torsions:
REMARK  status: ('A' for Active; 'I' for Inactive)
REMARK    1  A    between atoms: C_1  and  C_2
REMARK    2  A    between atoms: C_1  and  C_16
REMARK    3  A    between atoms: C_2  and  N_3
REMARK    4  A    between atoms: C_7  and  C_11
REMARK    5  A    between atoms: C_16  and  C_17
REMARK    6  A    between atoms: C_17  and  N_21
REMARK                            x       y       z     vdW  Elec       q    Type
REMARK                         _______ _______ _______ _____ _____    ______ ____
ROOT
ATOM      1  C   UNL     1      34.297  -9.979 -24.499  0.00  0.00    -0.021 C 
ENDROOT
BRANCH   1   2
ATOM      2  C   UNL     1      33.069 -10.868 -24.305  0.00  0.00    -0.077 C 
BRANCH   2   3
ATOM      3  N   UNL     1      33.476 -12.256 -24.097  0.00  0.00    +0.390 N 
ATOM      4  C   UNL     1      33.309 -12.653 -22.696  0.00  0.00    -0.072 C 
ATOM      5  C   UNL     1      32.726 -13.158 -24.985  0.00  0.00    -0.051 C 
ATOM      6  C   UNL     1      33.898 -14.054 -22.476  0.00  0.00    +0.005 C 
ATOM      7  C   UNL     1      33.449 -15.053 -23.519  0.00  0.00    -0.013 C 
ATOM      8  C   UNL     1      32.907 -14.618 -24.671  0.00  0.00    -0.052 C 
ATOM      9  H   UNL     1      34.467 -12.330 -24.328  0.00  0.00    -0.079 HD
BRANCH   7  11
ATOM     10  N   UNL     1      33.117 -17.354 -24.146  0.00  0.00    -0.244 NA
ATOM     11  C   UNL     1      33.629 -16.497 -23.232  0.00  0.00    +0.077 C 
ATOM     12  C   UNL     1      34.291 -16.900 -22.081  0.00  0.00    +0.019 C 
ATOM     13  C   UNL     1      34.435 -18.265 -21.855  0.00  0.00    +0.003 C 
ATOM     14  C   UNL     1      33.276 -18.673 -23.892  0.00  0.00    +0.099 C 
ATOM     15  C   UNL     1      33.921 -19.174 -22.773  0.00  0.00    +0.021 C 
ENDBRANCH   7  11
ENDBRANCH   2   3
ENDBRANCH   1   2
BRANCH   1  16
ATOM     16  C   UNL     1      34.103  -8.617 -23.824  0.00  0.00    +0.020 C 
BRANCH  16  17
ATOM     17  C   UNL     1      32.825  -7.916 -24.272  0.00  0.00    +0.099 C 
BRANCH  17  21
ATOM     18 CL   UNL     1      33.765  -5.134 -24.319  0.00  0.00    -0.062 Cl
ATOM     19  O   UNL     1      30.615  -4.915 -21.935  0.00  0.00    -0.448 OA
ATOM     20  O   UNL     1      31.178  -8.906 -22.283  0.00  0.00    -0.269 OA
ATOM     21  N   UNL     1      32.257  -7.060 -23.220  0.00  0.00    -0.244 N 
ATOM     22  C   UNL     1      31.521  -7.723 -22.213  0.00  0.00    +0.256 C 
ATOM     23  C   UNL     1      32.472  -5.685 -23.292  0.00  0.00    +0.151 C 
ATOM     24  C   UNL     1      31.207  -7.042 -20.935  0.00  0.00    +0.088 C 
ATOM     25  C   UNL     1      30.769  -5.724 -20.845  0.00  0.00    +0.150 C 
ATOM     26  C   UNL     1      31.734  -4.739 -22.698  0.00  0.00    +0.206 C 
ATOM     27  C   UNL     1      31.302  -7.805 -19.759  0.00  0.00    +0.008 C 
ATOM     28  C   UNL     1      30.406  -5.176 -19.609  0.00  0.00    +0.038 C 
ATOM     29  C   UNL     1      30.961  -7.253 -18.522  0.00  0.00    +0.000 C 
ATOM     30  C   UNL     1      30.509  -5.939 -18.448  0.00  0.00    +0.003 C 
ENDBRANCH  17  21
ENDBRANCH  16  17
ENDBRANCH   1  16
TORSDOF 6
ENDMDL
MODEL 7
REMARK VINA RESULT:      -9.9      7.237     13.270
REMARK  Name = 9801640
REMARK  6 active torsions:
REMARK  status: ('A' for Active; 'I' for Inactive)
REMARK    1  A    between atoms: C_1  and  C_2
REMARK    2  A    between atoms: C_1  and  C_16
REMARK    3  A    between atoms: C_2  and  N_3
REMARK    4  A    between atoms: C_7  and  C_11
REMARK    5  A    between atoms: C_16  and  C_17
REMARK    6  A    between atoms: C_17  and  N_21
REMARK                            x       y       z     vdW  Elec       q    Type
REMARK                         _______ _______ _______ _____ _____    ______ ____
ROOT
ATOM      1  C   UNL     1      32.104 -22.751 -15.712  0.00  0.00    -0.021 C 
ENDROOT
BRANCH   1   2
ATOM      2  C   UNL     1      32.813 -23.096 -17.021  0.00  0.00    -0.077 C 
BRANCH   2   3
ATOM      3  N   UNL     1      33.129 -21.878 -17.763  0.00  0.00    +0.390 N 
ATOM      4  C   UNL     1      34.306 -22.068 -18.616  0.00  0.00    -0.072 C 
ATOM      5  C   UNL     1      31.974 -21.438 -18.562  0.00  0.00    -0.051 C 
ATOM      6  C   UNL     1      34.712 -20.729 -19.252  0.00  0.00    +0.005 C 
ATOM      7  C   UNL     1      33.545 -19.990 -19.867  0.00  0.00    -0.013 C 
ATOM      8  C   UNL     1      32.287 -20.335 -19.536  0.00  0.00    -0.052 C 
ATOM      9  H   UNL     1      33.348 -21.146 -17.086  0.00  0.00    -0.079 HD
BRANCH   7  11
ATOM     10  N   UNL     1      34.384 -17.775 -20.295  0.00  0.00    -0.244 NA
ATOM     11  C   UNL     1      33.832 -18.892 -20.821  0.00  0.00    +0.077 C 
ATOM     12  C   UNL     1      33.535 -19.047 -22.168  0.00  0.00    +0.019 C 
ATOM     13  C   UNL     1      33.822 -17.990 -23.025  0.00  0.00    +0.003 C 
ATOM     14  C   UNL     1      34.648 -16.768 -21.159  0.00  0.00    +0.099 C 
ATOM     15  C   UNL     1      34.389 -16.825 -22.518  0.00  0.00    +0.021 C 
ENDBRANCH   7  11
ENDBRANCH   2   3
ENDBRANCH   1   2
BRANCH   1  16
ATOM     16  C   UNL     1      33.090 -22.732 -14.540  0.00  0.00    +0.020 C 
BRANCH  16  17
ATOM     17  C   UNL     1      32.971 -23.967 -13.653  0.00  0.00    +0.099 C 
BRANCH  17  21
ATOM     18 CL   UNL     1      33.401 -23.040 -10.899  0.00  0.00    -0.062 Cl
ATOM     19  O   UNL     1      36.224 -25.783 -11.312  0.00  0.00    -0.448 OA
ATOM     20  O   UNL     1      34.916 -25.288 -15.109  0.00  0.00    -0.269 OA
ATOM     21  N   UNL     1      34.260 -24.364 -13.068  0.00  0.00    -0.244 N 
ATOM     22  C   UNL     1      35.195 -24.936 -13.960  0.00  0.00    +0.256 C 
ATOM     23  C   UNL     1      34.464 -24.160 -11.705  0.00  0.00    +0.151 C 
ATOM     24  C   UNL     1      36.625 -25.047 -13.586  0.00  0.00    +0.088 C 
ATOM     25  C   UNL     1      37.070 -25.463 -12.336  0.00  0.00    +0.150 C 
ATOM     26  C   UNL     1      35.358 -24.795 -10.936  0.00  0.00    +0.206 C 
ATOM     27  C   UNL     1      37.573 -24.772 -14.586  0.00  0.00    +0.008 C 
ATOM     28  C   UNL     1      38.437 -25.628 -12.085  0.00  0.00    +0.038 C 
ATOM     29  C   UNL     1      38.939 -24.915 -14.330  0.00  0.00    +0.000 C 
ATOM     30  C   UNL     1      39.370 -25.348 -13.080  0.00  0.00    +0.003 C 
ENDBRANCH  17  21
ENDBRANCH  16  17
ENDBRANCH   1  16
TORSDOF 6
ENDMDL
MODEL 8
REMARK VINA RESULT:      -9.9      2.353      3.810
REMARK  Name = 9801640
REMARK  6 active torsions:
REMARK  status: ('A' for Active; 'I' for Inactive)
REMARK    1  A    between atoms: C_1  and  C_2
REMARK    2  A    between atoms: C_1  and  C_16
REMARK    3  A    between atoms: C_2  and  N_3
REMARK    4  A    between atoms: C_7  and  C_11
REMARK    5  A    between atoms: C_16  and  C_17
REMARK    6  A    between atoms: C_17  and  N_21
REMARK                            x       y       z     vdW  Elec       q    Type
REMARK                         _______ _______ _______ _____ _____    ______ ____
ROOT
ATOM      1  C   UNL     1      32.215 -13.250 -23.960  0.00  0.00    -0.021 C 
ENDROOT
BRANCH   1   2
ATOM      2  C   UNL     1      33.046 -14.397 -24.535  0.00  0.00    -0.077 C 
BRANCH   2   3
ATOM      3  N   UNL     1      33.136 -15.490 -23.569  0.00  0.00    +0.390 N 
ATOM      4  C   UNL     1      33.765 -16.673 -24.166  0.00  0.00    -0.072 C 
ATOM      5  C   UNL     1      33.868 -15.064 -22.366  0.00  0.00    -0.051 C 
ATOM      6  C   UNL     1      33.695 -17.852 -23.184  0.00  0.00    +0.005 C 
ATOM      7  C   UNL     1      34.139 -17.484 -21.787  0.00  0.00    -0.013 C 
ATOM      8  C   UNL     1      34.215 -16.189 -21.429  0.00  0.00    -0.052 C 
ATOM      9  H   UNL     1      32.188 -15.745 -23.294  0.00  0.00    -0.079 HD
BRANCH   7  11
ATOM     10  N   UNL     1      35.758 -18.624 -20.416  0.00  0.00    -0.244 NA
ATOM     11  C   UNL     1      34.475 -18.579 -20.844  0.00  0.00    +0.077 C 
ATOM     12  C   UNL     1      33.498 -19.482 -20.452  0.00  0.00    +0.019 C 
ATOM     13  C   UNL     1      33.860 -20.493 -19.568  0.00  0.00    +0.003 C 
ATOM     14  C   UNL     1      36.072 -19.621 -19.558  0.00  0.00    +0.099 C 
ATOM     15  C   UNL     1      35.170 -20.570 -19.108  0.00  0.00    +0.021 C 
ENDBRANCH   7  11
ENDBRANCH   2   3
ENDBRANCH   1   2
BRANCH   1  16
ATOM     16  C   UNL     1      32.850 -11.894 -24.283  0.00  0.00    +0.020 C 
BRANCH  16  17
ATOM     17  C   UNL     1      33.492 -11.242 -23.063  0.00  0.00    +0.099 C 
BRANCH  17  21
ATOM     18 CL   UNL     1      31.086 -10.480 -21.561  0.00  0.00    -0.062 Cl
ATOM     19  O   UNL     1      33.006  -7.034 -21.872  0.00  0.00    -0.448 OA
ATOM     20  O   UNL     1      35.039  -9.409 -24.440  0.00  0.00    -0.269 OA
ATOM     21  N   UNL     1      33.241  -9.794 -23.003  0.00  0.00    -0.244 N 
ATOM     22  C   UNL     1      34.045  -8.991 -23.841  0.00  0.00    +0.256 C 
ATOM     23  C   UNL     1      32.254  -9.325 -22.138  0.00  0.00    +0.151 C 
ATOM     24  C   UNL     1      33.663  -7.590 -24.138  0.00  0.00    +0.088 C 
ATOM     25  C   UNL     1      33.193  -6.695 -23.182  0.00  0.00    +0.150 C 
ATOM     26  C   UNL     1      32.156  -8.081 -21.652  0.00  0.00    +0.206 C 
ATOM     27  C   UNL     1      33.853  -7.136 -25.454  0.00  0.00    +0.008 C 
ATOM     28  C   UNL     1      32.936  -5.361 -23.520  0.00  0.00    +0.038 C 
ATOM     29  C   UNL     1      33.577  -5.811 -25.798  0.00  0.00    +0.000 C 
ATOM     30  C   UNL     1      33.122  -4.923 -24.829  0.00  0.00    +0.003 C 
ENDBRANCH  17  21
ENDBRANCH  16  17
ENDBRANCH   1  16
TORSDOF 6
ENDMDL
MODEL 9
REMARK VINA RESULT:      -9.9      3.007      5.334
REMARK  Name = 9801640
REMARK  6 active torsions:
REMARK  status: ('A' for Active; 'I' for Inactive)
REMARK    1  A    between atoms: C_1  and  C_2
REMARK    2  A    between atoms: C_1  and  C_16
REMARK    3  A    between atoms: C_2  and  N_3
REMARK    4  A    between atoms: C_7  and  C_11
REMARK    5  A    between atoms: C_16  and  C_17
REMARK    6  A    between atoms: C_17  and  N_21
REMARK                            x       y       z     vdW  Elec       q    Type
REMARK                         _______ _______ _______ _____ _____    ______ ____
ROOT
ATOM      1  C   UNL     1      33.979 -19.344 -22.129  0.00  0.00    -0.021 C 
ENDROOT
BRANCH   1   2
ATOM      2  C   UNL     1      34.983 -19.224 -20.983  0.00  0.00    -0.077 C 
BRANCH   2   3
ATOM      3  N   UNL     1      34.425 -19.793 -19.758  0.00  0.00    +0.390 N 
ATOM      4  C   UNL     1      33.155 -20.475 -20.022  0.00  0.00    -0.072 C 
ATOM      5  C   UNL     1      35.386 -20.709 -19.124  0.00  0.00    -0.051 C 
ATOM      6  C   UNL     1      32.514 -20.915 -18.698  0.00  0.00    +0.005 C 
ATOM      7  C   UNL     1      33.483 -21.625 -17.779  0.00  0.00    -0.013 C 
ATOM      8  C   UNL     1      34.807 -21.519 -17.995  0.00  0.00    -0.052 C 
ATOM      9  H   UNL     1      34.240 -19.026 -19.112  0.00  0.00    -0.079 HD
BRANCH   7  11
ATOM     10  N   UNL     1      33.840 -23.032 -15.859  0.00  0.00    -0.244 NA
ATOM     11  C   UNL     1      32.933 -22.419 -16.654  0.00  0.00    +0.077 C 
ATOM     12  C   UNL     1      31.561 -22.500 -16.467  0.00  0.00    +0.019 C 
ATOM     13  C   UNL     1      31.092 -23.257 -15.398  0.00  0.00    +0.003 C 
ATOM     14  C   UNL     1      33.346 -23.760 -14.831  0.00  0.00    +0.099 C 
ATOM     15  C   UNL     1      31.995 -23.902 -14.561  0.00  0.00    +0.021 C 
ENDBRANCH   7  11
ENDBRANCH   2   3
ENDBRANCH   1   2
BRANCH   1  16
ATOM     16  C   UNL     1      33.471 -17.966 -22.563  0.00  0.00    +0.020 C 
BRANCH  16  17
ATOM     17  C   UNL     1      34.318 -16.826 -22.008  0.00  0.00    +0.099 C 
BRANCH  17  21
ATOM     18 CL   UNL     1      33.301 -15.042 -19.907  0.00  0.00    -0.062 Cl
ATOM     19  O   UNL     1      33.839 -12.552 -22.935  0.00  0.00    -0.448 OA
ATOM     20  O   UNL     1      34.237 -16.173 -24.694  0.00  0.00    -0.269 OA
ATOM     21  N   UNL     1      33.870 -15.510 -22.486  0.00  0.00    -0.244 N 
ATOM     22  C   UNL     1      33.782 -15.358 -23.888  0.00  0.00    +0.256 C 
ATOM     23  C   UNL     1      33.577 -14.524 -21.546  0.00  0.00    +0.151 C 
ATOM     24  C   UNL     1      33.021 -14.231 -24.479  0.00  0.00    +0.088 C 
ATOM     25  C   UNL     1      33.086 -12.922 -24.013  0.00  0.00    +0.150 C 
ATOM     26  C   UNL     1      33.555 -13.203 -21.768  0.00  0.00    +0.206 C 
ATOM     27  C   UNL     1      32.243 -14.507 -25.616  0.00  0.00    +0.008 C 
ATOM     28  C   UNL     1      32.407 -11.894 -24.678  0.00  0.00    +0.038 C 
ATOM     29  C   UNL     1      31.548 -13.487 -26.269  0.00  0.00    +0.000 C 
ATOM     30  C   UNL     1      31.634 -12.179 -25.801  0.00  0.00    +0.003 C 
ENDBRANCH  17  21
ENDBRANCH  16  17
ENDBRANCH   1  16
TORSDOF 6
ENDMDL
