MODEL 1
REMARK VINA RESULT:     -12.9      0.000      0.000
REMARK  Name = 9999276
REMARK  5 active torsions:
REMARK  status: ('A' for Active; 'I' for Inactive)
REMARK    1  A    between atoms: C_3  and  C_11
REMARK    2  A    between atoms: C_6  and  C_20
REMARK    3  A    between atoms: C_14  and  N_19
REMARK    4  A    between atoms: C_25  and  C_27
REMARK    5  A    between atoms: C_27  and  O_28
REMARK                            x       y       z     vdW  Elec       q    Type
REMARK                         _______ _______ _______ _____ _____    ______ ____
ROOT
ATOM      1  N   UNL     1      33.714 -22.923 -15.770  0.00  0.00    -0.400 NA
ATOM      2  N   UNL     1      31.728 -24.607 -13.212  0.00  0.00    -0.242 NA
ATOM      3  C   UNL     1      33.330 -23.633 -14.684  0.00  0.00    +0.149 C 
ATOM      4  C   UNL     1      32.020 -23.887 -14.313  0.00  0.00    +0.107 C 
ATOM      5  C   UNL     1      31.023 -23.352 -15.147  0.00  0.00    +0.005 C 
ATOM      6  C   UNL     1      32.727 -22.429 -16.543  0.00  0.00    +0.131 C 
ATOM      7  C   UNL     1      31.381 -22.612 -16.281  0.00  0.00    +0.030 C 
ATOM      8  C   UNL     1      29.685 -23.587 -14.807  0.00  0.00    +0.056 C 
ATOM      9  C   UNL     1      29.374 -24.327 -13.674  0.00  0.00    -0.001 C 
ATOM     10  C   UNL     1      30.423 -24.811 -12.917  0.00  0.00    +0.095 C 
ENDROOT
BRANCH   3  11
ATOM     11  C   UNL     1      34.445 -24.131 -13.904  0.00  0.00    +0.033 C 
ATOM     12  C   UNL     1      34.875 -23.432 -12.778  0.00  0.00    +0.027 C 
ATOM     13  C   UNL     1      35.087 -25.310 -14.284  0.00  0.00    +0.003 C 
ATOM     14  C   UNL     1      35.948 -23.912 -12.028  0.00  0.00    +0.143 C 
ATOM     15  C   UNL     1      36.161 -25.790 -13.534  0.00  0.00    +0.002 C 
ATOM     16  C   UNL     1      36.592 -25.090 -12.407  0.00  0.00    +0.024 C 
BRANCH  14  19
ATOM     17  O   UNL     1      36.001 -23.583  -9.751  0.00  0.00    -0.126 OA
ATOM     18  O   UNL     1      37.146 -22.215 -11.035  0.00  0.00    -0.126 OA
ATOM     19  N   UNL     1      36.387 -23.200 -10.880  0.00  0.00    +0.058 N 
ENDBRANCH  14  19
ENDBRANCH   3  11
BRANCH   6  20
ATOM     20  C   UNL     1      33.168 -21.676 -17.693  0.00  0.00    +0.030 C 
ATOM     21  C   UNL     1      34.531 -21.559 -17.975  0.00  0.00    +0.003 C 
ATOM     22  C   UNL     1      32.232 -21.060 -18.527  0.00  0.00    +0.003 C 
ATOM     23  C   UNL     1      34.956 -20.831 -19.087  0.00  0.00    +0.007 C 
ATOM     24  C   UNL     1      32.658 -20.332 -19.639  0.00  0.00    +0.007 C 
ATOM     25  C   UNL     1      34.019 -20.218 -19.918  0.00  0.00    +0.075 C 
BRANCH  25  27
ATOM     26  O   UNL     1      33.920 -19.465 -22.187  0.00  0.00    -0.245 OA
ATOM     27  C   UNL     1      34.462 -19.458 -21.077  0.00  0.00    +0.338 C 
BRANCH  27  28
ATOM     28  O   UNL     1      35.569 -18.710 -20.817  0.00  0.00    -0.477 OA
ATOM     29  H   UNL     1      35.523 -18.000 -20.206  0.00  0.00    +0.295 HD
ENDBRANCH  27  28
ENDBRANCH  25  27
ENDBRANCH   6  20
TORSDOF 5
ENDMDL
MODEL 2
REMARK VINA RESULT:     -12.4      1.746      1.969
REMARK  Name = 9999276
REMARK  5 active torsions:
REMARK  status: ('A' for Active; 'I' for Inactive)
REMARK    1  A    between atoms: C_3  and  C_11
REMARK    2  A    between atoms: C_6  and  C_20
REMARK    3  A    between atoms: C_14  and  N_19
REMARK    4  A    between atoms: C_25  and  C_27
REMARK    5  A    between atoms: C_27  and  O_28
REMARK                            x       y       z     vdW  Elec       q    Type
REMARK                         _______ _______ _______ _____ _____    ______ ____
ROOT
ATOM      1  N   UNL     1      33.945 -22.610 -15.940  0.00  0.00    -0.400 NA
ATOM      2  N   UNL     1      32.153 -24.416 -13.322  0.00  0.00    -0.242 NA
ATOM      3  C   UNL     1      33.640 -23.317 -14.826  0.00  0.00    +0.149 C 
ATOM      4  C   UNL     1      32.366 -23.711 -14.451  0.00  0.00    +0.107 C 
ATOM      5  C   UNL     1      31.320 -23.337 -15.311  0.00  0.00    +0.005 C 
ATOM      6  C   UNL     1      32.913 -22.272 -16.737  0.00  0.00    +0.131 C 
ATOM      7  C   UNL     1      31.596 -22.605 -16.473  0.00  0.00    +0.030 C 
ATOM      8  C   UNL     1      30.016 -23.717 -14.967  0.00  0.00    +0.056 C 
ATOM      9  C   UNL     1      29.787 -24.443 -13.805  0.00  0.00    -0.001 C 
ATOM     10  C   UNL     1      30.880 -24.764 -13.024  0.00  0.00    +0.095 C 
ENDROOT
BRANCH   3  11
ATOM     11  C   UNL     1      34.799 -23.644 -14.022  0.00  0.00    +0.033 C 
ATOM     12  C   UNL     1      35.567 -24.765 -14.332  0.00  0.00    +0.027 C 
ATOM     13  C   UNL     1      35.144 -22.837 -12.938  0.00  0.00    +0.003 C 
ATOM     14  C   UNL     1      36.684 -25.079 -13.558  0.00  0.00    +0.143 C 
ATOM     15  C   UNL     1      36.261 -23.151 -12.164  0.00  0.00    +0.002 C 
ATOM     16  C   UNL     1      37.030 -24.273 -12.473  0.00  0.00    +0.024 C 
BRANCH  14  19
ATOM     17  O   UNL     1      36.882 -27.289 -14.172  0.00  0.00    -0.126 OA
ATOM     18  O   UNL     1      38.716 -26.123 -13.841  0.00  0.00    -0.126 OA
ATOM     19  N   UNL     1      37.468 -26.221 -13.872  0.00  0.00    +0.058 N 
ENDBRANCH  14  19
ENDBRANCH   3  11
BRANCH   6  20
ATOM     20  C   UNL     1      33.270 -21.518 -17.915  0.00  0.00    +0.030 C 
ATOM     21  C   UNL     1      34.610 -21.391 -18.288  0.00  0.00    +0.003 C 
ATOM     22  C   UNL     1      32.276 -20.912 -18.687  0.00  0.00    +0.003 C 
ATOM     23  C   UNL     1      34.955 -20.664 -19.427  0.00  0.00    +0.007 C 
ATOM     24  C   UNL     1      32.621 -20.184 -19.826  0.00  0.00    +0.007 C 
ATOM     25  C   UNL     1      33.960 -20.060 -20.196  0.00  0.00    +0.075 C 
BRANCH  25  27
ATOM     26  O   UNL     1      33.771 -19.396 -22.487  0.00  0.00    -0.245 OA
ATOM     27  C   UNL     1      34.318 -19.300 -21.383  0.00  0.00    +0.338 C 
BRANCH  27  28
ATOM     28  O   UNL     1      35.350 -18.441 -21.160  0.00  0.00    -0.477 OA
ATOM     29  H   UNL     1      35.424 -17.654 -21.665  0.00  0.00    +0.295 HD
ENDBRANCH  27  28
ENDBRANCH  25  27
ENDBRANCH   6  20
TORSDOF 5
ENDMDL
MODEL 3
REMARK VINA RESULT:     -11.6      3.260      5.287
REMARK  Name = 9999276
REMARK  5 active torsions:
REMARK  status: ('A' for Active; 'I' for Inactive)
REMARK    1  A    between atoms: C_3  and  C_11
REMARK    2  A    between atoms: C_6  and  C_20
REMARK    3  A    between atoms: C_14  and  N_19
REMARK    4  A    between atoms: C_25  and  C_27
REMARK    5  A    between atoms: C_27  and  O_28
REMARK                            x       y       z     vdW  Elec       q    Type
REMARK                         _______ _______ _______ _____ _____    ______ ____
ROOT
ATOM      1  N   UNL     1      32.301 -22.402 -16.516  0.00  0.00    -0.400 NA
ATOM      2  N   UNL     1      33.115 -24.154 -13.418  0.00  0.00    -0.242 NA
ATOM      3  C   UNL     1      32.218 -23.101 -15.359  0.00  0.00    +0.149 C 
ATOM      4  C   UNL     1      33.291 -23.456 -14.558  0.00  0.00    +0.107 C 
ATOM      5  C   UNL     1      34.560 -23.048 -15.002  0.00  0.00    +0.005 C 
ATOM      6  C   UNL     1      33.537 -22.031 -16.904  0.00  0.00    +0.131 C 
ATOM      7  C   UNL     1      34.687 -22.324 -16.194  0.00  0.00    +0.030 C 
ATOM      8  C   UNL     1      35.671 -23.388 -14.219  0.00  0.00    +0.056 C 
ATOM      9  C   UNL     1      35.501 -24.107 -13.043  0.00  0.00    -0.001 C 
ATOM     10  C   UNL     1      34.214 -24.462 -12.690  0.00  0.00    +0.095 C 
ENDROOT
BRANCH   3  11
ATOM     11  C   UNL     1      30.860 -23.462 -15.007  0.00  0.00    +0.033 C 
ATOM     12  C   UNL     1      29.791 -22.926 -15.721  0.00  0.00    +0.027 C 
ATOM     13  C   UNL     1      30.627 -24.347 -13.954  0.00  0.00    +0.003 C 
ATOM     14  C   UNL     1      28.483 -23.274 -15.382  0.00  0.00    +0.143 C 
ATOM     15  C   UNL     1      29.320 -24.695 -13.616  0.00  0.00    +0.002 C 
ATOM     16  C   UNL     1      28.248 -24.158 -14.328  0.00  0.00    +0.024 C 
BRANCH  14  19
ATOM     17  O   UNL     1      26.733 -23.483 -16.863  0.00  0.00    -0.126 OA
ATOM     18  O   UNL     1      27.123 -21.512 -15.970  0.00  0.00    -0.126 OA
ATOM     19  N   UNL     1      27.392 -22.728 -16.108  0.00  0.00    +0.058 N 
ENDBRANCH  14  19
ENDBRANCH   3  11
BRANCH   6  20
ATOM     20  C   UNL     1      33.593 -21.289 -18.141  0.00  0.00    +0.030 C 
ATOM     21  C   UNL     1      32.415 -20.855 -18.754  0.00  0.00    +0.003 C 
ATOM     22  C   UNL     1      34.826 -21.004 -18.732  0.00  0.00    +0.003 C 
ATOM     23  C   UNL     1      32.470 -20.138 -19.949  0.00  0.00    +0.007 C 
ATOM     24  C   UNL     1      34.881 -20.286 -19.927  0.00  0.00    +0.007 C 
ATOM     25  C   UNL     1      33.703 -19.854 -20.535  0.00  0.00    +0.075 C 
BRANCH  25  27
ATOM     26  O   UNL     1      32.823 -18.957 -22.571  0.00  0.00    -0.245 OA
ATOM     27  C   UNL     1      33.762 -19.107 -21.782  0.00  0.00    +0.338 C 
BRANCH  27  28
ATOM     28  O   UNL     1      34.990 -18.566 -22.008  0.00  0.00    -0.477 OA
ATOM     29  H   UNL     1      35.070 -17.661 -22.241  0.00  0.00    +0.295 HD
ENDBRANCH  27  28
ENDBRANCH  25  27
ENDBRANCH   6  20
TORSDOF 5
ENDMDL
MODEL 4
REMARK VINA RESULT:     -10.0      2.196      7.019
REMARK  Name = 9999276
REMARK  5 active torsions:
REMARK  status: ('A' for Active; 'I' for Inactive)
REMARK    1  A    between atoms: C_3  and  C_11
REMARK    2  A    between atoms: C_6  and  C_20
REMARK    3  A    between atoms: C_14  and  N_19
REMARK    4  A    between atoms: C_25  and  C_27
REMARK    5  A    between atoms: C_27  and  O_28
REMARK                            x       y       z     vdW  Elec       q    Type
REMARK                         _______ _______ _______ _____ _____    ______ ____
ROOT
ATOM      1  N   UNL     1      33.995 -22.828 -16.161  0.00  0.00    -0.400 NA
ATOM      2  N   UNL     1      30.394 -22.257 -16.349  0.00  0.00    -0.242 NA
ATOM      3  C   UNL     1      32.764 -22.417 -16.547  0.00  0.00    +0.149 C 
ATOM      4  C   UNL     1      31.578 -22.711 -15.893  0.00  0.00    +0.107 C 
ATOM      5  C   UNL     1      31.686 -23.503 -14.737  0.00  0.00    +0.005 C 
ATOM      6  C   UNL     1      34.052 -23.585 -15.047  0.00  0.00    +0.131 C 
ATOM      7  C   UNL     1      32.942 -23.948 -14.306  0.00  0.00    +0.030 C 
ATOM      8  C   UNL     1      30.509 -23.822 -14.047  0.00  0.00    +0.056 C 
ATOM      9  C   UNL     1      29.284 -23.359 -14.509  0.00  0.00    -0.001 C 
ATOM     10  C   UNL     1      29.281 -22.588 -15.654  0.00  0.00    +0.095 C 
ENDROOT
BRANCH   3  11
ATOM     11  C   UNL     1      32.783 -21.609 -17.749  0.00  0.00    +0.033 C 
ATOM     12  C   UNL     1      33.991 -21.108 -18.231  0.00  0.00    +0.027 C 
ATOM     13  C   UNL     1      31.592 -21.332 -18.420  0.00  0.00    +0.003 C 
ATOM     14  C   UNL     1      34.009 -20.330 -19.388  0.00  0.00    +0.143 C 
ATOM     15  C   UNL     1      31.611 -20.554 -19.577  0.00  0.00    +0.002 C 
ATOM     16  C   UNL     1      32.819 -20.052 -20.061  0.00  0.00    +0.024 C 
BRANCH  14  19
ATOM     17  O   UNL     1      36.263 -19.917 -19.164  0.00  0.00    -0.126 OA
ATOM     18  O   UNL     1      35.260 -19.289 -21.016  0.00  0.00    -0.126 OA
ATOM     19  N   UNL     1      35.239 -19.819 -19.881  0.00  0.00    +0.058 N 
ENDBRANCH  14  19
ENDBRANCH   3  11
BRANCH   6  20
ATOM     20  C   UNL     1      35.378 -24.008 -14.663  0.00  0.00    +0.030 C 
ATOM     21  C   UNL     1      35.582 -25.287 -14.141  0.00  0.00    +0.003 C 
ATOM     22  C   UNL     1      36.461 -23.138 -14.810  0.00  0.00    +0.003 C 
ATOM     23  C   UNL     1      36.863 -25.696 -13.770  0.00  0.00    +0.007 C 
ATOM     24  C   UNL     1      37.742 -23.547 -14.438  0.00  0.00    +0.007 C 
ATOM     25  C   UNL     1      37.943 -24.825 -13.919  0.00  0.00    +0.075 C 
BRANCH  25  27
ATOM     26  O   UNL     1      39.561 -26.329 -12.999  0.00  0.00    -0.245 OA
ATOM     27  C   UNL     1      39.279 -25.250 -13.532  0.00  0.00    +0.338 C 
BRANCH  27  28
ATOM     28  O   UNL     1      40.227 -24.317 -13.821  0.00  0.00    -0.477 OA
ATOM     29  H   UNL     1      39.986 -23.415 -13.908  0.00  0.00    +0.295 HD
ENDBRANCH  27  28
ENDBRANCH  25  27
ENDBRANCH   6  20
TORSDOF 5
ENDMDL
