MODEL 1
REMARK VINA RESULT:     -12.6      0.000      0.000
REMARK  Name = 11167602
REMARK  6 active torsions:
REMARK  status: ('A' for Active; 'I' for Inactive)
REMARK    1  A    between atoms: C_2  and  N_10
REMARK    2  A    between atoms: C_3  and  O_25
REMARK    3  A    between atoms: N_9  and  C_15
REMARK    4  A    between atoms: C_16  and  C_24
REMARK    5  A    between atoms: O_25  and  C_27
REMARK    6  A    between atoms: C_29  and  C_34
REMARK                            x       y       z     vdW  Elec       q    Type
REMARK                         _______ _______ _______ _____ _____    ______ ____
ROOT
ATOM      1  F   UNL     1      33.009 -13.705 -25.184  0.00  0.00    -0.203 F 
ATOM      2  C   UNL     1      33.794 -13.722 -22.943  0.00  0.00    +0.079 C 
ATOM      3  C   UNL     1      34.695 -16.317 -23.300  0.00  0.00    +0.148 C 
ATOM      4  C   UNL     1      33.612 -14.340 -24.169  0.00  0.00    +0.157 C 
ATOM      5  C   UNL     1      34.419 -14.374 -21.892  0.00  0.00    +0.020 C 
ATOM      6  C   UNL     1      34.066 -15.646 -24.349  0.00  0.00    +0.068 C 
ATOM      7  C   UNL     1      34.871 -15.681 -22.071  0.00  0.00    +0.039 C 
ENDROOT
BRANCH   2  10
ATOM      8  O   UNL     1      34.749 -11.165 -24.156  0.00  0.00    -0.252 OA
ATOM      9  N   UNL     1      33.084 -10.104 -22.896  0.00  0.00    -0.268 N 
ATOM     10  N   UNL     1      33.337 -12.396 -22.758  0.00  0.00    -0.266 N 
ATOM     11  C   UNL     1      33.823 -11.222 -23.354  0.00  0.00    +0.308 C 
ATOM     12  H   UNL     1      32.366 -10.302 -22.252  0.00  0.00    +0.156 HD
ATOM     13  H   UNL     1      32.584 -12.283 -22.132  0.00  0.00    +0.156 HD
BRANCH   9  15
ATOM     14 CL   UNL     1      33.775  -4.416 -24.349  0.00  0.00    -0.082 Cl
ATOM     15  C   UNL     1      33.238  -8.760 -23.236  0.00  0.00    +0.052 C 
ATOM     16  C   UNL     1      32.389  -6.498 -23.265  0.00  0.00    +0.083 C 
ATOM     17  C   UNL     1      32.234  -7.842 -22.925  0.00  0.00    +0.019 C 
ATOM     18  C   UNL     1      34.396  -8.334 -23.886  0.00  0.00    +0.016 C 
ATOM     19  C   UNL     1      33.548  -6.072 -23.914  0.00  0.00    +0.062 C 
ATOM     20  C   UNL     1      34.550  -6.990 -24.225  0.00  0.00    +0.013 C 
BRANCH  16  24
ATOM     21  F   UNL     1      30.268  -6.127 -22.223  0.00  0.00    -0.166 F 
ATOM     22  F   UNL     1      31.705  -4.504 -22.133  0.00  0.00    -0.166 F 
ATOM     23  F   UNL     1      30.720  -4.980 -24.014  0.00  0.00    -0.166 F 
ATOM     24  C   UNL     1      31.292  -5.546 -22.913  0.00  0.00    +0.419 C 
ENDBRANCH  16  24
ENDBRANCH   9  15
ENDBRANCH   2  10
BRANCH   3  25
ATOM     25  O   UNL     1      35.138 -17.592 -23.475  0.00  0.00    -0.453 OA
BRANCH  25  27
ATOM     26  N   UNL     1      35.916 -19.853 -20.076  0.00  0.00    -0.239 NA
ATOM     27  C   UNL     1      35.396 -18.345 -22.342  0.00  0.00    +0.149 C 
ATOM     28  C   UNL     1      34.372 -19.060 -21.759  0.00  0.00    +0.061 C 
ATOM     29  C   UNL     1      34.683 -19.799 -20.628  0.00  0.00    +0.137 C 
ATOM     30  C   UNL     1      36.673 -18.363 -21.822  0.00  0.00    +0.058 C 
ATOM     31  C   UNL     1      36.881 -19.131 -20.689  0.00  0.00    +0.102 C 
BRANCH  29  34
ATOM     32  O   UNL     1      32.471 -20.515 -20.329  0.00  0.00    -0.268 OA
ATOM     33  N   UNL     1      34.071 -21.407 -18.907  0.00  0.00    -0.298 N 
ATOM     34  C   UNL     1      33.657 -20.579 -19.958  0.00  0.00    +0.264 C 
ATOM     35  C   UNL     1      33.176 -22.259 -18.160  0.00  0.00    +0.111 C 
ATOM     36  H   UNL     1      35.025 -21.408 -18.664  0.00  0.00    +0.150 HD
ENDBRANCH  29  34
ENDBRANCH  25  27
ENDBRANCH   3  25
TORSDOF 6
ENDMDL
MODEL 2
REMARK VINA RESULT:     -12.2      2.324      3.429
REMARK  Name = 11167602
REMARK  6 active torsions:
REMARK  status: ('A' for Active; 'I' for Inactive)
REMARK    1  A    between atoms: C_2  and  N_10
REMARK    2  A    between atoms: C_3  and  O_25
REMARK    3  A    between atoms: N_9  and  C_15
REMARK    4  A    between atoms: C_16  and  C_24
REMARK    5  A    between atoms: O_25  and  C_27
REMARK    6  A    between atoms: C_29  and  C_34
REMARK                            x       y       z     vdW  Elec       q    Type
REMARK                         _______ _______ _______ _____ _____    ______ ____
ROOT
ATOM      1  F   UNL     1      34.197 -17.526 -24.787  0.00  0.00    -0.203 F 
ATOM      2  C   UNL     1      34.821 -16.352 -22.820  0.00  0.00    +0.079 C 
ATOM      3  C   UNL     1      35.430 -18.763 -21.599  0.00  0.00    +0.148 C 
ATOM      4  C   UNL     1      34.650 -17.532 -23.526  0.00  0.00    +0.157 C 
ATOM      5  C   UNL     1      35.291 -16.353 -21.516  0.00  0.00    +0.020 C 
ATOM      6  C   UNL     1      34.957 -18.745 -22.912  0.00  0.00    +0.068 C 
ATOM      7  C   UNL     1      35.596 -17.567 -20.902  0.00  0.00    +0.039 C 
ENDROOT
BRANCH   2  10
ATOM      8  O   UNL     1      34.622 -13.606 -21.661  0.00  0.00    -0.252 OA
ATOM      9  N   UNL     1      34.093 -12.880 -23.825  0.00  0.00    -0.268 N 
ATOM     10  N   UNL     1      34.512 -15.119 -23.441  0.00  0.00    -0.266 N 
ATOM     11  C   UNL     1      34.430 -13.849 -22.848  0.00  0.00    +0.308 C 
ATOM     12  H   UNL     1      33.970 -13.222 -24.740  0.00  0.00    +0.156 HD
ATOM     13  H   UNL     1      34.331 -15.157 -24.408  0.00  0.00    +0.156 HD
BRANCH   9  15
ATOM     14 CL   UNL     1      33.366  -7.052 -23.158  0.00  0.00    -0.082 Cl
ATOM     15  C   UNL     1      33.913 -11.506 -23.662  0.00  0.00    +0.052 C 
ATOM     16  C   UNL     1      32.696  -9.654 -22.700  0.00  0.00    +0.083 C 
ATOM     17  C   UNL     1      32.875 -11.028 -22.862  0.00  0.00    +0.019 C 
ATOM     18  C   UNL     1      34.771 -10.611 -24.300  0.00  0.00    +0.016 C 
ATOM     19  C   UNL     1      33.555  -8.759 -23.337  0.00  0.00    +0.062 C 
ATOM     20  C   UNL     1      34.592  -9.237 -24.137  0.00  0.00    +0.013 C 
BRANCH  16  24
ATOM     21  F   UNL     1      30.787 -10.193 -21.364  0.00  0.00    -0.166 F 
ATOM     22  F   UNL     1      31.992  -8.508 -20.722  0.00  0.00    -0.166 F 
ATOM     23  F   UNL     1      30.732  -8.332 -22.486  0.00  0.00    -0.166 F 
ATOM     24  C   UNL     1      31.574  -9.183 -21.832  0.00  0.00    +0.419 C 
ENDBRANCH  16  24
ENDBRANCH   9  15
ENDBRANCH   2  10
BRANCH   3  25
ATOM     25  O   UNL     1      35.730 -19.948 -20.999  0.00  0.00    -0.453 OA
BRANCH  25  27
ATOM     26  N   UNL     1      32.868 -21.614 -18.488  0.00  0.00    -0.239 NA
ATOM     27  C   UNL     1      34.777 -20.504 -20.163  0.00  0.00    +0.149 C 
ATOM     28  C   UNL     1      35.182 -21.306 -19.118  0.00  0.00    +0.061 C 
ATOM     29  C   UNL     1      34.190 -21.837 -18.309  0.00  0.00    +0.137 C 
ATOM     30  C   UNL     1      33.443 -20.243 -20.394  0.00  0.00    +0.058 C 
ATOM     31  C   UNL     1      32.529 -20.822 -19.529  0.00  0.00    +0.102 C 
BRANCH  29  34
ATOM     32  O   UNL     1      33.838 -23.681 -16.904  0.00  0.00    -0.268 OA
ATOM     33  N   UNL     1      35.695 -22.360 -16.469  0.00  0.00    -0.298 N 
ATOM     34  C   UNL     1      34.538 -22.691 -17.187  0.00  0.00    +0.264 C 
ATOM     35  C   UNL     1      36.184 -23.124 -15.345  0.00  0.00    +0.111 C 
ATOM     36  H   UNL     1      36.201 -21.563 -16.746  0.00  0.00    +0.150 HD
ENDBRANCH  29  34
ENDBRANCH  25  27
ENDBRANCH   3  25
TORSDOF 6
ENDMDL
MODEL 3
REMARK VINA RESULT:     -12.0      1.662      2.241
REMARK  Name = 11167602
REMARK  6 active torsions:
REMARK  status: ('A' for Active; 'I' for Inactive)
REMARK    1  A    between atoms: C_2  and  N_10
REMARK    2  A    between atoms: C_3  and  O_25
REMARK    3  A    between atoms: N_9  and  C_15
REMARK    4  A    between atoms: C_16  and  C_24
REMARK    5  A    between atoms: O_25  and  C_27
REMARK    6  A    between atoms: C_29  and  C_34
REMARK                            x       y       z     vdW  Elec       q    Type
REMARK                         _______ _______ _______ _____ _____    ______ ____
ROOT
ATOM      1  F   UNL     1      34.266 -13.809 -20.546  0.00  0.00    -0.203 F 
ATOM      2  C   UNL     1      33.497 -13.860 -22.792  0.00  0.00    +0.079 C 
ATOM      3  C   UNL     1      34.828 -16.259 -23.171  0.00  0.00    +0.148 C 
ATOM      4  C   UNL     1      34.210 -14.413 -21.740  0.00  0.00    +0.157 C 
ATOM      5  C   UNL     1      33.434 -14.482 -24.028  0.00  0.00    +0.020 C 
ATOM      6  C   UNL     1      34.880 -15.621 -21.931  0.00  0.00    +0.068 C 
ATOM      7  C   UNL     1      34.106 -15.690 -24.219  0.00  0.00    +0.039 C 
ENDROOT
BRANCH   2  10
ATOM      8  O   UNL     1      34.447 -11.049 -23.137  0.00  0.00    -0.252 OA
ATOM      9  N   UNL     1      32.298 -10.387 -22.479  0.00  0.00    -0.268 N 
ATOM     10  N   UNL     1      32.815 -12.635 -22.601  0.00  0.00    -0.266 N 
ATOM     11  C   UNL     1      33.309 -11.333 -22.777  0.00  0.00    +0.308 C 
ATOM     12  H   UNL     1      31.431 -10.762 -22.203  0.00  0.00    +0.156 HD
ATOM     13  H   UNL     1      31.877 -12.705 -22.308  0.00  0.00    +0.156 HD
BRANCH   9  15
ATOM     14 CL   UNL     1      32.564  -4.484 -22.648  0.00  0.00    -0.082 Cl
ATOM     15  C   UNL     1      32.369  -8.994 -22.525  0.00  0.00    +0.052 C 
ATOM     16  C   UNL     1      33.305  -6.976 -23.467  0.00  0.00    +0.083 C 
ATOM     17  C   UNL     1      33.236  -8.369 -23.421  0.00  0.00    +0.019 C 
ATOM     18  C   UNL     1      31.572  -8.228 -21.675  0.00  0.00    +0.016 C 
ATOM     19  C   UNL     1      32.507  -6.210 -22.618  0.00  0.00    +0.062 C 
ATOM     20  C   UNL     1      31.641  -6.835 -21.722  0.00  0.00    +0.013 C 
BRANCH  16  24
ATOM     21  F   UNL     1      35.151  -5.507 -23.862  0.00  0.00    -0.166 F 
ATOM     22  F   UNL     1      34.988  -7.248 -25.145  0.00  0.00    -0.166 F 
ATOM     23  F   UNL     1      33.596  -5.594 -25.379  0.00  0.00    -0.166 F 
ATOM     24  C   UNL     1      34.244  -6.345 -24.443  0.00  0.00    +0.419 C 
ENDBRANCH  16  24
ENDBRANCH   9  15
ENDBRANCH   2  10
BRANCH   3  25
ATOM     25  O   UNL     1      35.482 -17.439 -23.357  0.00  0.00    -0.453 OA
BRANCH  25  27
ATOM     26  N   UNL     1      36.112 -19.848 -20.030  0.00  0.00    -0.239 NA
ATOM     27  C   UNL     1      35.691 -18.241 -22.248  0.00  0.00    +0.149 C 
ATOM     28  C   UNL     1      34.634 -18.950 -21.720  0.00  0.00    +0.061 C 
ATOM     29  C   UNL     1      34.896 -19.740 -20.611  0.00  0.00    +0.137 C 
ATOM     30  C   UNL     1      36.953 -18.312 -21.698  0.00  0.00    +0.058 C 
ATOM     31  C   UNL     1      37.111 -19.129 -20.590  0.00  0.00    +0.102 C 
BRANCH  29  34
ATOM     32  O   UNL     1      32.658 -20.405 -20.394  0.00  0.00    -0.268 OA
ATOM     33  N   UNL     1      34.199 -21.400 -18.974  0.00  0.00    -0.298 N 
ATOM     34  C   UNL     1      33.833 -20.517 -19.998  0.00  0.00    +0.264 C 
ATOM     35  C   UNL     1      33.262 -22.256 -18.284  0.00  0.00    +0.111 C 
ATOM     36  H   UNL     1      35.146 -21.438 -18.709  0.00  0.00    +0.150 HD
ENDBRANCH  29  34
ENDBRANCH  25  27
ENDBRANCH   3  25
TORSDOF 6
ENDMDL
MODEL 4
REMARK VINA RESULT:     -12.0      2.579      3.644
REMARK  Name = 11167602
REMARK  6 active torsions:
REMARK  status: ('A' for Active; 'I' for Inactive)
REMARK    1  A    between atoms: C_2  and  N_10
REMARK    2  A    between atoms: C_3  and  O_25
REMARK    3  A    between atoms: N_9  and  C_15
REMARK    4  A    between atoms: C_16  and  C_24
REMARK    5  A    between atoms: O_25  and  C_27
REMARK    6  A    between atoms: C_29  and  C_34
REMARK                            x       y       z     vdW  Elec       q    Type
REMARK                         _______ _______ _______ _____ _____    ______ ____
ROOT
ATOM      1  F   UNL     1      34.306 -17.080 -24.757  0.00  0.00    -0.203 F 
ATOM      2  C   UNL     1      34.869 -16.177 -22.634  0.00  0.00    +0.079 C 
ATOM      3  C   UNL     1      35.456 -18.728 -21.728  0.00  0.00    +0.148 C 
ATOM      4  C   UNL     1      34.724 -17.253 -23.496  0.00  0.00    +0.157 C 
ATOM      5  C   UNL     1      35.303 -16.351 -21.330  0.00  0.00    +0.020 C 
ATOM      6  C   UNL     1      35.019 -18.537 -23.039  0.00  0.00    +0.068 C 
ATOM      7  C   UNL     1      35.597 -17.635 -20.874  0.00  0.00    +0.039 C 
ENDROOT
BRANCH   2  10
ATOM      8  O   UNL     1      33.676 -13.849 -21.193  0.00  0.00    -0.252 OA
ATOM      9  N   UNL     1      33.876 -12.673 -23.209  0.00  0.00    -0.268 N 
ATOM     10  N   UNL     1      34.572 -14.873 -23.095  0.00  0.00    -0.266 N 
ATOM     11  C   UNL     1      34.008 -13.809 -22.373  0.00  0.00    +0.308 C 
ATOM     12  H   UNL     1      34.185 -12.788 -24.137  0.00  0.00    +0.156 HD
ATOM     13  H   UNL     1      34.787 -14.689 -24.038  0.00  0.00    +0.156 HD
BRANCH   9  15
ATOM     14 CL   UNL     1      31.682  -7.355 -21.850  0.00  0.00    -0.082 Cl
ATOM     15  C   UNL     1      33.366 -11.414 -22.893  0.00  0.00    +0.052 C 
ATOM     16  C   UNL     1      33.493  -9.006 -23.043  0.00  0.00    +0.083 C 
ATOM     17  C   UNL     1      34.005 -10.265 -23.360  0.00  0.00    +0.019 C 
ATOM     18  C   UNL     1      32.217 -11.304 -22.109  0.00  0.00    +0.016 C 
ATOM     19  C   UNL     1      32.344  -8.897 -22.261  0.00  0.00    +0.062 C 
ATOM     20  C   UNL     1      31.707 -10.045 -21.793  0.00  0.00    +0.013 C 
BRANCH  16  24
ATOM     21  F   UNL     1      34.988  -7.184 -22.633  0.00  0.00    -0.166 F 
ATOM     22  F   UNL     1      35.038  -8.071 -24.612  0.00  0.00    -0.166 F 
ATOM     23  F   UNL     1      33.345  -6.842 -24.016  0.00  0.00    -0.166 F 
ATOM     24  C   UNL     1      34.205  -7.800 -23.565  0.00  0.00    +0.419 C 
ENDBRANCH  16  24
ENDBRANCH   9  15
ENDBRANCH   2  10
BRANCH   3  25
ATOM     25  O   UNL     1      35.744 -19.982 -21.283  0.00  0.00    -0.453 OA
BRANCH  25  27
ATOM     26  N   UNL     1      33.265 -21.611 -18.372  0.00  0.00    -0.239 NA
ATOM     27  C   UNL     1      34.919 -20.526 -20.313  0.00  0.00    +0.149 C 
ATOM     28  C   UNL     1      35.480 -21.198 -19.249  0.00  0.00    +0.061 C 
ATOM     29  C   UNL     1      34.611 -21.722 -18.305  0.00  0.00    +0.137 C 
ATOM     30  C   UNL     1      33.553 -20.381 -20.434  0.00  0.00    +0.058 C 
ATOM     31  C   UNL     1      32.770 -20.942 -19.438  0.00  0.00    +0.102 C 
BRANCH  29  34
ATOM     32  O   UNL     1      34.458 -23.350 -16.625  0.00  0.00    -0.268 OA
ATOM     33  N   UNL     1      36.401 -22.086 -16.697  0.00  0.00    -0.298 N 
ATOM     34  C   UNL     1      35.127 -22.443 -17.155  0.00  0.00    +0.264 C 
ATOM     35  C   UNL     1      37.059 -22.725 -15.581  0.00  0.00    +0.111 C 
ATOM     36  H   UNL     1      36.874 -21.358 -17.162  0.00  0.00    +0.150 HD
ENDBRANCH  29  34
ENDBRANCH  25  27
ENDBRANCH   3  25
TORSDOF 6
ENDMDL
MODEL 5
REMARK VINA RESULT:     -11.7      7.823     13.231
REMARK  Name = 11167602
REMARK  6 active torsions:
REMARK  status: ('A' for Active; 'I' for Inactive)
REMARK    1  A    between atoms: C_2  and  N_10
REMARK    2  A    between atoms: C_3  and  O_25
REMARK    3  A    between atoms: N_9  and  C_15
REMARK    4  A    between atoms: C_16  and  C_24
REMARK    5  A    between atoms: O_25  and  C_27
REMARK    6  A    between atoms: C_29  and  C_34
REMARK                            x       y       z     vdW  Elec       q    Type
REMARK                         _______ _______ _______ _____ _____    ______ ____
ROOT
ATOM      1  F   UNL     1      37.191 -21.521 -18.334  0.00  0.00    -0.203 F 
ATOM      2  C   UNL     1      34.934 -21.160 -18.978  0.00  0.00    +0.079 C 
ATOM      3  C   UNL     1      35.804 -19.511 -21.026  0.00  0.00    +0.148 C 
ATOM      4  C   UNL     1      36.292 -20.946 -19.144  0.00  0.00    +0.157 C 
ATOM      5  C   UNL     1      34.002 -20.569 -19.815  0.00  0.00    +0.020 C 
ATOM      6  C   UNL     1      36.730 -20.115 -20.176  0.00  0.00    +0.068 C 
ATOM      7  C   UNL     1      34.440 -19.737 -20.846  0.00  0.00    +0.039 C 
ENDROOT
BRANCH   2  10
ATOM      8  O   UNL     1      32.160 -21.813 -18.082  0.00  0.00    -0.252 OA
ATOM      9  N   UNL     1      33.153 -23.175 -16.455  0.00  0.00    -0.268 N 
ATOM     10  N   UNL     1      34.486 -22.003 -17.933  0.00  0.00    -0.266 N 
ATOM     11  C   UNL     1      33.164 -22.277 -17.550  0.00  0.00    +0.308 C 
ATOM     12  H   UNL     1      34.037 -23.465 -16.133  0.00  0.00    +0.156 HD
ATOM     13  H   UNL     1      35.189 -22.452 -17.411  0.00  0.00    +0.156 HD
BRANCH   9  15
ATOM     14 CL   UNL     1      28.535 -25.430 -13.535  0.00  0.00    -0.082 Cl
ATOM     15  C   UNL     1      32.057 -23.702 -15.772  0.00  0.00    +0.052 C 
ATOM     16  C   UNL     1      29.669 -23.991 -15.553  0.00  0.00    +0.083 C 
ATOM     17  C   UNL     1      30.764 -23.463 -16.237  0.00  0.00    +0.019 C 
ATOM     18  C   UNL     1      32.255 -24.469 -14.623  0.00  0.00    +0.016 C 
ATOM     19  C   UNL     1      29.866 -24.758 -14.406  0.00  0.00    +0.062 C 
ATOM     20  C   UNL     1      31.159 -24.997 -13.940  0.00  0.00    +0.013 C 
BRANCH  16  24
ATOM     21  F   UNL     1      27.714 -24.797 -16.673  0.00  0.00    -0.166 F 
ATOM     22  F   UNL     1      27.417 -23.302 -15.130  0.00  0.00    -0.166 F 
ATOM     23  F   UNL     1      28.299 -22.735 -17.035  0.00  0.00    -0.166 F 
ATOM     24  C   UNL     1      28.300 -23.714 -16.086  0.00  0.00    +0.419 C 
ENDBRANCH  16  24
ENDBRANCH   9  15
ENDBRANCH   2  10
BRANCH   3  25
ATOM     25  O   UNL     1      36.232 -18.700 -22.033  0.00  0.00    -0.453 OA
BRANCH  25  27
ATOM     26  N   UNL     1      33.405 -17.361 -24.769  0.00  0.00    -0.239 NA
ATOM     27  C   UNL     1      35.290 -18.254 -22.943  0.00  0.00    +0.149 C 
ATOM     28  C   UNL     1      35.123 -16.899 -23.132  0.00  0.00    +0.061 C 
ATOM     29  C   UNL     1      34.168 -16.503 -24.055  0.00  0.00    +0.137 C 
ATOM     30  C   UNL     1      34.539 -19.175 -23.643  0.00  0.00    +0.058 C 
ATOM     31  C   UNL     1      33.611 -18.678 -24.542  0.00  0.00    +0.102 C 
BRANCH  29  34
ATOM     32  O   UNL     1      33.719 -14.685 -25.465  0.00  0.00    -0.268 OA
ATOM     33  N   UNL     1      33.943 -14.235 -23.201  0.00  0.00    -0.298 N 
ATOM     34  C   UNL     1      33.935 -15.092 -24.309  0.00  0.00    +0.264 C 
ATOM     35  C   UNL     1      33.705 -12.813 -23.288  0.00  0.00    +0.111 C 
ATOM     36  H   UNL     1      34.122 -14.624 -22.315  0.00  0.00    +0.150 HD
ENDBRANCH  29  34
ENDBRANCH  25  27
ENDBRANCH   3  25
TORSDOF 6
ENDMDL
MODEL 6
REMARK VINA RESULT:     -11.7      6.511     12.116
REMARK  Name = 11167602
REMARK  6 active torsions:
REMARK  status: ('A' for Active; 'I' for Inactive)
REMARK    1  A    between atoms: C_2  and  N_10
REMARK    2  A    between atoms: C_3  and  O_25
REMARK    3  A    between atoms: N_9  and  C_15
REMARK    4  A    between atoms: C_16  and  C_24
REMARK    5  A    between atoms: O_25  and  C_27
REMARK    6  A    between atoms: C_29  and  C_34
REMARK                            x       y       z     vdW  Elec       q    Type
REMARK                         _______ _______ _______ _____ _____    ______ ____
ROOT
ATOM      1  F   UNL     1      34.199 -19.782 -23.920  0.00  0.00    -0.203 F 
ATOM      2  C   UNL     1      35.131 -18.109 -22.516  0.00  0.00    +0.079 C 
ATOM      3  C   UNL     1      34.251 -16.166 -24.283  0.00  0.00    +0.148 C 
ATOM      4  C   UNL     1      34.445 -18.491 -23.657  0.00  0.00    +0.157 C 
ATOM      5  C   UNL     1      35.385 -16.775 -22.239  0.00  0.00    +0.020 C 
ATOM      6  C   UNL     1      34.002 -17.513 -24.546  0.00  0.00    +0.068 C 
ATOM      7  C   UNL     1      34.944 -15.797 -23.130  0.00  0.00    +0.039 C 
ENDROOT
BRANCH   2  10
ATOM      8  O   UNL     1      33.735 -19.384 -20.204  0.00  0.00    -0.252 OA
ATOM      9  N   UNL     1      35.696 -20.624 -19.879  0.00  0.00    -0.268 N 
ATOM     10  N   UNL     1      35.581 -19.099 -21.610  0.00  0.00    -0.266 N 
ATOM     11  C   UNL     1      34.882 -19.668 -20.534  0.00  0.00    +0.308 C 
ATOM     12  H   UNL     1      36.597 -20.747 -20.257  0.00  0.00    +0.156 HD
ATOM     13  H   UNL     1      36.497 -19.429 -21.753  0.00  0.00    +0.156 HD
BRANCH   9  15
ATOM     14 CL   UNL     1      34.365 -23.976 -15.196  0.00  0.00    -0.082 Cl
ATOM     15  C   UNL     1      35.391 -21.414 -18.771  0.00  0.00    +0.052 C 
ATOM     16  C   UNL     1      36.042 -22.413 -16.669  0.00  0.00    +0.083 C 
ATOM     17  C   UNL     1      36.349 -21.622 -17.778  0.00  0.00    +0.019 C 
ATOM     18  C   UNL     1      34.129 -21.996 -18.656  0.00  0.00    +0.016 C 
ATOM     19  C   UNL     1      34.780 -22.993 -16.554  0.00  0.00    +0.062 C 
ATOM     20  C   UNL     1      33.823 -22.786 -17.547  0.00  0.00    +0.013 C 
BRANCH  16  24
ATOM     21  F   UNL     1      38.309 -22.094 -15.974  0.00  0.00    -0.166 F 
ATOM     22  F   UNL     1      36.789 -22.030 -14.429  0.00  0.00    -0.166 F 
ATOM     23  F   UNL     1      37.318 -23.926 -15.353  0.00  0.00    -0.166 F 
ATOM     24  C   UNL     1      37.095 -22.609 -15.626  0.00  0.00    +0.419 C 
ENDBRANCH  16  24
ENDBRANCH   9  15
ENDBRANCH   2  10
BRANCH   3  25
ATOM     25  O   UNL     1      33.819 -15.210 -25.151  0.00  0.00    -0.453 OA
BRANCH  25  27
ATOM     26  N   UNL     1      33.287 -11.361 -23.679  0.00  0.00    -0.239 NA
ATOM     27  C   UNL     1      33.641 -13.928 -24.661  0.00  0.00    +0.149 C 
ATOM     28  C   UNL     1      33.093 -13.755 -23.409  0.00  0.00    +0.061 C 
ATOM     29  C   UNL     1      32.937 -12.452 -22.962  0.00  0.00    +0.137 C 
ATOM     30  C   UNL     1      34.017 -12.852 -25.437  0.00  0.00    +0.058 C 
ATOM     31  C   UNL     1      33.819 -11.590 -24.901  0.00  0.00    +0.102 C 
BRANCH  29  34
ATOM     32  O   UNL     1      32.318 -13.088 -20.792  0.00  0.00    -0.268 OA
ATOM     33  N   UNL     1      31.904 -10.891 -21.408  0.00  0.00    -0.298 N 
ATOM     34  C   UNL     1      32.366 -12.189 -21.653  0.00  0.00    +0.264 C 
ATOM     35  C   UNL     1      31.333 -10.468 -20.150  0.00  0.00    +0.111 C 
ATOM     36  H   UNL     1      31.970 -10.229 -22.134  0.00  0.00    +0.150 HD
ENDBRANCH  29  34
ENDBRANCH  25  27
ENDBRANCH   3  25
TORSDOF 6
ENDMDL
MODEL 7
REMARK VINA RESULT:     -11.6      2.071      2.538
REMARK  Name = 11167602
REMARK  6 active torsions:
REMARK  status: ('A' for Active; 'I' for Inactive)
REMARK    1  A    between atoms: C_2  and  N_10
REMARK    2  A    between atoms: C_3  and  O_25
REMARK    3  A    between atoms: N_9  and  C_15
REMARK    4  A    between atoms: C_16  and  C_24
REMARK    5  A    between atoms: O_25  and  C_27
REMARK    6  A    between atoms: C_29  and  C_34
REMARK                            x       y       z     vdW  Elec       q    Type
REMARK                         _______ _______ _______ _____ _____    ______ ____
ROOT
ATOM      1  F   UNL     1      34.858 -13.674 -21.140  0.00  0.00    -0.203 F 
ATOM      2  C   UNL     1      34.219 -13.797 -23.423  0.00  0.00    +0.079 C 
ATOM      3  C   UNL     1      34.402 -16.559 -23.304  0.00  0.00    +0.148 C 
ATOM      4  C   UNL     1      34.589 -14.401 -22.233  0.00  0.00    +0.157 C 
ATOM      5  C   UNL     1      33.938 -14.545 -24.555  0.00  0.00    +0.020 C 
ATOM      6  C   UNL     1      34.681 -15.792 -22.173  0.00  0.00    +0.068 C 
ATOM      7  C   UNL     1      34.032 -15.935 -24.496  0.00  0.00    +0.039 C 
ENDROOT
BRANCH   2  10
ATOM      8  O   UNL     1      32.239 -11.941 -22.177  0.00  0.00    -0.252 OA
ATOM      9  N   UNL     1      33.431 -10.202 -23.198  0.00  0.00    -0.268 N 
ATOM     10  N   UNL     1      34.123 -12.387 -23.487  0.00  0.00    -0.266 N 
ATOM     11  C   UNL     1      33.167 -11.557 -22.880  0.00  0.00    +0.308 C 
ATOM     12  H   UNL     1      34.214 -10.044 -23.774  0.00  0.00    +0.156 HD
ATOM     13  H   UNL     1      34.811 -11.932 -24.024  0.00  0.00    +0.156 HD
BRANCH   9  15
ATOM     14 CL   UNL     1      30.445  -5.371 -21.561  0.00  0.00    -0.082 Cl
ATOM     15  C   UNL     1      32.730  -9.063 -22.803  0.00  0.00    +0.052 C 
ATOM     16  C   UNL     1      32.227  -7.388 -21.135  0.00  0.00    +0.083 C 
ATOM     17  C   UNL     1      32.929  -8.528 -21.529  0.00  0.00    +0.019 C 
ATOM     18  C   UNL     1      31.831  -8.458 -23.681  0.00  0.00    +0.016 C 
ATOM     19  C   UNL     1      31.329  -6.784 -22.014  0.00  0.00    +0.062 C 
ATOM     20  C   UNL     1      31.130  -7.319 -23.286  0.00  0.00    +0.013 C 
BRANCH  16  24
ATOM     21  F   UNL     1      32.338  -5.490 -19.684  0.00  0.00    -0.166 F 
ATOM     22  F   UNL     1      31.620  -7.346 -18.822  0.00  0.00    -0.166 F 
ATOM     23  F   UNL     1      33.727  -7.121 -19.310  0.00  0.00    -0.166 F 
ATOM     24  C   UNL     1      32.470  -6.846 -19.764  0.00  0.00    +0.419 C 
ENDBRANCH  16  24
ENDBRANCH   9  15
ENDBRANCH   2  10
BRANCH   3  25
ATOM     25  O   UNL     1      34.493 -17.916 -23.246  0.00  0.00    -0.453 OA
BRANCH  25  27
ATOM     26  N   UNL     1      36.723 -19.572 -20.156  0.00  0.00    -0.239 NA
ATOM     27  C   UNL     1      35.235 -18.468 -22.216  0.00  0.00    +0.149 C 
ATOM     28  C   UNL     1      34.660 -19.424 -21.408  0.00  0.00    +0.061 C 
ATOM     29  C   UNL     1      35.445 -19.947 -20.392  0.00  0.00    +0.137 C 
ATOM     30  C   UNL     1      36.534 -18.047 -22.022  0.00  0.00    +0.058 C 
ATOM     31  C   UNL     1      37.235 -18.630 -20.979  0.00  0.00    +0.102 C 
BRANCH  29  34
ATOM     32  O   UNL     1      35.665 -21.790 -18.961  0.00  0.00    -0.268 OA
ATOM     33  N   UNL     1      33.530 -20.936 -19.264  0.00  0.00    -0.298 N 
ATOM     34  C   UNL     1      34.910 -20.959 -19.499  0.00  0.00    +0.264 C 
ATOM     35  C   UNL     1      32.852 -21.861 -18.384  0.00  0.00    +0.111 C 
ATOM     36  H   UNL     1      32.991 -20.253 -19.724  0.00  0.00    +0.150 HD
ENDBRANCH  29  34
ENDBRANCH  25  27
ENDBRANCH   3  25
TORSDOF 6
ENDMDL
MODEL 8
REMARK VINA RESULT:     -11.4      7.898     14.194
REMARK  Name = 11167602
REMARK  6 active torsions:
REMARK  status: ('A' for Active; 'I' for Inactive)
REMARK    1  A    between atoms: C_2  and  N_10
REMARK    2  A    between atoms: C_3  and  O_25
REMARK    3  A    between atoms: N_9  and  C_15
REMARK    4  A    between atoms: C_16  and  C_24
REMARK    5  A    between atoms: O_25  and  C_27
REMARK    6  A    between atoms: C_29  and  C_34
REMARK                            x       y       z     vdW  Elec       q    Type
REMARK                         _______ _______ _______ _____ _____    ______ ____
ROOT
ATOM      1  F   UNL     1      33.179 -20.769 -19.655  0.00  0.00    -0.203 F 
ATOM      2  C   UNL     1      35.485 -21.020 -19.146  0.00  0.00    +0.079 C 
ATOM      3  C   UNL     1      36.101 -19.191 -21.133  0.00  0.00    +0.148 C 
ATOM      4  C   UNL     1      34.460 -20.451 -19.885  0.00  0.00    +0.157 C 
ATOM      5  C   UNL     1      36.811 -20.693 -19.379  0.00  0.00    +0.020 C 
ATOM      6  C   UNL     1      34.771 -19.530 -20.885  0.00  0.00    +0.068 C 
ATOM      7  C   UNL     1      37.121 -19.773 -20.381  0.00  0.00    +0.039 C 
ENDROOT
BRANCH   2  10
ATOM      8  O   UNL     1      36.765 -21.474 -16.486  0.00  0.00    -0.252 OA
ATOM      9  N   UNL     1      35.186 -23.175 -16.169  0.00  0.00    -0.268 N 
ATOM     10  N   UNL     1      35.174 -21.954 -18.130  0.00  0.00    -0.266 N 
ATOM     11  C   UNL     1      35.810 -22.128 -16.891  0.00  0.00    +0.308 C 
ATOM     12  H   UNL     1      34.428 -23.611 -16.621  0.00  0.00    +0.156 HD
ATOM     13  H   UNL     1      34.417 -22.557 -18.315  0.00  0.00    +0.156 HD
BRANCH   9  15
ATOM     14 CL   UNL     1      36.493 -25.253 -10.792  0.00  0.00    -0.082 Cl
ATOM     15  C   UNL     1      35.503 -23.669 -14.903  0.00  0.00    +0.052 C 
ATOM     16  C   UNL     1      37.076 -24.718 -13.400  0.00  0.00    +0.083 C 
ATOM     17  C   UNL     1      36.760 -24.225 -14.666  0.00  0.00    +0.019 C 
ATOM     18  C   UNL     1      34.562 -23.607 -13.876  0.00  0.00    +0.016 C 
ATOM     19  C   UNL     1      36.136 -24.655 -12.372  0.00  0.00    +0.062 C 
ATOM     20  C   UNL     1      34.879 -24.100 -12.610  0.00  0.00    +0.013 C 
BRANCH  16  24
ATOM     21  F   UNL     1      39.152 -24.673 -12.211  0.00  0.00    -0.166 F 
ATOM     22  F   UNL     1      38.410 -26.618 -12.821  0.00  0.00    -0.166 F 
ATOM     23  F   UNL     1      39.209 -25.246 -14.307  0.00  0.00    -0.166 F 
ATOM     24  C   UNL     1      38.435 -25.303 -13.186  0.00  0.00    +0.419 C 
ENDBRANCH  16  24
ENDBRANCH   9  15
ENDBRANCH   2  10
BRANCH   3  25
ATOM     25  O   UNL     1      36.404 -18.291 -22.109  0.00  0.00    -0.453 OA
BRANCH  25  27
ATOM     26  N   UNL     1      33.362 -17.162 -24.706  0.00  0.00    -0.239 NA
ATOM     27  C   UNL     1      35.390 -17.914 -22.973  0.00  0.00    +0.149 C 
ATOM     28  C   UNL     1      35.147 -16.575 -23.184  0.00  0.00    +0.061 C 
ATOM     29  C   UNL     1      34.122 -16.249 -24.059  0.00  0.00    +0.137 C 
ATOM     30  C   UNL     1      34.647 -18.889 -23.605  0.00  0.00    +0.058 C 
ATOM     31  C   UNL     1      33.645 -18.461 -24.460  0.00  0.00    +0.102 C 
BRANCH  29  34
ATOM     32  O   UNL     1      33.473 -14.498 -25.477  0.00  0.00    -0.268 OA
ATOM     33  N   UNL     1      33.873 -13.966 -23.255  0.00  0.00    -0.298 N 
ATOM     34  C   UNL     1      33.806 -14.858 -24.332  0.00  0.00    +0.264 C 
ATOM     35  C   UNL     1      33.565 -12.558 -23.362  0.00  0.00    +0.111 C 
ATOM     36  H   UNL     1      34.145 -14.317 -22.377  0.00  0.00    +0.150 HD
ENDBRANCH  29  34
ENDBRANCH  25  27
ENDBRANCH   3  25
TORSDOF 6
ENDMDL
MODEL 9
REMARK VINA RESULT:     -11.4      5.504      9.081
REMARK  Name = 11167602
REMARK  6 active torsions:
REMARK  status: ('A' for Active; 'I' for Inactive)
REMARK    1  A    between atoms: C_2  and  N_10
REMARK    2  A    between atoms: C_3  and  O_25
REMARK    3  A    between atoms: N_9  and  C_15
REMARK    4  A    between atoms: C_16  and  C_24
REMARK    5  A    between atoms: O_25  and  C_27
REMARK    6  A    between atoms: C_29  and  C_34
REMARK                            x       y       z     vdW  Elec       q    Type
REMARK                         _______ _______ _______ _____ _____    ______ ____
ROOT
ATOM      1  F   UNL     1      37.292 -20.826 -17.552  0.00  0.00    -0.203 F 
ATOM      2  C   UNL     1      35.330 -21.356 -18.779  0.00  0.00    +0.079 C 
ATOM      3  C   UNL     1      34.607 -23.159 -16.805  0.00  0.00    +0.148 C 
ATOM      4  C   UNL     1      36.154 -21.522 -17.678  0.00  0.00    +0.157 C 
ATOM      5  C   UNL     1      34.151 -22.072 -18.913  0.00  0.00    +0.020 C 
ATOM      6  C   UNL     1      35.790 -22.429 -16.684  0.00  0.00    +0.068 C 
ATOM      7  C   UNL     1      33.788 -22.981 -17.919  0.00  0.00    +0.039 C 
ENDROOT
BRANCH   2  10
ATOM      8  O   UNL     1      33.672 -19.363 -20.263  0.00  0.00    -0.252 OA
ATOM      9  N   UNL     1      35.636 -18.780 -21.400  0.00  0.00    -0.268 N 
ATOM     10  N   UNL     1      35.695 -20.435 -19.789  0.00  0.00    -0.266 N 
ATOM     11  C   UNL     1      34.873 -19.515 -20.459  0.00  0.00    +0.308 C 
ATOM     12  H   UNL     1      36.592 -19.010 -21.447  0.00  0.00    +0.156 HD
ATOM     13  H   UNL     1      36.643 -20.441 -20.055  0.00  0.00    +0.156 HD
BRANCH   9  15
ATOM     14 CL   UNL     1      33.845 -14.541 -25.110  0.00  0.00    -0.082 Cl
ATOM     15  C   UNL     1      35.212 -17.774 -22.268  0.00  0.00    +0.052 C 
ATOM     16  C   UNL     1      34.528 -15.488 -22.647  0.00  0.00    +0.083 C 
ATOM     17  C   UNL     1      34.952 -16.494 -21.778  0.00  0.00    +0.019 C 
ATOM     18  C   UNL     1      35.048 -18.048 -23.625  0.00  0.00    +0.016 C 
ATOM     19  C   UNL     1      34.366 -15.762 -24.004  0.00  0.00    +0.062 C 
ATOM     20  C   UNL     1      34.625 -17.041 -24.494  0.00  0.00    +0.013 C 
BRANCH  16  24
ATOM     21  F   UNL     1      34.903 -13.128 -22.751  0.00  0.00    -0.166 F 
ATOM     22  F   UNL     1      32.942 -13.783 -22.096  0.00  0.00    -0.166 F 
ATOM     23  F   UNL     1      34.660 -14.018 -20.783  0.00  0.00    -0.166 F 
ATOM     24  C   UNL     1      34.263 -14.129 -22.083  0.00  0.00    +0.419 C 
ENDBRANCH  16  24
ENDBRANCH   9  15
ENDBRANCH   2  10
BRANCH   3  25
ATOM     25  O   UNL     1      34.252 -24.046 -15.834  0.00  0.00    -0.453 OA
BRANCH  25  27
ATOM     26  N   UNL     1      30.818 -23.237 -13.639  0.00  0.00    -0.239 NA
ATOM     27  C   UNL     1      33.108 -23.775 -15.103  0.00  0.00    +0.149 C 
ATOM     28  C   UNL     1      31.958 -23.401 -15.764  0.00  0.00    +0.061 C 
ATOM     29  C   UNL     1      30.839 -23.143 -14.987  0.00  0.00    +0.137 C 
ATOM     30  C   UNL     1      33.144 -23.887 -13.729  0.00  0.00    +0.058 C 
ATOM     31  C   UNL     1      31.974 -23.607 -13.044  0.00  0.00    +0.102 C 
BRANCH  29  34
ATOM     32  O   UNL     1      29.556 -22.433 -16.817  0.00  0.00    -0.268 OA
ATOM     33  N   UNL     1      28.445 -22.747 -14.805  0.00  0.00    -0.298 N 
ATOM     34  C   UNL     1      29.590 -22.743 -15.612  0.00  0.00    +0.264 C 
ATOM     35  C   UNL     1      27.128 -22.398 -15.285  0.00  0.00    +0.111 C 
ATOM     36  H   UNL     1      28.543 -23.001 -13.860  0.00  0.00    +0.150 HD
ENDBRANCH  29  34
ENDBRANCH  25  27
ENDBRANCH   3  25
TORSDOF 6
ENDMDL
