MODEL 1
REMARK VINA RESULT:     -12.0      0.000      0.000
REMARK  Name = 71245288
REMARK  5 active torsions:
REMARK  status: ('A' for Active; 'I' for Inactive)
REMARK    1  A    between atoms: C_3  and  C_9
REMARK    2  A    between atoms: C_6  and  N_14
REMARK    3  A    between atoms: C_15  and  C_18
REMARK    4  A    between atoms: C_22  and  C_30
REMARK    5  A    between atoms: N_27  and  C_32
REMARK                            x       y       z     vdW  Elec       q    Type
REMARK                         _______ _______ _______ _____ _____    ______ ____
ROOT
ATOM      1  O   UNL     1      32.699 -21.629 -19.212  0.00  0.00    -0.270 OA
ATOM      2  N   UNL     1      34.315 -21.992 -17.549  0.00  0.00    -0.259 N 
ATOM      3  C   UNL     1      33.854 -21.498 -18.778  0.00  0.00    +0.253 C 
ATOM      4  H   UNL     1      35.259 -21.810 -17.341  0.00  0.00    +0.157 HD
ATOM      5  N   UNL     1      34.247 -23.103 -15.446  0.00  0.00    -0.388 NA
ATOM      6  C   UNL     1      33.523 -23.797 -14.540  0.00  0.00    +0.166 C 
ATOM      7  C   UNL     1      33.599 -22.722 -16.569  0.00  0.00    +0.167 C 
ATOM      8  C   UNL     1      32.186 -24.124 -14.702  0.00  0.00    +0.031 C 
ATOM      9  C   UNL     1      32.265 -22.999 -16.826  0.00  0.00    +0.101 C 
ATOM     10  C   UNL     1      31.553 -23.714 -15.870  0.00  0.00    -0.015 C 
ENDROOT
BRANCH   3  15
ATOM     11  F   UNL     1      36.608 -21.590 -18.238  0.00  0.00    -0.204 F 
ATOM     12  C   UNL     1      35.325 -19.255 -21.393  0.00  0.00    +0.046 C 
ATOM     13  C   UNL     1      36.683 -19.333 -21.086  0.00  0.00    -0.006 C 
ATOM     14  C   UNL     1      34.396 -19.966 -20.634  0.00  0.00    +0.021 C 
ATOM     15  C   UNL     1      34.825 -20.757 -19.567  0.00  0.00    +0.082 C 
ATOM     16  C   UNL     1      37.112 -20.122 -20.019  0.00  0.00    +0.027 C 
ATOM     17  C   UNL     1      37.705 -18.582 -21.878  0.00  0.00    +0.032 C 
ATOM     18  C   UNL     1      36.183 -20.834 -19.261  0.00  0.00    +0.144 C 
BRANCH  12  20
ATOM     19  N   UNL     1      33.894 -17.936 -24.365  0.00  0.00    -0.255 NA
ATOM     20  N   UNL     1      34.877 -18.477 -22.447  0.00  0.00    -0.282 N 
ATOM     21  C   UNL     1      34.438 -16.819 -23.782  0.00  0.00    +0.053 C 
ATOM     22  C   UNL     1      35.053 -17.129 -22.592  0.00  0.00    +0.134 C 
ATOM     23  C   UNL     1      34.175 -18.916 -23.536  0.00  0.00    +0.219 C 
BRANCH  21  24
ATOM     24  C   UNL     1      34.365 -15.419 -24.383  0.00  0.00    +0.037 C 
ATOM     25  C   UNL     1      34.579 -14.237 -23.484  0.00  0.00    +0.006 C 
ATOM     26  C   UNL     1      33.208 -14.537 -24.017  0.00  0.00    +0.006 C 
ENDBRANCH  21  24
ENDBRANCH  12  20
ENDBRANCH   3  15
BRANCH   6  30
ATOM     27  N   UNL     1      35.502 -24.720 -13.378  0.00  0.00    -0.252 N 
ATOM     28  N   UNL     1      33.830 -24.079 -12.119  0.00  0.00    -0.129 NA
ATOM     29  N   UNL     1      34.832 -24.562 -11.301  0.00  0.00    -0.128 NA
ATOM     30  C   UNL     1      34.250 -24.184 -13.360  0.00  0.00    +0.188 C 
ATOM     31  C   UNL     1      35.825 -24.940 -12.073  0.00  0.00    +0.192 C 
BRANCH  27  32
ATOM     32  C   UNL     1      36.333 -25.005 -14.522  0.00  0.00    +0.080 C 
ATOM     33  C   UNL     1      37.645 -24.217 -14.475  0.00  0.00    +0.022 C 
ATOM     34  C   UNL     1      36.602 -26.504 -14.663  0.00  0.00    +0.022 C 
ENDBRANCH  27  32
ENDBRANCH   6  30
TORSDOF 5
ENDMDL
MODEL 2
REMARK VINA RESULT:     -11.2      5.732     10.049
REMARK  Name = 71245288
REMARK  5 active torsions:
REMARK  status: ('A' for Active; 'I' for Inactive)
REMARK    1  A    between atoms: C_3  and  C_9
REMARK    2  A    between atoms: C_6  and  N_14
REMARK    3  A    between atoms: C_15  and  C_18
REMARK    4  A    between atoms: C_22  and  C_30
REMARK    5  A    between atoms: N_27  and  C_32
REMARK                            x       y       z     vdW  Elec       q    Type
REMARK                         _______ _______ _______ _____ _____    ______ ____
ROOT
ATOM      1  O   UNL     1      32.876 -13.213 -24.010  0.00  0.00    -0.270 OA
ATOM      2  N   UNL     1      33.818 -14.208 -22.104  0.00  0.00    -0.259 N 
ATOM      3  C   UNL     1      33.138 -13.196 -22.797  0.00  0.00    +0.253 C 
ATOM      4  H   UNL     1      33.952 -14.052 -21.142  0.00  0.00    +0.157 HD
ATOM      5  N   UNL     1      34.962 -16.264 -21.755  0.00  0.00    -0.388 NA
ATOM      6  C   UNL     1      35.441 -17.413 -22.282  0.00  0.00    +0.166 C 
ATOM      7  C   UNL     1      34.337 -15.425 -22.609  0.00  0.00    +0.167 C 
ATOM      8  C   UNL     1      35.323 -17.760 -23.619  0.00  0.00    +0.031 C 
ATOM      9  C   UNL     1      34.167 -15.680 -23.961  0.00  0.00    +0.101 C 
ATOM     10  C   UNL     1      34.673 -16.872 -24.468  0.00  0.00    -0.015 C 
ENDROOT
BRANCH   3  15
ATOM     11  F   UNL     1      32.278 -13.486 -20.139  0.00  0.00    -0.204 F 
ATOM     12  C   UNL     1      32.274  -9.695 -21.779  0.00  0.00    +0.046 C 
ATOM     13  C   UNL     1      31.855  -9.891 -20.462  0.00  0.00    -0.006 C 
ATOM     14  C   UNL     1      32.695 -10.782 -22.545  0.00  0.00    +0.021 C 
ATOM     15  C   UNL     1      32.698 -12.064 -21.995  0.00  0.00    +0.082 C 
ATOM     16  C   UNL     1      31.857 -11.172 -19.913  0.00  0.00    +0.027 C 
ATOM     17  C   UNL     1      31.397  -8.748 -19.614  0.00  0.00    +0.032 C 
ATOM     18  C   UNL     1      32.279 -12.259 -20.679  0.00  0.00    +0.144 C 
BRANCH  12  20
ATOM     19  N   UNL     1      31.512  -6.560 -23.263  0.00  0.00    -0.255 NA
ATOM     20  N   UNL     1      32.278  -8.431 -22.344  0.00  0.00    -0.282 N 
ATOM     21  C   UNL     1      32.878  -6.501 -23.141  0.00  0.00    +0.053 C 
ATOM     22  C   UNL     1      33.376  -7.650 -22.573  0.00  0.00    +0.134 C 
ATOM     23  C   UNL     1      31.183  -7.734 -22.773  0.00  0.00    +0.219 C 
BRANCH  21  24
ATOM     24  C   UNL     1      33.725  -5.311 -23.580  0.00  0.00    +0.037 C 
ATOM     25  C   UNL     1      33.528  -4.758 -24.962  0.00  0.00    +0.006 C 
ATOM     26  C   UNL     1      34.776  -5.524 -24.630  0.00  0.00    +0.006 C 
ENDBRANCH  21  24
ENDBRANCH  12  20
ENDBRANCH   3  15
BRANCH   6  30
ATOM     27  N   UNL     1      35.464 -19.237 -20.612  0.00  0.00    -0.252 N 
ATOM     28  N   UNL     1      37.381 -18.276 -21.047  0.00  0.00    -0.129 NA
ATOM     29  N   UNL     1      37.591 -19.259 -20.101  0.00  0.00    -0.128 NA
ATOM     30  C   UNL     1      36.100 -18.278 -21.340  0.00  0.00    +0.188 C 
ATOM     31  C   UNL     1      36.431 -19.824 -19.854  0.00  0.00    +0.192 C 
BRANCH  27  32
ATOM     32  C   UNL     1      34.062 -19.580 -20.623  0.00  0.00    +0.080 C 
ATOM     33  C   UNL     1      33.566 -19.874 -22.041  0.00  0.00    +0.022 C 
ATOM     34  C   UNL     1      33.763 -20.754 -19.688  0.00  0.00    +0.022 C 
ENDBRANCH  27  32
ENDBRANCH   6  30
TORSDOF 5
ENDMDL
MODEL 3
REMARK VINA RESULT:     -11.1      2.590     10.250
REMARK  Name = 71245288
REMARK  5 active torsions:
REMARK  status: ('A' for Active; 'I' for Inactive)
REMARK    1  A    between atoms: C_3  and  C_9
REMARK    2  A    between atoms: C_6  and  N_14
REMARK    3  A    between atoms: C_15  and  C_18
REMARK    4  A    between atoms: C_22  and  C_30
REMARK    5  A    between atoms: N_27  and  C_32
REMARK                            x       y       z     vdW  Elec       q    Type
REMARK                         _______ _______ _______ _____ _____    ______ ____
ROOT
ATOM      1  O   UNL     1      33.181 -23.530 -16.210  0.00  0.00    -0.270 OA
ATOM      2  N   UNL     1      35.112 -22.406 -16.929  0.00  0.00    -0.259 N 
ATOM      3  C   UNL     1      34.379 -23.238 -16.070  0.00  0.00    +0.253 C 
ATOM      4  H   UNL     1      36.056 -22.266 -16.686  0.00  0.00    +0.157 HD
ATOM      5  N   UNL     1      35.557 -20.980 -18.781  0.00  0.00    -0.388 NA
ATOM      6  C   UNL     1      35.091 -20.364 -19.890  0.00  0.00    +0.166 C 
ATOM      7  C   UNL     1      34.672 -21.740 -18.098  0.00  0.00    +0.167 C 
ATOM      8  C   UNL     1      33.787 -20.472 -20.346  0.00  0.00    +0.031 C 
ATOM      9  C   UNL     1      33.348 -21.912 -18.471  0.00  0.00    +0.101 C 
ATOM     10  C   UNL     1      32.905 -21.262 -19.618  0.00  0.00    -0.015 C 
ENDROOT
BRANCH   3  15
ATOM     11  F   UNL     1      33.340 -23.300 -13.462  0.00  0.00    -0.204 F 
ATOM     12  C   UNL     1      37.100 -24.887 -14.093  0.00  0.00    +0.046 C 
ATOM     13  C   UNL     1      36.541 -24.895 -12.815  0.00  0.00    -0.006 C 
ATOM     14  C   UNL     1      36.389 -24.342 -15.162  0.00  0.00    +0.021 C 
ATOM     15  C   UNL     1      35.118 -23.805 -14.953  0.00  0.00    +0.082 C 
ATOM     16  C   UNL     1      35.272 -24.358 -12.606  0.00  0.00    +0.027 C 
ATOM     17  C   UNL     1      37.277 -25.471 -11.647  0.00  0.00    +0.032 C 
ATOM     18  C   UNL     1      34.560 -23.813 -13.675  0.00  0.00    +0.144 C 
BRANCH  12  20
ATOM     19  N   UNL     1      40.556 -25.493 -14.646  0.00  0.00    -0.255 NA
ATOM     20  N   UNL     1      38.360 -25.415 -14.322  0.00  0.00    -0.282 N 
ATOM     21  C   UNL     1      40.028 -26.760 -14.681  0.00  0.00    +0.053 C 
ATOM     22  C   UNL     1      38.668 -26.737 -14.482  0.00  0.00    +0.134 C 
ATOM     23  C   UNL     1      39.525 -24.707 -14.428  0.00  0.00    +0.219 C 
BRANCH  21  24
ATOM     24  C   UNL     1      40.852 -28.023 -14.910  0.00  0.00    +0.037 C 
ATOM     25  C   UNL     1      40.637 -28.803 -16.174  0.00  0.00    +0.006 C 
ATOM     26  C   UNL     1      40.160 -29.353 -14.861  0.00  0.00    +0.006 C 
ENDBRANCH  21  24
ENDBRANCH  12  20
ENDBRANCH   3  15
BRANCH   6  30
ATOM     27  N   UNL     1      35.875 -19.049 -21.833  0.00  0.00    -0.252 N 
ATOM     28  N   UNL     1      37.250 -19.221 -20.140  0.00  0.00    -0.129 NA
ATOM     29  N   UNL     1      37.856 -18.459 -21.119  0.00  0.00    -0.128 NA
ATOM     30  C   UNL     1      36.064 -19.566 -20.587  0.00  0.00    +0.188 C 
ATOM     31  C   UNL     1      37.017 -18.367 -22.125  0.00  0.00    +0.192 C 
BRANCH  27  32
ATOM     32  C   UNL     1      34.718 -19.181 -22.685  0.00  0.00    +0.080 C 
ATOM     33  C   UNL     1      34.260 -17.824 -23.226  0.00  0.00    +0.022 C 
ATOM     34  C   UNL     1      34.970 -20.166 -23.829  0.00  0.00    +0.022 C 
ENDBRANCH  27  32
ENDBRANCH   6  30
TORSDOF 5
ENDMDL
MODEL 4
REMARK VINA RESULT:     -11.0      1.614     10.685
REMARK  Name = 71245288
REMARK  5 active torsions:
REMARK  status: ('A' for Active; 'I' for Inactive)
REMARK    1  A    between atoms: C_3  and  C_9
REMARK    2  A    between atoms: C_6  and  N_14
REMARK    3  A    between atoms: C_15  and  C_18
REMARK    4  A    between atoms: C_22  and  C_30
REMARK    5  A    between atoms: N_27  and  C_32
REMARK                            x       y       z     vdW  Elec       q    Type
REMARK                         _______ _______ _______ _____ _____    ______ ____
ROOT
ATOM      1  O   UNL     1      36.728 -21.455 -18.022  0.00  0.00    -0.270 OA
ATOM      2  N   UNL     1      34.942 -20.738 -19.366  0.00  0.00    -0.259 N 
ATOM      3  C   UNL     1      35.517 -21.430 -18.290  0.00  0.00    +0.253 C 
ATOM      4  H   UNL     1      33.965 -20.813 -19.450  0.00  0.00    +0.157 HD
ATOM      5  N   UNL     1      34.830 -19.363 -21.304  0.00  0.00    -0.388 NA
ATOM      6  C   UNL     1      35.488 -18.618 -22.219  0.00  0.00    +0.166 C 
ATOM      7  C   UNL     1      35.586 -19.946 -20.348  0.00  0.00    +0.167 C 
ATOM      8  C   UNL     1      36.861 -18.427 -22.221  0.00  0.00    +0.031 C 
ATOM      9  C   UNL     1      36.963 -19.817 -20.262  0.00  0.00    +0.101 C 
ATOM     10  C   UNL     1      37.605 -19.041 -21.221  0.00  0.00    -0.015 C 
ENDROOT
BRANCH   3  15
ATOM     11  F   UNL     1      32.824 -21.822 -18.984  0.00  0.00    -0.204 F 
ATOM     12  C   UNL     1      34.140 -23.341 -15.376  0.00  0.00    +0.046 C 
ATOM     13  C   UNL     1      32.811 -23.510 -15.765  0.00  0.00    -0.006 C 
ATOM     14  C   UNL     1      35.028 -22.657 -16.207  0.00  0.00    +0.021 C 
ATOM     15  C   UNL     1      34.588 -22.143 -17.426  0.00  0.00    +0.082 C 
ATOM     16  C   UNL     1      32.370 -22.995 -16.984  0.00  0.00    +0.027 C 
ATOM     17  C   UNL     1      31.833 -24.237 -14.899  0.00  0.00    +0.032 C 
ATOM     18  C   UNL     1      33.259 -22.312 -17.814  0.00  0.00    +0.144 C 
BRANCH  12  20
ATOM     19  N   UNL     1      34.634 -24.360 -12.010  0.00  0.00    -0.255 NA
ATOM     20  N   UNL     1      34.598 -23.844 -14.170  0.00  0.00    -0.282 N 
ATOM     21  C   UNL     1      35.788 -24.789 -12.617  0.00  0.00    +0.053 C 
ATOM     22  C   UNL     1      35.789 -24.480 -13.956  0.00  0.00    +0.134 C 
ATOM     23  C   UNL     1      33.939 -23.796 -12.972  0.00  0.00    +0.219 C 
BRANCH  21  24
ATOM     24  C   UNL     1      36.917 -25.513 -11.891  0.00  0.00    +0.037 C 
ATOM     25  C   UNL     1      38.293 -25.485 -12.490  0.00  0.00    +0.006 C 
ATOM     26  C   UNL     1      37.491 -26.754 -12.508  0.00  0.00    +0.006 C 
ENDBRANCH  21  24
ENDBRANCH  12  20
ENDBRANCH   3  15
BRANCH   6  30
ATOM     27  N   UNL     1      34.441 -16.675 -23.335  0.00  0.00    -0.252 N 
ATOM     28  N   UNL     1      33.972 -18.650 -24.152  0.00  0.00    -0.129 NA
ATOM     29  N   UNL     1      33.303 -17.700 -24.897  0.00  0.00    -0.128 NA
ATOM     30  C   UNL     1      34.648 -18.016 -23.221  0.00  0.00    +0.188 C 
ATOM     31  C   UNL     1      33.596 -16.523 -24.394  0.00  0.00    +0.192 C 
BRANCH  27  32
ATOM     32  C   UNL     1      34.989 -15.616 -22.523  0.00  0.00    +0.080 C 
ATOM     33  C   UNL     1      34.530 -14.238 -23.008  0.00  0.00    +0.022 C 
ATOM     34  C   UNL     1      34.654 -15.811 -21.043  0.00  0.00    +0.022 C 
ENDBRANCH  27  32
ENDBRANCH   6  30
TORSDOF 5
ENDMDL
MODEL 5
REMARK VINA RESULT:     -10.9      3.268     11.124
REMARK  Name = 71245288
REMARK  5 active torsions:
REMARK  status: ('A' for Active; 'I' for Inactive)
REMARK    1  A    between atoms: C_3  and  C_9
REMARK    2  A    between atoms: C_6  and  N_14
REMARK    3  A    between atoms: C_15  and  C_18
REMARK    4  A    between atoms: C_22  and  C_30
REMARK    5  A    between atoms: N_27  and  C_32
REMARK                            x       y       z     vdW  Elec       q    Type
REMARK                         _______ _______ _______ _____ _____    ______ ____
ROOT
ATOM      1  O   UNL     1      35.365 -18.395 -23.737  0.00  0.00    -0.270 OA
ATOM      2  N   UNL     1      34.715 -16.737 -22.208  0.00  0.00    -0.259 N 
ATOM      3  C   UNL     1      35.223 -17.992 -22.572  0.00  0.00    +0.253 C 
ATOM      4  H   UNL     1      34.661 -16.561 -21.241  0.00  0.00    +0.157 HD
ATOM      5  N   UNL     1      33.812 -14.553 -22.481  0.00  0.00    -0.388 NA
ATOM      6  C   UNL     1      33.396 -13.582 -23.324  0.00  0.00    +0.166 C 
ATOM      7  C   UNL     1      34.267 -15.690 -23.051  0.00  0.00    +0.167 C 
ATOM      8  C   UNL     1      33.415 -13.696 -24.706  0.00  0.00    +0.031 C 
ATOM      9  C   UNL     1      34.327 -15.902 -24.419  0.00  0.00    +0.101 C 
ATOM     10  C   UNL     1      33.891 -14.880 -25.255  0.00  0.00    -0.015 C 
ENDROOT
BRANCH   3  15
ATOM     11  F   UNL     1      37.906 -18.253 -21.784  0.00  0.00    -0.204 F 
ATOM     12  C   UNL     1      35.056 -20.413 -19.717  0.00  0.00    +0.046 C 
ATOM     13  C   UNL     1      36.402 -20.509 -19.363  0.00  0.00    -0.006 C 
ATOM     14  C   UNL     1      34.670 -19.586 -20.772  0.00  0.00    +0.021 C 
ATOM     15  C   UNL     1      35.629 -18.854 -21.472  0.00  0.00    +0.082 C 
ATOM     16  C   UNL     1      37.361 -19.779 -20.064  0.00  0.00    +0.027 C 
ATOM     17  C   UNL     1      36.850 -21.388 -18.239  0.00  0.00    +0.032 C 
ATOM     18  C   UNL     1      36.974 -18.951 -21.118  0.00  0.00    +0.144 C 
BRANCH  12  20
ATOM     19  N   UNL     1      32.077 -21.828 -18.397  0.00  0.00    -0.255 NA
ATOM     20  N   UNL     1      34.088 -21.130 -19.035  0.00  0.00    -0.282 N 
ATOM     21  C   UNL     1      33.052 -22.507 -17.711  0.00  0.00    +0.053 C 
ATOM     22  C   UNL     1      34.307 -22.092 -18.089  0.00  0.00    +0.134 C 
ATOM     23  C   UNL     1      32.734 -21.007 -19.186  0.00  0.00    +0.219 C 
BRANCH  21  24
ATOM     24  C   UNL     1      32.771 -23.581 -16.665  0.00  0.00    +0.037 C 
ATOM     25  C   UNL     1      31.637 -23.371 -15.704  0.00  0.00    +0.006 C 
ATOM     26  C   UNL     1      33.056 -23.277 -15.224  0.00  0.00    +0.006 C 
ENDBRANCH  21  24
ENDBRANCH  12  20
ENDBRANCH   3  15
BRANCH   6  30
ATOM     27  N   UNL     1      33.338 -11.132 -22.993  0.00  0.00    -0.252 N 
ATOM     28  N   UNL     1      32.029 -12.330 -21.713  0.00  0.00    -0.129 NA
ATOM     29  N   UNL     1      31.860 -10.999 -21.386  0.00  0.00    -0.128 NA
ATOM     30  C   UNL     1      32.918 -12.388 -22.678  0.00  0.00    +0.188 C 
ATOM     31  C   UNL     1      32.652 -10.297 -22.163  0.00  0.00    +0.192 C 
BRANCH  27  32
ATOM     32  C   UNL     1      34.302 -10.739 -23.992  0.00  0.00    +0.080 C 
ATOM     33  C   UNL     1      33.712 -10.810 -25.403  0.00  0.00    +0.022 C 
ATOM     34  C   UNL     1      34.870  -9.346 -23.709  0.00  0.00    +0.022 C 
ENDBRANCH  27  32
ENDBRANCH   6  30
TORSDOF 5
ENDMDL
MODEL 6
REMARK VINA RESULT:     -10.2      2.090      9.999
REMARK  Name = 71245288
REMARK  5 active torsions:
REMARK  status: ('A' for Active; 'I' for Inactive)
REMARK    1  A    between atoms: C_3  and  C_9
REMARK    2  A    between atoms: C_6  and  N_14
REMARK    3  A    between atoms: C_15  and  C_18
REMARK    4  A    between atoms: C_22  and  C_30
REMARK    5  A    between atoms: N_27  and  C_32
REMARK                            x       y       z     vdW  Elec       q    Type
REMARK                         _______ _______ _______ _____ _____    ______ ____
ROOT
ATOM      1  O   UNL     1      31.700 -22.732 -17.145  0.00  0.00    -0.270 OA
ATOM      2  N   UNL     1      33.850 -21.862 -17.502  0.00  0.00    -0.259 N 
ATOM      3  C   UNL     1      32.875 -22.567 -16.782  0.00  0.00    +0.253 C 
ATOM      4  H   UNL     1      34.741 -21.816 -17.084  0.00  0.00    +0.157 HD
ATOM      5  N   UNL     1      34.803 -20.582 -19.266  0.00  0.00    -0.388 NA
ATOM      6  C   UNL     1      34.631 -19.969 -20.459  0.00  0.00    +0.166 C 
ATOM      7  C   UNL     1      33.721 -21.206 -18.750  0.00  0.00    +0.167 C 
ATOM      8  C   UNL     1      33.434 -19.954 -21.157  0.00  0.00    +0.031 C 
ATOM      9  C   UNL     1      32.482 -21.248 -19.369  0.00  0.00    +0.101 C 
ATOM     10  C   UNL     1      32.344 -20.607 -20.595  0.00  0.00    -0.015 C 
ENDROOT
BRANCH   3  15
ATOM     11  F   UNL     1      31.406 -22.314 -14.402  0.00  0.00    -0.204 F 
ATOM     12  C   UNL     1      34.935 -24.456 -14.287  0.00  0.00    +0.046 C 
ATOM     13  C   UNL     1      34.170 -24.302 -13.130  0.00  0.00    -0.006 C 
ATOM     14  C   UNL     1      34.509 -23.885 -15.486  0.00  0.00    +0.021 C 
ATOM     15  C   UNL     1      33.317 -23.161 -15.529  0.00  0.00    +0.082 C 
ATOM     16  C   UNL     1      32.980 -23.577 -13.173  0.00  0.00    +0.027 C 
ATOM     17  C   UNL     1      34.599 -24.899 -11.828  0.00  0.00    +0.032 C 
ATOM     18  C   UNL     1      32.553 -23.007 -14.373  0.00  0.00    +0.144 C 
BRANCH  12  20
ATOM     19  N   UNL     1      37.546 -26.847 -14.571  0.00  0.00    -0.255 NA
ATOM     20  N   UNL     1      36.121 -25.171 -14.266  0.00  0.00    -0.282 N 
ATOM     21  C   UNL     1      38.184 -25.787 -13.978  0.00  0.00    +0.053 C 
ATOM     22  C   UNL     1      37.321 -24.735 -13.778  0.00  0.00    +0.134 C 
ATOM     23  C   UNL     1      36.305 -26.443 -14.731  0.00  0.00    +0.219 C 
BRANCH  21  24
ATOM     24  C   UNL     1      39.660 -25.784 -13.593  0.00  0.00    +0.037 C 
ATOM     25  C   UNL     1      40.651 -25.178 -14.543  0.00  0.00    +0.006 C 
ATOM     26  C   UNL     1      40.605 -26.667 -14.354  0.00  0.00    +0.006 C 
ENDBRANCH  21  24
ENDBRANCH  12  20
ENDBRANCH   3  15
BRANCH   6  30
ATOM     27  N   UNL     1      35.853 -18.661 -22.166  0.00  0.00    -0.252 N 
ATOM     28  N   UNL     1      36.979 -19.253 -20.386  0.00  0.00    -0.129 NA
ATOM     29  N   UNL     1      37.819 -18.538 -21.216  0.00  0.00    -0.128 NA
ATOM     30  C   UNL     1      35.806 -19.316 -20.973  0.00  0.00    +0.188 C 
ATOM     31  C   UNL     1      37.127 -18.191 -22.276  0.00  0.00    +0.192 C 
BRANCH  27  32
ATOM     32  C   UNL     1      34.792 -18.485 -23.128  0.00  0.00    +0.080 C 
ATOM     33  C   UNL     1      34.869 -17.114 -23.806  0.00  0.00    +0.022 C 
ATOM     34  C   UNL     1      34.783 -19.607 -24.168  0.00  0.00    +0.022 C 
ENDBRANCH  27  32
ENDBRANCH   6  30
TORSDOF 5
ENDMDL
MODEL 7
REMARK VINA RESULT:      -9.9      3.138      5.306
REMARK  Name = 71245288
REMARK  5 active torsions:
REMARK  status: ('A' for Active; 'I' for Inactive)
REMARK    1  A    between atoms: C_3  and  C_9
REMARK    2  A    between atoms: C_6  and  N_14
REMARK    3  A    between atoms: C_15  and  C_18
REMARK    4  A    between atoms: C_22  and  C_30
REMARK    5  A    between atoms: N_27  and  C_32
REMARK                            x       y       z     vdW  Elec       q    Type
REMARK                         _______ _______ _______ _____ _____    ______ ____
ROOT
ATOM      1  O   UNL     1      35.577 -22.292 -14.257  0.00  0.00    -0.270 OA
ATOM      2  N   UNL     1      36.598 -24.021 -15.471  0.00  0.00    -0.259 N 
ATOM      3  C   UNL     1      35.736 -22.927 -15.311  0.00  0.00    +0.253 C 
ATOM      4  H   UNL     1      36.616 -24.424 -16.369  0.00  0.00    +0.157 HD
ATOM      5  N   UNL     1      38.200 -25.679 -14.884  0.00  0.00    -0.388 NA
ATOM      6  C   UNL     1      38.992 -26.221 -13.932  0.00  0.00    +0.166 C 
ATOM      7  C   UNL     1      37.446 -24.623 -14.509  0.00  0.00    +0.167 C 
ATOM      8  C   UNL     1      39.066 -25.756 -12.629  0.00  0.00    +0.031 C 
ATOM      9  C   UNL     1      37.447 -24.084 -13.232  0.00  0.00    +0.101 C 
ATOM     10  C   UNL     1      38.276 -24.667 -12.280  0.00  0.00    -0.015 C 
ENDROOT
BRANCH   3  15
ATOM     11  F   UNL     1      33.064 -23.668 -15.760  0.00  0.00    -0.204 F 
ATOM     12  C   UNL     1      34.936 -21.330 -18.604  0.00  0.00    +0.046 C 
ATOM     13  C   UNL     1      33.609 -21.724 -18.782  0.00  0.00    -0.006 C 
ATOM     14  C   UNL     1      35.634 -21.727 -17.463  0.00  0.00    +0.021 C 
ATOM     15  C   UNL     1      35.005 -22.516 -16.500  0.00  0.00    +0.082 C 
ATOM     16  C   UNL     1      32.981 -22.514 -17.820  0.00  0.00    +0.027 C 
ATOM     17  C   UNL     1      32.833 -21.319 -19.994  0.00  0.00    +0.032 C 
ATOM     18  C   UNL     1      33.679 -22.910 -16.679  0.00  0.00    +0.144 C 
BRANCH  12  20
ATOM     19  N   UNL     1      37.210 -19.440 -20.572  0.00  0.00    -0.255 NA
ATOM     20  N   UNL     1      35.578 -20.547 -19.548  0.00  0.00    -0.282 N 
ATOM     21  C   UNL     1      36.038 -19.313 -21.276  0.00  0.00    +0.053 C 
ATOM     22  C   UNL     1      35.012 -19.990 -20.660  0.00  0.00    +0.134 C 
ATOM     23  C   UNL     1      36.899 -20.189 -19.538  0.00  0.00    +0.219 C 
BRANCH  21  24
ATOM     24  C   UNL     1      35.902 -18.519 -22.572  0.00  0.00    +0.037 C 
ATOM     25  C   UNL     1      35.174 -17.207 -22.539  0.00  0.00    +0.006 C 
ATOM     26  C   UNL     1      34.546 -18.398 -23.202  0.00  0.00    +0.006 C 
ENDBRANCH  21  24
ENDBRANCH  12  20
ENDBRANCH   3  15
BRANCH   6  30
ATOM     27  N   UNL     1      39.279 -28.594 -14.567  0.00  0.00    -0.252 N 
ATOM     28  N   UNL     1      41.063 -27.331 -14.648  0.00  0.00    -0.129 NA
ATOM     29  N   UNL     1      41.416 -28.609 -15.033  0.00  0.00    -0.128 NA
ATOM     30  C   UNL     1      39.779 -27.343 -14.372  0.00  0.00    +0.188 C 
ATOM     31  C   UNL     1      40.334 -29.351 -14.978  0.00  0.00    +0.192 C 
BRANCH  27  32
ATOM     32  C   UNL     1      37.922 -29.050 -14.385  0.00  0.00    +0.080 C 
ATOM     33  C   UNL     1      37.454 -29.910 -15.562  0.00  0.00    +0.022 C 
ATOM     34  C   UNL     1      37.752 -29.798 -13.061  0.00  0.00    +0.022 C 
ENDBRANCH  27  32
ENDBRANCH   6  30
TORSDOF 5
ENDMDL
MODEL 8
REMARK VINA RESULT:      -9.7      2.206     10.583
REMARK  Name = 71245288
REMARK  5 active torsions:
REMARK  status: ('A' for Active; 'I' for Inactive)
REMARK    1  A    between atoms: C_3  and  C_9
REMARK    2  A    between atoms: C_6  and  N_14
REMARK    3  A    between atoms: C_15  and  C_18
REMARK    4  A    between atoms: C_22  and  C_30
REMARK    5  A    between atoms: N_27  and  C_32
REMARK                            x       y       z     vdW  Elec       q    Type
REMARK                         _______ _______ _______ _____ _____    ______ ____
ROOT
ATOM      1  O   UNL     1      36.185 -21.974 -20.126  0.00  0.00    -0.270 OA
ATOM      2  N   UNL     1      35.081 -19.994 -19.520  0.00  0.00    -0.259 N 
ATOM      3  C   UNL     1      35.465 -21.331 -19.346  0.00  0.00    +0.253 C 
ATOM      4  H   UNL     1      34.506 -19.619 -18.815  0.00  0.00    +0.157 HD
ATOM      5  N   UNL     1      34.925 -17.853 -20.545  0.00  0.00    -0.388 NA
ATOM      6  C   UNL     1      35.266 -17.049 -21.577  0.00  0.00    +0.166 C 
ATOM      7  C   UNL     1      35.410 -19.113 -20.579  0.00  0.00    +0.167 C 
ATOM      8  C   UNL     1      36.067 -17.445 -22.636  0.00  0.00    +0.031 C 
ATOM      9  C   UNL     1      36.218 -19.606 -21.592  0.00  0.00    +0.101 C 
ATOM     10  C   UNL     1      36.548 -18.749 -22.636  0.00  0.00    -0.015 C 
ENDROOT
BRANCH   3  15
ATOM     11  F   UNL     1      32.761 -21.984 -18.962  0.00  0.00    -0.204 F 
ATOM     12  C   UNL     1      35.430 -22.908 -15.948  0.00  0.00    +0.046 C 
ATOM     13  C   UNL     1      34.076 -23.212 -15.803  0.00  0.00    -0.006 C 
ATOM     14  C   UNL     1      35.885 -22.289 -17.112  0.00  0.00    +0.021 C 
ATOM     15  C   UNL     1      34.987 -21.976 -18.133  0.00  0.00    +0.082 C 
ATOM     16  C   UNL     1      33.178 -22.898 -16.823  0.00  0.00    +0.027 C 
ATOM     17  C   UNL     1      33.554 -23.874 -14.568  0.00  0.00    +0.032 C 
ATOM     18  C   UNL     1      33.634 -22.281 -17.988  0.00  0.00    +0.144 C 
BRANCH  12  20
ATOM     19  N   UNL     1      37.663 -22.932 -13.186  0.00  0.00    -0.255 NA
ATOM     20  N   UNL     1      36.338 -23.210 -14.947  0.00  0.00    -0.282 N 
ATOM     21  C   UNL     1      37.736 -24.228 -13.632  0.00  0.00    +0.053 C 
ATOM     22  C   UNL     1      36.923 -24.425 -14.724  0.00  0.00    +0.134 C 
ATOM     23  C   UNL     1      36.812 -22.346 -13.999  0.00  0.00    +0.219 C 
BRANCH  21  24
ATOM     24  C   UNL     1      38.610 -25.304 -12.994  0.00  0.00    +0.037 C 
ATOM     25  C   UNL     1      40.036 -25.434 -13.443  0.00  0.00    +0.006 C 
ATOM     26  C   UNL     1      39.029 -26.479 -13.828  0.00  0.00    +0.006 C 
ENDBRANCH  21  24
ENDBRANCH  12  20
ENDBRANCH   3  15
BRANCH   6  30
ATOM     27  N   UNL     1      34.335 -14.992 -22.586  0.00  0.00    -0.252 N 
ATOM     28  N   UNL     1      34.541 -15.014 -20.408  0.00  0.00    -0.129 NA
ATOM     29  N   UNL     1      34.010 -13.796 -20.784  0.00  0.00    -0.128 NA
ATOM     30  C   UNL     1      34.729 -15.716 -21.503  0.00  0.00    +0.188 C 
ATOM     31  C   UNL     1      33.893 -13.802 -22.092  0.00  0.00    +0.192 C 
BRANCH  27  32
ATOM     32  C   UNL     1      34.365 -15.380 -23.976  0.00  0.00    +0.080 C 
ATOM     33  C   UNL     1      33.588 -16.677 -24.216  0.00  0.00    +0.022 C 
ATOM     34  C   UNL     1      33.851 -14.261 -24.884  0.00  0.00    +0.022 C 
ENDBRANCH  27  32
ENDBRANCH   6  30
TORSDOF 5
ENDMDL
MODEL 9
REMARK VINA RESULT:      -9.6      1.668     10.547
REMARK  Name = 71245288
REMARK  5 active torsions:
REMARK  status: ('A' for Active; 'I' for Inactive)
REMARK    1  A    between atoms: C_3  and  C_9
REMARK    2  A    between atoms: C_6  and  N_14
REMARK    3  A    between atoms: C_15  and  C_18
REMARK    4  A    between atoms: C_22  and  C_30
REMARK    5  A    between atoms: N_27  and  C_32
REMARK                            x       y       z     vdW  Elec       q    Type
REMARK                         _______ _______ _______ _____ _____    ______ ____
ROOT
ATOM      1  O   UNL     1      36.719 -21.696 -18.328  0.00  0.00    -0.270 OA
ATOM      2  N   UNL     1      35.023 -20.489 -19.412  0.00  0.00    -0.259 N 
ATOM      3  C   UNL     1      35.520 -21.415 -18.484  0.00  0.00    +0.253 C 
ATOM      4  H   UNL     1      34.046 -20.373 -19.419  0.00  0.00    +0.157 HD
ATOM      5  N   UNL     1      35.055 -18.863 -21.148  0.00  0.00    -0.388 NA
ATOM      6  C   UNL     1      35.785 -18.130 -22.018  0.00  0.00    +0.166 C 
ATOM      7  C   UNL     1      35.744 -19.699 -20.340  0.00  0.00    +0.167 C 
ATOM      8  C   UNL     1      37.166 -18.193 -22.115  0.00  0.00    +0.031 C 
ATOM      9  C   UNL     1      37.123 -19.835 -20.359  0.00  0.00    +0.101 C 
ATOM     10  C   UNL     1      37.840 -19.064 -21.268  0.00  0.00    -0.015 C 
ENDROOT
BRANCH   3  15
ATOM     11  F   UNL     1      32.834 -21.683 -19.259  0.00  0.00    -0.204 F 
ATOM     12  C   UNL     1      33.952 -23.189 -15.580  0.00  0.00    +0.046 C 
ATOM     13  C   UNL     1      32.629 -23.297 -16.009  0.00  0.00    -0.006 C 
ATOM     14  C   UNL     1      34.901 -22.570 -16.393  0.00  0.00    +0.021 C 
ATOM     15  C   UNL     1      34.528 -22.060 -17.637  0.00  0.00    +0.082 C 
ATOM     16  C   UNL     1      32.256 -22.787 -17.252  0.00  0.00    +0.027 C 
ATOM     17  C   UNL     1      31.587 -23.953 -15.161  0.00  0.00    +0.032 C 
ATOM     18  C   UNL     1      33.205 -22.169 -18.066  0.00  0.00    +0.144 C 
BRANCH  12  20
ATOM     19  N   UNL     1      34.218 -24.314 -12.221  0.00  0.00    -0.255 NA
ATOM     20  N   UNL     1      34.344 -23.688 -14.349  0.00  0.00    -0.282 N 
ATOM     21  C   UNL     1      35.483 -24.538 -12.705  0.00  0.00    +0.053 C 
ATOM     22  C   UNL     1      35.585 -24.158 -14.023  0.00  0.00    +0.134 C 
ATOM     23  C   UNL     1      33.558 -23.802 -13.236  0.00  0.00    +0.219 C 
BRANCH  21  24
ATOM     24  C   UNL     1      36.620 -25.133 -11.881  0.00  0.00    +0.037 C 
ATOM     25  C   UNL     1      38.025 -24.998 -12.391  0.00  0.00    +0.006 C 
ATOM     26  C   UNL     1      37.343 -26.335 -12.413  0.00  0.00    +0.006 C 
ENDBRANCH  21  24
ENDBRANCH  12  20
ENDBRANCH   3  15
BRANCH   6  30
ATOM     27  N   UNL     1      34.074 -17.681 -23.746  0.00  0.00    -0.252 N 
ATOM     28  N   UNL     1      35.097 -15.943 -22.898  0.00  0.00    -0.129 NA
ATOM     29  N   UNL     1      34.187 -15.499 -23.837  0.00  0.00    -0.128 NA
ATOM     30  C   UNL     1      35.014 -17.253 -22.859  0.00  0.00    +0.188 C 
ATOM     31  C   UNL     1      33.583 -16.554 -24.333  0.00  0.00    +0.192 C 
BRANCH  27  32
ATOM     32  C   UNL     1      33.662 -19.036 -24.024  0.00  0.00    +0.080 C 
ATOM     33  C   UNL     1      32.456 -19.076 -24.966  0.00  0.00    +0.022 C 
ATOM     34  C   UNL     1      34.816 -19.872 -24.581  0.00  0.00    +0.022 C 
ENDBRANCH  27  32
ENDBRANCH   6  30
TORSDOF 5
ENDMDL
