MODEL 1
REMARK VINA RESULT:     -10.6      0.000      0.000
REMARK  Name = 10274777
REMARK  10 active torsions:
REMARK  status: ('A' for Active; 'I' for Inactive)
REMARK    1  A    between atoms: C_2  and  C_25
REMARK    2  A    between atoms: C_5  and  O_10
REMARK    3  A    between atoms: O_10  and  C_11
REMARK    4  A    between atoms: C_11  and  C_12
REMARK    5  A    between atoms: C_12  and  C_15
REMARK    6  A    between atoms: C_17  and  C_19
REMARK    7  A    between atoms: C_25  and  C_26
REMARK    8  A    between atoms: C_26  and  O_27
REMARK    9  A    between atoms: C_26  and  C_30
REMARK   10  A    between atoms: C_30  and  O_31
REMARK                            x       y       z     vdW  Elec       q    Type
REMARK                         _______ _______ _______ _____ _____    ______ ____
ROOT
ATOM      1  S   UNL     1      33.651  -9.110 -23.699  0.00  0.00    -0.087 S 
ATOM      2  C   UNL     1      32.186 -10.577 -21.805  0.00  0.00    -0.013 C 
ATOM      3  C   UNL     1      33.084 -10.522 -22.888  0.00  0.00    +0.029 C 
ATOM      4  C   UNL     1      33.634 -11.682 -23.442  0.00  0.00    +0.040 C 
ATOM      5  C   UNL     1      33.264 -12.929 -22.884  0.00  0.00    +0.139 C 
ATOM      6  C   UNL     1      31.842 -11.822 -21.276  0.00  0.00    -0.001 C 
ATOM      7  C   UNL     1      32.374 -12.988 -21.809  0.00  0.00    +0.037 C 
ATOM      8  C   UNL     1      34.516 -11.370 -24.531  0.00  0.00    +0.010 C 
ATOM      9  C   UNL     1      34.613 -10.020 -24.772  0.00  0.00    +0.036 C 
ENDROOT
BRANCH   5  10
ATOM     10  O   UNL     1      33.770 -14.104 -23.383  0.00  0.00    -0.475 OA
BRANCH  10  11
ATOM     11  C   UNL     1      34.514 -14.912 -22.480  0.00  0.00    +0.213 C 
BRANCH  11  12
ATOM     12  C   UNL     1      35.242 -16.009 -23.252  0.00  0.00    +0.105 C 
BRANCH  12  15
ATOM     13  O   UNL     1      34.135 -19.423 -22.583  0.00  0.00    -0.449 OA
ATOM     14  N   UNL     1      35.326 -17.800 -21.549  0.00  0.00    -0.373 NA
ATOM     15  C   UNL     1      34.899 -17.389 -22.768  0.00  0.00    +0.134 C 
ATOM     16  C   UNL     1      34.184 -18.341 -23.410  0.00  0.00    +0.216 C 
ATOM     17  C   UNL     1      34.842 -19.020 -21.490  0.00  0.00    +0.277 C 
ATOM     18  C   UNL     1      33.499 -18.457 -24.701  0.00  0.00    +0.055 C 
BRANCH  17  19
ATOM     19  C   UNL     1      34.949 -19.994 -20.439  0.00  0.00    +0.066 C 
ATOM     20  C   UNL     1      36.205 -20.357 -19.943  0.00  0.00    +0.006 C 
ATOM     21  C   UNL     1      33.800 -20.584 -19.906  0.00  0.00    +0.006 C 
ATOM     22  C   UNL     1      36.310 -21.302 -18.923  0.00  0.00    +0.000 C 
ATOM     23  C   UNL     1      33.905 -21.530 -18.886  0.00  0.00    +0.000 C 
ATOM     24  C   UNL     1      35.160 -21.889 -18.394  0.00  0.00    +0.000 C 
ENDBRANCH  17  19
ENDBRANCH  12  15
ENDBRANCH  11  12
ENDBRANCH  10  11
ENDBRANCH   5  10
BRANCH   2  25
ATOM     25  C   UNL     1      31.584  -9.353 -21.190  0.00  0.00    +0.068 C 
BRANCH  25  26
ATOM     26  C   UNL     1      32.412  -8.817 -20.014  0.00  0.00    +0.218 C 
BRANCH  26  27
ATOM     27  O   UNL     1      31.647  -8.950 -18.822  0.00  0.00    -0.342 OA
ATOM     28  C   UNL     1      31.974 -10.143 -18.124  0.00  0.00    +0.175 C 
ENDBRANCH  26  27
BRANCH  26  30
ATOM     29  O   UNL     1      32.475  -6.691 -21.194  0.00  0.00    -0.248 OA
ATOM     30  C   UNL     1      32.728  -7.345 -20.191  0.00  0.00    +0.342 C 
BRANCH  30  31
ATOM     31  O   UNL     1      33.317  -6.812 -19.090  0.00  0.00    -0.479 OA
ATOM     32  H   UNL     1      32.822  -6.264 -18.512  0.00  0.00    +0.295 HD
ENDBRANCH  30  31
ENDBRANCH  26  30
ENDBRANCH  25  26
ENDBRANCH   2  25
TORSDOF 10
ENDMDL
MODEL 2
REMARK VINA RESULT:     -10.6      5.048     11.138
REMARK  Name = 10274777
REMARK  10 active torsions:
REMARK  status: ('A' for Active; 'I' for Inactive)
REMARK    1  A    between atoms: C_2  and  C_25
REMARK    2  A    between atoms: C_5  and  O_10
REMARK    3  A    between atoms: O_10  and  C_11
REMARK    4  A    between atoms: C_11  and  C_12
REMARK    5  A    between atoms: C_12  and  C_15
REMARK    6  A    between atoms: C_17  and  C_19
REMARK    7  A    between atoms: C_25  and  C_26
REMARK    8  A    between atoms: C_26  and  O_27
REMARK    9  A    between atoms: C_26  and  C_30
REMARK   10  A    between atoms: C_30  and  O_31
REMARK                            x       y       z     vdW  Elec       q    Type
REMARK                         _______ _______ _______ _____ _____    ______ ____
ROOT
ATOM      1  S   UNL     1      36.011 -22.836 -15.337  0.00  0.00    -0.087 S 
ATOM      2  C   UNL     1      33.752 -22.838 -17.004  0.00  0.00    -0.013 C 
ATOM      3  C   UNL     1      35.089 -22.478 -16.749  0.00  0.00    +0.029 C 
ATOM      4  C   UNL     1      35.840 -21.749 -17.675  0.00  0.00    +0.040 C 
ATOM      5  C   UNL     1      35.221 -21.375 -18.892  0.00  0.00    +0.139 C 
ATOM      6  C   UNL     1      33.169 -22.455 -18.214  0.00  0.00    -0.001 C 
ATOM      7  C   UNL     1      33.894 -21.731 -19.150  0.00  0.00    +0.037 C 
ATOM      8  C   UNL     1      37.168 -21.504 -17.190  0.00  0.00    +0.010 C 
ATOM      9  C   UNL     1      37.389 -22.037 -15.942  0.00  0.00    +0.036 C 
ENDROOT
BRANCH   5  10
ATOM     10  O   UNL     1      35.905 -20.659 -19.843  0.00  0.00    -0.475 OA
BRANCH  10  11
ATOM     11  C   UNL     1      35.144 -19.744 -20.621  0.00  0.00    +0.213 C 
BRANCH  11  12
ATOM     12  C   UNL     1      36.083 -18.829 -21.403  0.00  0.00    +0.105 C 
BRANCH  12  15
ATOM     13  O   UNL     1      34.183 -17.131 -24.017  0.00  0.00    -0.449 OA
ATOM     14  N   UNL     1      35.344 -16.592 -22.151  0.00  0.00    -0.373 NA
ATOM     15  C   UNL     1      35.356 -17.930 -22.362  0.00  0.00    +0.134 C 
ATOM     16  C   UNL     1      34.668 -18.282 -23.472  0.00  0.00    +0.216 C 
ATOM     17  C   UNL     1      34.630 -16.163 -23.169  0.00  0.00    +0.277 C 
ATOM     18  C   UNL     1      34.354 -19.534 -24.168  0.00  0.00    +0.055 C 
BRANCH  17  19
ATOM     19  C   UNL     1      34.252 -14.822 -23.517  0.00  0.00    +0.066 C 
ATOM     20  C   UNL     1      34.302 -13.806 -22.558  0.00  0.00    +0.006 C 
ATOM     21  C   UNL     1      33.830 -14.525 -24.816  0.00  0.00    +0.006 C 
ATOM     22  C   UNL     1      33.935 -12.504 -22.895  0.00  0.00    +0.000 C 
ATOM     23  C   UNL     1      33.463 -13.222 -25.153  0.00  0.00    +0.000 C 
ATOM     24  C   UNL     1      33.515 -12.212 -24.193  0.00  0.00    +0.000 C 
ENDBRANCH  17  19
ENDBRANCH  12  15
ENDBRANCH  11  12
ENDBRANCH  10  11
ENDBRANCH   5  10
BRANCH   2  25
ATOM     25  C   UNL     1      32.924 -23.618 -16.032  0.00  0.00    +0.068 C 
BRANCH  25  26
ATOM     26  C   UNL     1      31.777 -22.789 -15.438  0.00  0.00    +0.218 C 
BRANCH  26  27
ATOM     27  O   UNL     1      31.879 -22.826 -14.019  0.00  0.00    -0.342 OA
ATOM     28  C   UNL     1      32.734 -23.874 -13.586  0.00  0.00    +0.175 C 
ENDBRANCH  26  27
BRANCH  26  30
ATOM     29  O   UNL     1      30.019 -24.469 -15.466  0.00  0.00    -0.248 OA
ATOM     30  C   UNL     1      30.429 -23.369 -15.814  0.00  0.00    +0.342 C 
BRANCH  30  31
ATOM     31  O   UNL     1      29.698 -22.516 -16.578  0.00  0.00    -0.479 OA
ATOM     32  H   UNL     1      30.131 -21.877 -17.109  0.00  0.00    +0.295 HD
ENDBRANCH  30  31
ENDBRANCH  26  30
ENDBRANCH  25  26
ENDBRANCH   2  25
TORSDOF 10
ENDMDL
MODEL 3
REMARK VINA RESULT:     -10.5      6.615     12.929
REMARK  Name = 10274777
REMARK  10 active torsions:
REMARK  status: ('A' for Active; 'I' for Inactive)
REMARK    1  A    between atoms: C_2  and  C_25
REMARK    2  A    between atoms: C_5  and  O_10
REMARK    3  A    between atoms: O_10  and  C_11
REMARK    4  A    between atoms: C_11  and  C_12
REMARK    5  A    between atoms: C_12  and  C_15
REMARK    6  A    between atoms: C_17  and  C_19
REMARK    7  A    between atoms: C_25  and  C_26
REMARK    8  A    between atoms: C_26  and  O_27
REMARK    9  A    between atoms: C_26  and  C_30
REMARK   10  A    between atoms: C_30  and  O_31
REMARK                            x       y       z     vdW  Elec       q    Type
REMARK                         _______ _______ _______ _____ _____    ______ ____
ROOT
ATOM      1  S   UNL     1      32.118 -24.075 -13.529  0.00  0.00    -0.087 S 
ATOM      2  C   UNL     1      34.918 -23.953 -13.359  0.00  0.00    -0.013 C 
ATOM      3  C   UNL     1      33.722 -23.759 -14.076  0.00  0.00    +0.029 C 
ATOM      4  C   UNL     1      33.725 -23.262 -15.383  0.00  0.00    +0.040 C 
ATOM      5  C   UNL     1      34.972 -22.952 -15.977  0.00  0.00    +0.139 C 
ATOM      6  C   UNL     1      36.132 -23.638 -13.973  0.00  0.00    -0.001 C 
ATOM      7  C   UNL     1      36.161 -23.143 -15.269  0.00  0.00    +0.037 C 
ATOM      8  C   UNL     1      32.391 -23.154 -15.901  0.00  0.00    +0.010 C 
ATOM      9  C   UNL     1      31.433 -23.560 -15.002  0.00  0.00    +0.036 C 
ENDROOT
BRANCH   5  10
ATOM     10  O   UNL     1      35.042 -22.460 -17.257  0.00  0.00    -0.475 OA
BRANCH  10  11
ATOM     11  C   UNL     1      36.113 -21.569 -17.540  0.00  0.00    +0.213 C 
BRANCH  11  12
ATOM     12  C   UNL     1      36.444 -21.618 -19.029  0.00  0.00    +0.105 C 
BRANCH  12  15
ATOM     13  O   UNL     1      33.813 -19.785 -20.774  0.00  0.00    -0.449 OA
ATOM     14  N   UNL     1      36.073 -19.847 -20.713  0.00  0.00    -0.373 NA
ATOM     15  C   UNL     1      35.540 -20.750 -19.856  0.00  0.00    +0.134 C 
ATOM     16  C   UNL     1      34.187 -20.734 -19.871  0.00  0.00    +0.216 C 
ATOM     17  C   UNL     1      34.998 -19.299 -21.235  0.00  0.00    +0.277 C 
ATOM     18  C   UNL     1      33.115 -21.460 -19.182  0.00  0.00    +0.055 C 
BRANCH  17  19
ATOM     19  C   UNL     1      34.891 -18.261 -22.222  0.00  0.00    +0.066 C 
ATOM     20  C   UNL     1      35.302 -16.959 -21.920  0.00  0.00    +0.006 C 
ATOM     21  C   UNL     1      34.374 -18.545 -23.489  0.00  0.00    +0.006 C 
ATOM     22  C   UNL     1      35.198 -15.950 -22.877  0.00  0.00    +0.000 C 
ATOM     23  C   UNL     1      34.270 -17.535 -24.447  0.00  0.00    +0.000 C 
ATOM     24  C   UNL     1      34.681 -16.238 -24.141  0.00  0.00    +0.000 C 
ENDBRANCH  17  19
ENDBRANCH  12  15
ENDBRANCH  11  12
ENDBRANCH  10  11
ENDBRANCH   5  10
BRANCH   2  25
ATOM     25  C   UNL     1      34.946 -24.482 -11.960  0.00  0.00    +0.068 C 
BRANCH  25  26
ATOM     26  C   UNL     1      36.375 -24.675 -11.433  0.00  0.00    +0.218 C 
BRANCH  26  27
ATOM     27  O   UNL     1      36.598 -26.065 -11.225  0.00  0.00    -0.342 OA
ATOM     28  C   UNL     1      37.489 -26.600 -12.193  0.00  0.00    +0.175 C 
ENDBRANCH  26  27
BRANCH  26  30
ATOM     29  O   UNL     1      36.127 -24.380  -9.031  0.00  0.00    -0.248 OA
ATOM     30  C   UNL     1      36.567 -23.979 -10.100  0.00  0.00    +0.342 C 
BRANCH  30  31
ATOM     31  O   UNL     1      37.308 -22.847 -10.216  0.00  0.00    -0.479 OA
ATOM     32  H   UNL     1      37.032 -22.163 -10.796  0.00  0.00    +0.295 HD
ENDBRANCH  30  31
ENDBRANCH  26  30
ENDBRANCH  25  26
ENDBRANCH   2  25
TORSDOF 10
ENDMDL
MODEL 4
REMARK VINA RESULT:     -10.4      1.339      2.466
REMARK  Name = 10274777
REMARK  10 active torsions:
REMARK  status: ('A' for Active; 'I' for Inactive)
REMARK    1  A    between atoms: C_2  and  C_25
REMARK    2  A    between atoms: C_5  and  O_10
REMARK    3  A    between atoms: O_10  and  C_11
REMARK    4  A    between atoms: C_11  and  C_12
REMARK    5  A    between atoms: C_12  and  C_15
REMARK    6  A    between atoms: C_17  and  C_19
REMARK    7  A    between atoms: C_25  and  C_26
REMARK    8  A    between atoms: C_26  and  O_27
REMARK    9  A    between atoms: C_26  and  C_30
REMARK   10  A    between atoms: C_30  and  O_31
REMARK                            x       y       z     vdW  Elec       q    Type
REMARK                         _______ _______ _______ _____ _____    ______ ____
ROOT
ATOM      1  S   UNL     1      31.602 -10.845 -20.657  0.00  0.00    -0.087 S 
ATOM      2  C   UNL     1      32.786 -10.245 -23.132  0.00  0.00    -0.013 C 
ATOM      3  C   UNL     1      32.449 -11.169 -22.124  0.00  0.00    +0.029 C 
ATOM      4  C   UNL     1      32.793 -12.520 -22.225  0.00  0.00    +0.040 C 
ATOM      5  C   UNL     1      33.495 -12.947 -23.377  0.00  0.00    +0.139 C 
ATOM      6  C   UNL     1      33.479 -10.698 -24.257  0.00  0.00    -0.001 C 
ATOM      7  C   UNL     1      33.831 -12.034 -24.380  0.00  0.00    +0.037 C 
ATOM      8  C   UNL     1      32.343 -13.257 -21.078  0.00  0.00    +0.010 C 
ATOM      9  C   UNL     1      31.688 -12.472 -20.160  0.00  0.00    +0.036 C 
ENDROOT
BRANCH   5  10
ATOM     10  O   UNL     1      33.861 -14.260 -23.536  0.00  0.00    -0.475 OA
BRANCH  10  11
ATOM     11  C   UNL     1      34.598 -14.849 -22.472  0.00  0.00    +0.213 C 
BRANCH  11  12
ATOM     12  C   UNL     1      35.498 -15.954 -23.019  0.00  0.00    +0.105 C 
BRANCH  12  15
ATOM     13  O   UNL     1      34.170 -19.321 -22.550  0.00  0.00    -0.449 OA
ATOM     14  N   UNL     1      35.368 -17.800 -21.380  0.00  0.00    -0.373 NA
ATOM     15  C   UNL     1      35.050 -17.327 -22.610  0.00  0.00    +0.134 C 
ATOM     16  C   UNL     1      34.333 -18.218 -23.332  0.00  0.00    +0.216 C 
ATOM     17  C   UNL     1      34.818 -18.994 -21.397  0.00  0.00    +0.277 C 
ATOM     18  C   UNL     1      33.736 -18.256 -24.671  0.00  0.00    +0.055 C 
BRANCH  17  19
ATOM     19  C   UNL     1      34.799 -20.004 -20.377  0.00  0.00    +0.066 C 
ATOM     20  C   UNL     1      33.581 -20.496 -19.897  0.00  0.00    +0.006 C 
ATOM     21  C   UNL     1      35.997 -20.501 -19.857  0.00  0.00    +0.006 C 
ATOM     22  C   UNL     1      33.562 -21.477 -18.906  0.00  0.00    +0.000 C 
ATOM     23  C   UNL     1      35.978 -21.483 -18.865  0.00  0.00    +0.000 C 
ATOM     24  C   UNL     1      34.761 -21.971 -18.390  0.00  0.00    +0.000 C 
ENDBRANCH  17  19
ENDBRANCH  12  15
ENDBRANCH  11  12
ENDBRANCH  10  11
ENDBRANCH   5  10
BRANCH   2  25
ATOM     25  C   UNL     1      32.430  -8.794 -23.052  0.00  0.00    +0.068 C 
BRANCH  25  26
ATOM     26  C   UNL     1      33.211  -8.057 -21.955  0.00  0.00    +0.218 C 
BRANCH  26  27
ATOM     27  O   UNL     1      32.286  -7.347 -21.139  0.00  0.00    -0.342 OA
ATOM     28  C   UNL     1      32.695  -7.335 -19.779  0.00  0.00    +0.175 C 
ENDBRANCH  26  27
BRANCH  26  30
ATOM     29  O   UNL     1      35.343  -7.258 -22.809  0.00  0.00    -0.248 OA
ATOM     30  C   UNL     1      34.167  -7.043 -22.549  0.00  0.00    +0.342 C 
BRANCH  30  31
ATOM     31  O   UNL     1      33.565  -5.848 -22.786  0.00  0.00    -0.479 OA
ATOM     32  H   UNL     1      34.083  -5.096 -22.997  0.00  0.00    +0.295 HD
ENDBRANCH  30  31
ENDBRANCH  26  30
ENDBRANCH  25  26
ENDBRANCH   2  25
TORSDOF 10
ENDMDL
MODEL 5
REMARK VINA RESULT:     -10.2      5.088     11.762
REMARK  Name = 10274777
REMARK  10 active torsions:
REMARK  status: ('A' for Active; 'I' for Inactive)
REMARK    1  A    between atoms: C_2  and  C_25
REMARK    2  A    between atoms: C_5  and  O_10
REMARK    3  A    between atoms: O_10  and  C_11
REMARK    4  A    between atoms: C_11  and  C_12
REMARK    5  A    between atoms: C_12  and  C_15
REMARK    6  A    between atoms: C_17  and  C_19
REMARK    7  A    between atoms: C_25  and  C_26
REMARK    8  A    between atoms: C_26  and  O_27
REMARK    9  A    between atoms: C_26  and  C_30
REMARK   10  A    between atoms: C_30  and  O_31
REMARK                            x       y       z     vdW  Elec       q    Type
REMARK                         _______ _______ _______ _____ _____    ______ ____
ROOT
ATOM      1  S   UNL     1      33.426 -23.167 -15.884  0.00  0.00    -0.087 S 
ATOM      2  C   UNL     1      36.101 -22.342 -16.109  0.00  0.00    -0.013 C 
ATOM      3  C   UNL     1      34.814 -22.500 -16.660  0.00  0.00    +0.029 C 
ATOM      4  C   UNL     1      34.525 -22.107 -17.969  0.00  0.00    +0.040 C 
ATOM      5  C   UNL     1      35.566 -21.538 -18.742  0.00  0.00    +0.139 C 
ATOM      6  C   UNL     1      37.106 -21.777 -16.897  0.00  0.00    -0.001 C 
ATOM      7  C   UNL     1      36.843 -21.379 -18.200  0.00  0.00    +0.037 C 
ATOM      8  C   UNL     1      33.153 -22.370 -18.300  0.00  0.00    +0.010 C 
ATOM      9  C   UNL     1      32.452 -22.940 -17.264  0.00  0.00    +0.036 C 
ENDROOT
BRANCH   5  10
ATOM     10  O   UNL     1      35.345 -21.132 -20.035  0.00  0.00    -0.475 OA
BRANCH  10  11
ATOM     11  C   UNL     1      34.923 -19.787 -20.217  0.00  0.00    +0.213 C 
BRANCH  11  12
ATOM     12  C   UNL     1      35.965 -19.025 -21.032  0.00  0.00    +0.105 C 
BRANCH  12  15
ATOM     13  O   UNL     1      34.407 -17.319 -23.858  0.00  0.00    -0.449 OA
ATOM     14  N   UNL     1      35.254 -16.795 -21.827  0.00  0.00    -0.373 NA
ATOM     15  C   UNL     1      35.352 -18.125 -22.066  0.00  0.00    +0.134 C 
ATOM     16  C   UNL     1      34.851 -18.468 -23.275  0.00  0.00    +0.216 C 
ATOM     17  C   UNL     1      34.683 -16.362 -22.929  0.00  0.00    +0.277 C 
ATOM     18  C   UNL     1      34.695 -19.709 -24.040  0.00  0.00    +0.055 C 
BRANCH  17  19
ATOM     19  C   UNL     1      34.306 -15.026 -23.297  0.00  0.00    +0.066 C 
ATOM     20  C   UNL     1      33.831 -14.760 -24.585  0.00  0.00    +0.006 C 
ATOM     21  C   UNL     1      34.414 -13.984 -22.372  0.00  0.00    +0.006 C 
ATOM     22  C   UNL     1      33.466 -13.463 -24.944  0.00  0.00    +0.000 C 
ATOM     23  C   UNL     1      34.048 -12.686 -22.732  0.00  0.00    +0.000 C 
ATOM     24  C   UNL     1      33.575 -12.425 -24.017  0.00  0.00    +0.000 C 
ENDBRANCH  17  19
ENDBRANCH  12  15
ENDBRANCH  11  12
ENDBRANCH  10  11
ENDBRANCH   5  10
BRANCH   2  25
ATOM     25  C   UNL     1      36.439 -22.751 -14.711  0.00  0.00    +0.068 C 
BRANCH  25  26
ATOM     26  C   UNL     1      36.890 -24.216 -14.621  0.00  0.00    +0.218 C 
BRANCH  26  27
ATOM     27  O   UNL     1      36.113 -24.869 -13.623  0.00  0.00    -0.342 OA
ATOM     28  C   UNL     1      35.474 -23.933 -12.766  0.00  0.00    +0.175 C 
ENDBRANCH  26  27
BRANCH  26  30
ATOM     29  O   UNL     1      38.732 -24.644 -13.092  0.00  0.00    -0.248 OA
ATOM     30  C   UNL     1      38.344 -24.318 -14.206  0.00  0.00    +0.342 C 
BRANCH  30  31
ATOM     31  O   UNL     1      39.190 -24.021 -15.226  0.00  0.00    -0.479 OA
ATOM     32  H   UNL     1      39.156 -24.516 -16.022  0.00  0.00    +0.295 HD
ENDBRANCH  30  31
ENDBRANCH  26  30
ENDBRANCH  25  26
ENDBRANCH   2  25
TORSDOF 10
ENDMDL
MODEL 6
REMARK VINA RESULT:     -10.1      6.877     12.837
REMARK  Name = 10274777
REMARK  10 active torsions:
REMARK  status: ('A' for Active; 'I' for Inactive)
REMARK    1  A    between atoms: C_2  and  C_25
REMARK    2  A    between atoms: C_5  and  O_10
REMARK    3  A    between atoms: O_10  and  C_11
REMARK    4  A    between atoms: C_11  and  C_12
REMARK    5  A    between atoms: C_12  and  C_15
REMARK    6  A    between atoms: C_17  and  C_19
REMARK    7  A    between atoms: C_25  and  C_26
REMARK    8  A    between atoms: C_26  and  O_27
REMARK    9  A    between atoms: C_26  and  C_30
REMARK   10  A    between atoms: C_30  and  O_31
REMARK                            x       y       z     vdW  Elec       q    Type
REMARK                         _______ _______ _______ _____ _____    ______ ____
ROOT
ATOM      1  S   UNL     1      31.380 -24.835 -12.760  0.00  0.00    -0.087 S 
ATOM      2  C   UNL     1      33.851 -23.833 -13.643  0.00  0.00    -0.013 C 
ATOM      3  C   UNL     1      32.490 -24.118 -13.869  0.00  0.00    +0.029 C 
ATOM      4  C   UNL     1      31.874 -23.829 -15.090  0.00  0.00    +0.040 C 
ATOM      5  C   UNL     1      32.657 -23.235 -16.109  0.00  0.00    +0.139 C 
ATOM      6  C   UNL     1      34.595 -23.247 -14.669  0.00  0.00    -0.001 C 
ATOM      7  C   UNL     1      34.006 -22.950 -15.890  0.00  0.00    +0.037 C 
ATOM      8  C   UNL     1      30.490 -24.211 -15.077  0.00  0.00    +0.010 C 
ATOM      9  C   UNL     1      30.098 -24.765 -13.881  0.00  0.00    +0.036 C 
ENDROOT
BRANCH   5  10
ATOM     10  O   UNL     1      32.110 -22.927 -17.330  0.00  0.00    -0.475 OA
BRANCH  10  11
ATOM     11  C   UNL     1      32.667 -21.813 -18.015  0.00  0.00    +0.213 C 
BRANCH  11  12
ATOM     12  C   UNL     1      33.638 -22.300 -19.087  0.00  0.00    +0.105 C 
BRANCH  12  15
ATOM     13  O   UNL     1      35.957 -19.745 -20.281  0.00  0.00    -0.449 OA
ATOM     14  N   UNL     1      33.834 -20.419 -20.680  0.00  0.00    -0.373 NA
ATOM     15  C   UNL     1      34.414 -21.182 -19.722  0.00  0.00    +0.134 C 
ATOM     16  C   UNL     1      35.686 -20.801 -19.463  0.00  0.00    +0.216 C 
ATOM     17  C   UNL     1      34.799 -19.577 -20.978  0.00  0.00    +0.277 C 
ATOM     18  C   UNL     1      36.758 -21.239 -18.563  0.00  0.00    +0.055 C 
BRANCH  17  19
ATOM     19  C   UNL     1      34.811 -18.505 -21.934  0.00  0.00    +0.066 C 
ATOM     20  C   UNL     1      34.418 -18.737 -23.255  0.00  0.00    +0.006 C 
ATOM     21  C   UNL     1      35.217 -17.224 -21.550  0.00  0.00    +0.006 C 
ATOM     22  C   UNL     1      34.429 -17.697 -24.184  0.00  0.00    +0.000 C 
ATOM     23  C   UNL     1      35.228 -16.183 -22.479  0.00  0.00    +0.000 C 
ATOM     24  C   UNL     1      34.835 -16.420 -23.796  0.00  0.00    +0.000 C 
ENDBRANCH  17  19
ENDBRANCH  12  15
ENDBRANCH  11  12
ENDBRANCH  10  11
ENDBRANCH   5  10
BRANCH   2  25
ATOM     25  C   UNL     1      34.536 -24.130 -12.347  0.00  0.00    +0.068 C 
BRANCH  25  26
ATOM     26  C   UNL     1      36.064 -24.031 -12.455  0.00  0.00    +0.218 C 
BRANCH  26  27
ATOM     27  O   UNL     1      36.586 -25.332 -12.702  0.00  0.00    -0.342 OA
ATOM     28  C   UNL     1      37.492 -25.330 -13.796  0.00  0.00    +0.175 C 
ENDBRANCH  26  27
BRANCH  26  30
ATOM     29  O   UNL     1      37.202 -22.441 -11.009  0.00  0.00    -0.248 OA
ATOM     30  C   UNL     1      36.674 -23.534 -11.159  0.00  0.00    +0.342 C 
BRANCH  30  31
ATOM     31  O   UNL     1      36.555 -24.442 -10.156  0.00  0.00    -0.479 OA
ATOM     32  H   UNL     1      36.831 -25.328 -10.290  0.00  0.00    +0.295 HD
ENDBRANCH  30  31
ENDBRANCH  26  30
ENDBRANCH  25  26
ENDBRANCH   2  25
TORSDOF 10
ENDMDL
MODEL 7
REMARK VINA RESULT:      -9.8      5.756      9.781
REMARK  Name = 10274777
REMARK  10 active torsions:
REMARK  status: ('A' for Active; 'I' for Inactive)
REMARK    1  A    between atoms: C_2  and  C_25
REMARK    2  A    between atoms: C_5  and  O_10
REMARK    3  A    between atoms: O_10  and  C_11
REMARK    4  A    between atoms: C_11  and  C_12
REMARK    5  A    between atoms: C_12  and  C_15
REMARK    6  A    between atoms: C_17  and  C_19
REMARK    7  A    between atoms: C_25  and  C_26
REMARK    8  A    between atoms: C_26  and  O_27
REMARK    9  A    between atoms: C_26  and  C_30
REMARK   10  A    between atoms: C_30  and  O_31
REMARK                            x       y       z     vdW  Elec       q    Type
REMARK                         _______ _______ _______ _____ _____    ______ ____
ROOT
ATOM      1  S   UNL     1      32.697 -20.270 -20.340  0.00  0.00    -0.087 S 
ATOM      2  C   UNL     1      35.148 -19.031 -20.927  0.00  0.00    -0.013 C 
ATOM      3  C   UNL     1      34.398 -20.007 -20.242  0.00  0.00    +0.029 C 
ATOM      4  C   UNL     1      35.003 -20.911 -19.364  0.00  0.00    +0.040 C 
ATOM      5  C   UNL     1      36.403 -20.824 -19.174  0.00  0.00    +0.139 C 
ATOM      6  C   UNL     1      36.527 -18.971 -20.719  0.00  0.00    -0.001 C 
ATOM      7  C   UNL     1      37.151 -19.857 -19.851  0.00  0.00    +0.037 C 
ATOM      8  C   UNL     1      34.036 -21.803 -18.790  0.00  0.00    +0.010 C 
ATOM      9  C   UNL     1      32.757 -21.564 -19.233  0.00  0.00    +0.036 C 
ENDROOT
BRANCH   5  10
ATOM     10  O   UNL     1      37.056 -21.682 -18.324  0.00  0.00    -0.475 OA
BRANCH  10  11
ATOM     11  C   UNL     1      37.208 -21.253 -16.978  0.00  0.00    +0.213 C 
BRANCH  11  12
ATOM     12  C   UNL     1      37.439 -22.462 -16.075  0.00  0.00    +0.105 C 
BRANCH  12  15
ATOM     13  O   UNL     1      34.917 -23.362 -13.593  0.00  0.00    -0.449 OA
ATOM     14  N   UNL     1      35.000 -22.728 -15.763  0.00  0.00    -0.373 NA
ATOM     15  C   UNL     1      36.244 -22.794 -15.228  0.00  0.00    +0.134 C 
ATOM     16  C   UNL     1      36.224 -23.171 -13.929  0.00  0.00    +0.216 C 
ATOM     17  C   UNL     1      34.247 -23.077 -14.744  0.00  0.00    +0.277 C 
ATOM     18  C   UNL     1      37.223 -23.403 -12.881  0.00  0.00    +0.055 C 
BRANCH  17  19
ATOM     19  C   UNL     1      32.818 -23.202 -14.667  0.00  0.00    +0.066 C 
ATOM     20  C   UNL     1      32.039 -23.079 -15.821  0.00  0.00    +0.006 C 
ATOM     21  C   UNL     1      32.198 -23.445 -13.438  0.00  0.00    +0.006 C 
ATOM     22  C   UNL     1      30.651 -23.200 -15.747  0.00  0.00    +0.000 C 
ATOM     23  C   UNL     1      30.810 -23.566 -13.365  0.00  0.00    +0.000 C 
ATOM     24  C   UNL     1      30.037 -23.443 -14.518  0.00  0.00    +0.000 C 
ENDBRANCH  17  19
ENDBRANCH  12  15
ENDBRANCH  11  12
ENDBRANCH  10  11
ENDBRANCH   5  10
BRANCH   2  25
ATOM     25  C   UNL     1      34.529 -18.053 -21.874  0.00  0.00    +0.068 C 
BRANCH  25  26
ATOM     26  C   UNL     1      35.156 -18.113 -23.274  0.00  0.00    +0.218 C 
BRANCH  26  27
ATOM     27  O   UNL     1      35.350 -16.783 -23.742  0.00  0.00    -0.342 OA
ATOM     28  C   UNL     1      34.969 -15.826 -22.763  0.00  0.00    +0.175 C 
ENDBRANCH  26  27
BRANCH  26  30
ATOM     29  O   UNL     1      33.284 -18.289 -24.817  0.00  0.00    -0.248 OA
ATOM     30  C   UNL     1      34.239 -18.812 -24.257  0.00  0.00    +0.342 C 
BRANCH  30  31
ATOM     31  O   UNL     1      34.605 -20.102 -24.471  0.00  0.00    -0.479 OA
ATOM     32  H   UNL     1      35.360 -20.295 -24.993  0.00  0.00    +0.295 HD
ENDBRANCH  30  31
ENDBRANCH  26  30
ENDBRANCH  25  26
ENDBRANCH   2  25
TORSDOF 10
ENDMDL
MODEL 8
REMARK VINA RESULT:      -9.7      3.078     10.342
REMARK  Name = 10274777
REMARK  10 active torsions:
REMARK  status: ('A' for Active; 'I' for Inactive)
REMARK    1  A    between atoms: C_2  and  C_25
REMARK    2  A    between atoms: C_5  and  O_10
REMARK    3  A    between atoms: O_10  and  C_11
REMARK    4  A    between atoms: C_11  and  C_12
REMARK    5  A    between atoms: C_12  and  C_15
REMARK    6  A    between atoms: C_17  and  C_19
REMARK    7  A    between atoms: C_25  and  C_26
REMARK    8  A    between atoms: C_26  and  O_27
REMARK    9  A    between atoms: C_26  and  C_30
REMARK   10  A    between atoms: C_30  and  O_31
REMARK                            x       y       z     vdW  Elec       q    Type
REMARK                         _______ _______ _______ _____ _____    ______ ____
ROOT
ATOM      1  S   UNL     1      34.455 -15.811 -24.689  0.00  0.00    -0.087 S 
ATOM      2  C   UNL     1      34.880 -15.981 -21.918  0.00  0.00    -0.013 C 
ATOM      3  C   UNL     1      34.390 -15.293 -23.046  0.00  0.00    +0.029 C 
ATOM      4  C   UNL     1      33.766 -14.048 -22.929  0.00  0.00    +0.040 C 
ATOM      5  C   UNL     1      33.634 -13.484 -21.637  0.00  0.00    +0.139 C 
ATOM      6  C   UNL     1      34.735 -15.398 -20.658  0.00  0.00    -0.001 C 
ATOM      7  C   UNL     1      34.119 -14.162 -20.516  0.00  0.00    +0.037 C 
ATOM      8  C   UNL     1      33.355 -13.550 -24.212  0.00  0.00    +0.010 C 
ATOM      9  C   UNL     1      33.668 -14.405 -25.242  0.00  0.00    +0.036 C 
ENDROOT
BRANCH   5  10
ATOM     10  O   UNL     1      33.031 -12.264 -21.456  0.00  0.00    -0.475 OA
BRANCH  10  11
ATOM     11  C   UNL     1      31.806 -12.260 -20.735  0.00  0.00    +0.213 C 
BRANCH  11  12
ATOM     12  C   UNL     1      30.910 -11.136 -21.249  0.00  0.00    +0.105 C 
BRANCH  12  15
ATOM     13  O   UNL     1      32.583  -7.939 -20.697  0.00  0.00    -0.449 OA
ATOM     14  N   UNL     1      31.864  -9.190 -22.439  0.00  0.00    -0.373 NA
ATOM     15  C   UNL     1      31.598  -9.801 -21.259  0.00  0.00    +0.134 C 
ATOM     16  C   UNL     1      32.019  -9.074 -20.199  0.00  0.00    +0.216 C 
ATOM     17  C   UNL     1      32.452  -8.083 -22.045  0.00  0.00    +0.277 C 
ATOM     18  C   UNL     1      32.001  -9.225 -18.740  0.00  0.00    +0.055 C 
BRANCH  17  19
ATOM     19  C   UNL     1      32.977  -7.000 -22.830  0.00  0.00    +0.066 C 
ATOM     20  C   UNL     1      32.187  -5.878 -23.098  0.00  0.00    +0.006 C 
ATOM     21  C   UNL     1      34.280  -7.062 -23.331  0.00  0.00    +0.006 C 
ATOM     22  C   UNL     1      32.695  -4.827 -23.860  0.00  0.00    +0.000 C 
ATOM     23  C   UNL     1      34.789  -6.010 -24.094  0.00  0.00    +0.000 C 
ATOM     24  C   UNL     1      33.997  -4.893 -24.358  0.00  0.00    +0.000 C 
ENDBRANCH  17  19
ENDBRANCH  12  15
ENDBRANCH  11  12
ENDBRANCH  10  11
ENDBRANCH   5  10
BRANCH   2  25
ATOM     25  C   UNL     1      35.550 -17.314 -22.012  0.00  0.00    +0.068 C 
BRANCH  25  26
ATOM     26  C   UNL     1      35.428 -18.126 -20.715  0.00  0.00    +0.218 C 
BRANCH  26  27
ATOM     27  O   UNL     1      36.728 -18.550 -20.320  0.00  0.00    -0.342 OA
ATOM     28  C   UNL     1      37.604 -18.646 -21.434  0.00  0.00    +0.175 C 
ENDBRANCH  26  27
BRANCH  26  30
ATOM     29  O   UNL     1      34.320 -20.188 -20.053  0.00  0.00    -0.248 OA
ATOM     30  C   UNL     1      34.587 -19.370 -20.923  0.00  0.00    +0.342 C 
BRANCH  30  31
ATOM     31  O   UNL     1      34.135 -19.474 -22.200  0.00  0.00    -0.479 OA
ATOM     32  H   UNL     1      33.591 -18.801 -22.561  0.00  0.00    +0.295 HD
ENDBRANCH  30  31
ENDBRANCH  26  30
ENDBRANCH  25  26
ENDBRANCH   2  25
TORSDOF 10
ENDMDL
MODEL 9
REMARK VINA RESULT:      -9.6      1.126      1.758
REMARK  Name = 10274777
REMARK  10 active torsions:
REMARK  status: ('A' for Active; 'I' for Inactive)
REMARK    1  A    between atoms: C_2  and  C_25
REMARK    2  A    between atoms: C_5  and  O_10
REMARK    3  A    between atoms: O_10  and  C_11
REMARK    4  A    between atoms: C_11  and  C_12
REMARK    5  A    between atoms: C_12  and  C_15
REMARK    6  A    between atoms: C_17  and  C_19
REMARK    7  A    between atoms: C_25  and  C_26
REMARK    8  A    between atoms: C_26  and  O_27
REMARK    9  A    between atoms: C_26  and  C_30
REMARK   10  A    between atoms: C_30  and  O_31
REMARK                            x       y       z     vdW  Elec       q    Type
REMARK                         _______ _______ _______ _____ _____    ______ ____
ROOT
ATOM      1  S   UNL     1      33.472  -9.565 -24.102  0.00  0.00    -0.087 S 
ATOM      2  C   UNL     1      32.110  -9.844 -21.662  0.00  0.00    -0.013 C 
ATOM      3  C   UNL     1      32.833 -10.400 -22.735  0.00  0.00    +0.029 C 
ATOM      4  C   UNL     1      33.117 -11.767 -22.796  0.00  0.00    +0.040 C 
ATOM      5  C   UNL     1      32.658 -12.593 -21.742  0.00  0.00    +0.139 C 
ATOM      6  C   UNL     1      31.671 -10.685 -20.637  0.00  0.00    -0.001 C 
ATOM      7  C   UNL     1      31.941 -12.046 -20.675  0.00  0.00    +0.037 C 
ATOM      8  C   UNL     1      33.861 -12.091 -23.980  0.00  0.00    +0.010 C 
ATOM      9  C   UNL     1      34.117 -10.994 -24.768  0.00  0.00    +0.036 C 
ENDROOT
BRANCH   5  10
ATOM     10  O   UNL     1      32.905 -13.943 -21.743  0.00  0.00    -0.475 OA
BRANCH  10  11
ATOM     11  C   UNL     1      34.174 -14.360 -21.255  0.00  0.00    +0.213 C 
BRANCH  11  12
ATOM     12  C   UNL     1      34.952 -15.052 -22.370  0.00  0.00    +0.105 C 
BRANCH  12  15
ATOM     13  O   UNL     1      34.769 -18.686 -22.673  0.00  0.00    -0.449 OA
ATOM     14  N   UNL     1      35.116 -17.141 -21.058  0.00  0.00    -0.373 NA
ATOM     15  C   UNL     1      34.919 -16.550 -22.261  0.00  0.00    +0.134 C 
ATOM     16  C   UNL     1      34.709 -17.452 -23.247  0.00  0.00    +0.216 C 
ATOM     17  C   UNL     1      35.017 -18.416 -21.361  0.00  0.00    +0.277 C 
ATOM     18  C   UNL     1      34.449 -17.398 -24.689  0.00  0.00    +0.055 C 
BRANCH  17  19
ATOM     19  C   UNL     1      35.130 -19.568 -20.511  0.00  0.00    +0.066 C 
ATOM     20  C   UNL     1      33.981 -20.234 -20.074  0.00  0.00    +0.006 C 
ATOM     21  C   UNL     1      36.388 -20.029 -20.115  0.00  0.00    +0.006 C 
ATOM     22  C   UNL     1      34.090 -21.353 -19.248  0.00  0.00    +0.000 C 
ATOM     23  C   UNL     1      36.497 -21.148 -19.288  0.00  0.00    +0.000 C 
ATOM     24  C   UNL     1      35.348 -21.810 -18.855  0.00  0.00    +0.000 C 
ENDBRANCH  17  19
ENDBRANCH  12  15
ENDBRANCH  11  12
ENDBRANCH  10  11
ENDBRANCH   5  10
BRANCH   2  25
ATOM     25  C   UNL     1      31.793  -8.385 -21.569  0.00  0.00    +0.068 C 
BRANCH  25  26
ATOM     26  C   UNL     1      33.054  -7.512 -21.504  0.00  0.00    +0.218 C 
BRANCH  26  27
ATOM     27  O   UNL     1      33.301  -7.173 -20.144  0.00  0.00    -0.342 OA
ATOM     28  C   UNL     1      32.117  -7.254 -19.364  0.00  0.00    +0.175 C 
ENDBRANCH  26  27
BRANCH  26  30
ATOM     29  O   UNL     1      31.843  -5.544 -22.264  0.00  0.00    -0.248 OA
ATOM     30  C   UNL     1      32.865  -6.218 -22.269  0.00  0.00    +0.342 C 
BRANCH  30  31
ATOM     31  O   UNL     1      33.978  -5.866 -22.964  0.00  0.00    -0.479 OA
ATOM     32  H   UNL     1      34.049  -5.005 -23.329  0.00  0.00    +0.295 HD
ENDBRANCH  30  31
ENDBRANCH  26  30
ENDBRANCH  25  26
ENDBRANCH   2  25
TORSDOF 10
ENDMDL
