MODEL 1
REMARK VINA RESULT:     -11.3      0.000      0.000
REMARK  Name = 4261
REMARK  8 active torsions:
REMARK  status: ('A' for Active; 'I' for Inactive)
REMARK    1  A    between atoms: C_1  and  C_20
REMARK    2  A    between atoms: C_2  and  C_9
REMARK    3  A    between atoms: N_8  and  C_11
REMARK    4  A    between atoms: C_12  and  N_17
REMARK    5  A    between atoms: C_20  and  N_22
REMARK    6  A    between atoms: C_23  and  O_25
REMARK    7  A    between atoms: O_25  and  C_26
REMARK    8  A    between atoms: C_26  and  C_28
REMARK                            x       y       z     vdW  Elec       q    Type
REMARK                         _______ _______ _______ _____ _____    ______ ____
ROOT
ATOM      1  C   UNL     1      35.340 -20.022 -20.337  0.00  0.00    -0.002 C 
ATOM      2  C   UNL     1      33.940 -21.836 -18.762  0.00  0.00    +0.054 C 
ATOM      3  C   UNL     1      33.950 -20.028 -20.365  0.00  0.00    -0.002 C 
ATOM      4  C   UNL     1      36.037 -20.914 -19.530  0.00  0.00    -0.002 C 
ATOM      5  C   UNL     1      33.248 -20.938 -19.575  0.00  0.00    +0.004 C 
ATOM      6  C   UNL     1      35.335 -21.823 -18.740  0.00  0.00    +0.004 C 
ENDROOT
BRANCH   2   9
ATOM      7  O   UNL     1      33.484 -23.993 -18.022  0.00  0.00    -0.270 OA
ATOM      8  N   UNL     1      32.243 -22.236 -17.083  0.00  0.00    -0.279 N 
ATOM      9  C   UNL     1      33.208 -22.785 -17.940  0.00  0.00    +0.250 C 
ATOM     10  H   UNL     1      32.137 -21.258 -17.129  0.00  0.00    +0.155 HD
BRANCH   8  11
ATOM     11  C   UNL     1      31.403 -22.903 -16.159  0.00  0.00    +0.064 C 
ATOM     12  C   UNL     1      31.946 -23.561 -15.067  0.00  0.00    +0.055 C 
ATOM     13  C   UNL     1      30.034 -22.878 -16.378  0.00  0.00    +0.016 C 
ATOM     14  C   UNL     1      31.097 -24.211 -14.170  0.00  0.00    +0.015 C 
ATOM     15  C   UNL     1      29.187 -23.528 -15.481  0.00  0.00    +0.001 C 
ATOM     16  C   UNL     1      29.718 -24.195 -14.378  0.00  0.00    +0.001 C 
BRANCH  12  17
ATOM     17  N   UNL     1      33.340 -23.590 -14.837  0.00  0.00    -0.356 N 
ATOM     18  H   UNL     1      33.759 -22.900 -14.274  0.00  0.00    +0.142 HD
ATOM     19  H   UNL     1      33.890 -24.299 -15.240  0.00  0.00    +0.142 HD
ENDBRANCH  12  17
ENDBRANCH   8  11
ENDBRANCH   2   9
BRANCH   1  20
ATOM     20  C   UNL     1      36.096 -19.042 -21.186  0.00  0.00    +0.119 C 
BRANCH  20  22
ATOM     21  O   UNL     1      35.308 -17.163 -23.257  0.00  0.00    -0.226 OA
ATOM     22  N   UNL     1      35.607 -17.692 -21.018  0.00  0.00    -0.267 N 
ATOM     23  C   UNL     1      35.256 -16.870 -22.067  0.00  0.00    +0.402 C 
ATOM     24  H   UNL     1      35.520 -17.341 -20.103  0.00  0.00    +0.153 HD
BRANCH  23  25
ATOM     25  O   UNL     1      34.834 -15.663 -21.585  0.00  0.00    -0.430 OA
BRANCH  25  26
ATOM     26  C   UNL     1      34.586 -14.649 -22.566  0.00  0.00    +0.238 C 
BRANCH  26  28
ATOM     27  N   UNL     1      32.389 -11.601 -22.288  0.00  0.00    -0.243 NA
ATOM     28  C   UNL     1      33.627 -13.643 -22.000  0.00  0.00    +0.040 C 
ATOM     29  C   UNL     1      33.109 -13.804 -20.727  0.00  0.00    +0.002 C 
ATOM     30  C   UNL     1      33.247 -12.543 -22.738  0.00  0.00    +0.098 C 
ATOM     31  C   UNL     1      32.224 -12.856 -20.229  0.00  0.00    +0.020 C 
ATOM     32  C   UNL     1      31.898 -11.782 -21.041  0.00  0.00    +0.099 C 
ENDBRANCH  26  28
ENDBRANCH  25  26
ENDBRANCH  23  25
ENDBRANCH  20  22
ENDBRANCH   1  20
TORSDOF 8
ENDMDL
MODEL 2
REMARK VINA RESULT:     -11.2      1.254      1.850
REMARK  Name = 4261
REMARK  8 active torsions:
REMARK  status: ('A' for Active; 'I' for Inactive)
REMARK    1  A    between atoms: C_1  and  C_20
REMARK    2  A    between atoms: C_2  and  C_9
REMARK    3  A    between atoms: N_8  and  C_11
REMARK    4  A    between atoms: C_12  and  N_17
REMARK    5  A    between atoms: C_20  and  N_22
REMARK    6  A    between atoms: C_23  and  O_25
REMARK    7  A    between atoms: O_25  and  C_26
REMARK    8  A    between atoms: C_26  and  C_28
REMARK                            x       y       z     vdW  Elec       q    Type
REMARK                         _______ _______ _______ _____ _____    ______ ____
ROOT
ATOM      1  C   UNL     1      35.422 -20.093 -20.219  0.00  0.00    -0.002 C 
ATOM      2  C   UNL     1      34.016 -21.911 -18.653  0.00  0.00    +0.054 C 
ATOM      3  C   UNL     1      36.116 -20.977 -19.400  0.00  0.00    -0.002 C 
ATOM      4  C   UNL     1      34.033 -20.109 -20.262  0.00  0.00    -0.002 C 
ATOM      5  C   UNL     1      35.411 -21.889 -18.616  0.00  0.00    +0.004 C 
ATOM      6  C   UNL     1      33.327 -21.020 -19.478  0.00  0.00    +0.004 C 
ENDROOT
BRANCH   2   9
ATOM      7  O   UNL     1      33.407 -24.075 -18.058  0.00  0.00    -0.270 OA
ATOM      8  N   UNL     1      32.490 -22.306 -16.817  0.00  0.00    -0.279 N 
ATOM      9  C   UNL     1      33.281 -22.860 -17.834  0.00  0.00    +0.250 C 
ATOM     10  H   UNL     1      32.490 -21.324 -16.762  0.00  0.00    +0.155 HD
BRANCH   8  11
ATOM     11  C   UNL     1      31.692 -22.976 -15.858  0.00  0.00    +0.064 C 
ATOM     12  C   UNL     1      32.211 -23.294 -14.613  0.00  0.00    +0.055 C 
ATOM     13  C   UNL     1      30.388 -23.301 -16.199  0.00  0.00    +0.016 C 
ATOM     14  C   UNL     1      31.405 -23.955 -13.686  0.00  0.00    +0.015 C 
ATOM     15  C   UNL     1      29.582 -23.960 -15.271  0.00  0.00    +0.001 C 
ATOM     16  C   UNL     1      30.091 -24.288 -14.014  0.00  0.00    +0.001 C 
BRANCH  12  17
ATOM     17  N   UNL     1      33.538 -22.966 -14.258  0.00  0.00    -0.356 N 
ATOM     18  H   UNL     1      34.217 -22.840 -14.960  0.00  0.00    +0.142 HD
ATOM     19  H   UNL     1      33.783 -22.863 -13.311  0.00  0.00    +0.142 HD
ENDBRANCH  12  17
ENDBRANCH   8  11
ENDBRANCH   2   9
BRANCH   1  20
ATOM     20  C   UNL     1      36.181 -19.113 -21.065  0.00  0.00    +0.119 C 
BRANCH  20  22
ATOM     21  O   UNL     1      35.070 -19.721 -23.678  0.00  0.00    -0.226 OA
ATOM     22  N   UNL     1      35.300 -18.294 -21.865  0.00  0.00    -0.267 N 
ATOM     23  C   UNL     1      34.821 -18.669 -23.102  0.00  0.00    +0.402 C 
ATOM     24  H   UNL     1      35.026 -17.418 -21.506  0.00  0.00    +0.153 HD
BRANCH  23  25
ATOM     25  O   UNL     1      34.015 -17.684 -23.602  0.00  0.00    -0.430 OA
BRANCH  25  26
ATOM     26  C   UNL     1      34.677 -16.648 -24.338  0.00  0.00    +0.238 C 
BRANCH  26  28
ATOM     27  N   UNL     1      33.238 -13.175 -24.079  0.00  0.00    -0.243 NA
ATOM     28  C   UNL     1      34.290 -15.316 -23.765  0.00  0.00    +0.040 C 
ATOM     29  C   UNL     1      34.606 -14.994 -22.456  0.00  0.00    +0.002 C 
ATOM     30  C   UNL     1      33.615 -14.392 -24.532  0.00  0.00    +0.098 C 
ATOM     31  C   UNL     1      34.236 -13.753 -21.954  0.00  0.00    +0.020 C 
ATOM     32  C   UNL     1      33.559 -12.887 -22.797  0.00  0.00    +0.099 C 
ENDBRANCH  26  28
ENDBRANCH  25  26
ENDBRANCH  23  25
ENDBRANCH  20  22
ENDBRANCH   1  20
TORSDOF 8
ENDMDL
MODEL 3
REMARK VINA RESULT:     -11.1      3.170     11.718
REMARK  Name = 4261
REMARK  8 active torsions:
REMARK  status: ('A' for Active; 'I' for Inactive)
REMARK    1  A    between atoms: C_1  and  C_20
REMARK    2  A    between atoms: C_2  and  C_9
REMARK    3  A    between atoms: N_8  and  C_11
REMARK    4  A    between atoms: C_12  and  N_17
REMARK    5  A    between atoms: C_20  and  N_22
REMARK    6  A    between atoms: C_23  and  O_25
REMARK    7  A    between atoms: O_25  and  C_26
REMARK    8  A    between atoms: C_26  and  C_28
REMARK                            x       y       z     vdW  Elec       q    Type
REMARK                         _______ _______ _______ _____ _____    ______ ____
ROOT
ATOM      1  C   UNL     1      34.029 -13.818 -22.762  0.00  0.00    -0.002 C 
ATOM      2  C   UNL     1      32.597 -11.549 -22.032  0.00  0.00    +0.054 C 
ATOM      3  C   UNL     1      34.050 -12.697 -23.584  0.00  0.00    -0.002 C 
ATOM      4  C   UNL     1      33.299 -13.816 -21.579  0.00  0.00    -0.002 C 
ATOM      5  C   UNL     1      33.332 -11.559 -23.218  0.00  0.00    +0.004 C 
ATOM      6  C   UNL     1      32.581 -12.678 -21.212  0.00  0.00    +0.004 C 
ENDROOT
BRANCH   2   9
ATOM      7  O   UNL     1      30.728 -10.498 -21.132  0.00  0.00    -0.270 OA
ATOM      8  N   UNL     1      32.483  -9.135 -21.888  0.00  0.00    -0.279 N 
ATOM      9  C   UNL     1      31.848 -10.363 -21.651  0.00  0.00    +0.250 C 
ATOM     10  H   UNL     1      33.372  -9.188 -22.308  0.00  0.00    +0.155 HD
BRANCH   8  11
ATOM     11  C   UNL     1      32.014  -7.831 -21.602  0.00  0.00    +0.064 C 
ATOM     12  C   UNL     1      32.246  -7.259 -20.361  0.00  0.00    +0.055 C 
ATOM     13  C   UNL     1      31.322  -7.149 -22.591  0.00  0.00    +0.016 C 
ATOM     14  C   UNL     1      31.774  -5.972 -20.103  0.00  0.00    +0.015 C 
ATOM     15  C   UNL     1      30.851  -5.862 -22.333  0.00  0.00    +0.001 C 
ATOM     16  C   UNL     1      31.076  -5.274 -21.088  0.00  0.00    +0.001 C 
BRANCH  12  17
ATOM     17  N   UNL     1      32.951  -7.947 -19.349  0.00  0.00    -0.356 N 
ATOM     18  H   UNL     1      33.872  -7.682 -19.124  0.00  0.00    +0.142 HD
ATOM     19  H   UNL     1      32.522  -8.692 -18.869  0.00  0.00    +0.142 HD
ENDBRANCH  12  17
ENDBRANCH   8  11
ENDBRANCH   2   9
BRANCH   1  20
ATOM     20  C   UNL     1      34.803 -15.042 -23.155  0.00  0.00    +0.119 C 
BRANCH  20  22
ATOM     21  O   UNL     1      35.367 -17.890 -23.250  0.00  0.00    -0.226 OA
ATOM     22  N   UNL     1      34.985 -15.947 -22.043  0.00  0.00    -0.267 N 
ATOM     23  C   UNL     1      35.251 -17.292 -22.186  0.00  0.00    +0.402 C 
ATOM     24  H   UNL     1      34.915 -15.581 -21.131  0.00  0.00    +0.153 HD
BRANCH  23  25
ATOM     25  O   UNL     1      35.369 -17.871 -20.954  0.00  0.00    -0.430 OA
BRANCH  25  26
ATOM     26  C   UNL     1      36.124 -19.088 -20.905  0.00  0.00    +0.238 C 
BRANCH  26  28
ATOM     27  N   UNL     1      35.324 -22.035 -18.697  0.00  0.00    -0.243 NA
ATOM     28  C   UNL     1      35.335 -20.124 -20.159  0.00  0.00    +0.040 C 
ATOM     29  C   UNL     1      33.953 -20.141 -20.229  0.00  0.00    +0.002 C 
ATOM     30  C   UNL     1      35.973 -21.075 -19.393  0.00  0.00    +0.098 C 
ATOM     31  C   UNL     1      33.249 -21.112 -19.527  0.00  0.00    +0.020 C 
ATOM     32  C   UNL     1      33.974 -22.029 -18.782  0.00  0.00    +0.099 C 
ENDBRANCH  26  28
ENDBRANCH  25  26
ENDBRANCH  23  25
ENDBRANCH  20  22
ENDBRANCH   1  20
TORSDOF 8
ENDMDL
MODEL 4
REMARK VINA RESULT:     -11.1      1.439      2.226
REMARK  Name = 4261
REMARK  8 active torsions:
REMARK  status: ('A' for Active; 'I' for Inactive)
REMARK    1  A    between atoms: C_1  and  C_20
REMARK    2  A    between atoms: C_2  and  C_9
REMARK    3  A    between atoms: N_8  and  C_11
REMARK    4  A    between atoms: C_12  and  N_17
REMARK    5  A    between atoms: C_20  and  N_22
REMARK    6  A    between atoms: C_23  and  O_25
REMARK    7  A    between atoms: O_25  and  C_26
REMARK    8  A    between atoms: C_26  and  C_28
REMARK                            x       y       z     vdW  Elec       q    Type
REMARK                         _______ _______ _______ _____ _____    ______ ____
ROOT
ATOM      1  C   UNL     1      35.477 -20.090 -20.171  0.00  0.00    -0.002 C 
ATOM      2  C   UNL     1      34.138 -21.963 -18.611  0.00  0.00    +0.054 C 
ATOM      3  C   UNL     1      34.088 -20.150 -20.208  0.00  0.00    -0.002 C 
ATOM      4  C   UNL     1      36.202 -20.957 -19.361  0.00  0.00    -0.002 C 
ATOM      5  C   UNL     1      33.417 -21.089 -19.426  0.00  0.00    +0.004 C 
ATOM      6  C   UNL     1      35.531 -21.896 -18.578  0.00  0.00    +0.004 C 
ENDROOT
BRANCH   2   9
ATOM      7  O   UNL     1      33.373 -24.118 -18.189  0.00  0.00    -0.270 OA
ATOM      8  N   UNL     1      32.901 -22.465 -16.591  0.00  0.00    -0.279 N 
ATOM      9  C   UNL     1      33.438 -22.942 -17.796  0.00  0.00    +0.250 C 
ATOM     10  H   UNL     1      33.032 -21.505 -16.415  0.00  0.00    +0.155 HD
BRANCH   8  11
ATOM     11  C   UNL     1      32.197 -23.183 -15.595  0.00  0.00    +0.064 C 
ATOM     12  C   UNL     1      30.814 -23.262 -15.634  0.00  0.00    +0.055 C 
ATOM     13  C   UNL     1      32.926 -23.798 -14.588  0.00  0.00    +0.016 C 
ATOM     14  C   UNL     1      30.142 -23.976 -14.640  0.00  0.00    +0.015 C 
ATOM     15  C   UNL     1      32.254 -24.511 -13.596  0.00  0.00    +0.001 C 
ATOM     16  C   UNL     1      30.862 -24.599 -13.622  0.00  0.00    +0.001 C 
BRANCH  12  17
ATOM     17  N   UNL     1      30.065 -22.639 -16.657  0.00  0.00    -0.356 N 
ATOM     18  H   UNL     1      29.491 -23.181 -17.245  0.00  0.00    +0.142 HD
ATOM     19  H   UNL     1      30.117 -21.665 -16.781  0.00  0.00    +0.142 HD
ENDBRANCH  12  17
ENDBRANCH   8  11
ENDBRANCH   2   9
BRANCH   1  20
ATOM     20  C   UNL     1      36.200 -19.079 -21.012  0.00  0.00    +0.119 C 
BRANCH  20  22
ATOM     21  O   UNL     1      35.119 -19.720 -23.630  0.00  0.00    -0.226 OA
ATOM     22  N   UNL     1      35.289 -18.291 -21.811  0.00  0.00    -0.267 N 
ATOM     23  C   UNL     1      34.828 -18.680 -23.051  0.00  0.00    +0.402 C 
ATOM     24  H   UNL     1      34.981 -17.429 -21.450  0.00  0.00    +0.153 HD
BRANCH  23  25
ATOM     25  O   UNL     1      33.987 -17.725 -23.549  0.00  0.00    -0.430 OA
BRANCH  25  26
ATOM     26  C   UNL     1      34.599 -16.710 -24.353  0.00  0.00    +0.238 C 
BRANCH  26  28
ATOM     27  N   UNL     1      34.376 -13.860 -21.898  0.00  0.00    -0.243 NA
ATOM     28  C   UNL     1      34.276 -15.364 -23.773  0.00  0.00    +0.040 C 
ATOM     29  C   UNL     1      33.610 -14.414 -24.528  0.00  0.00    +0.002 C 
ATOM     30  C   UNL     1      34.637 -15.052 -22.480  0.00  0.00    +0.098 C 
ATOM     31  C   UNL     1      33.324 -13.177 -23.964  0.00  0.00    +0.020 C 
ATOM     32  C   UNL     1      33.725 -12.951 -22.657  0.00  0.00    +0.099 C 
ENDBRANCH  26  28
ENDBRANCH  25  26
ENDBRANCH  23  25
ENDBRANCH  20  22
ENDBRANCH   1  20
TORSDOF 8
ENDMDL
MODEL 5
REMARK VINA RESULT:     -10.7      2.602     11.197
REMARK  Name = 4261
REMARK  8 active torsions:
REMARK  status: ('A' for Active; 'I' for Inactive)
REMARK    1  A    between atoms: C_1  and  C_20
REMARK    2  A    between atoms: C_2  and  C_9
REMARK    3  A    between atoms: N_8  and  C_11
REMARK    4  A    between atoms: C_12  and  N_17
REMARK    5  A    between atoms: C_20  and  N_22
REMARK    6  A    between atoms: C_23  and  O_25
REMARK    7  A    between atoms: O_25  and  C_26
REMARK    8  A    between atoms: C_26  and  C_28
REMARK                            x       y       z     vdW  Elec       q    Type
REMARK                         _______ _______ _______ _____ _____    ______ ____
ROOT
ATOM      1  C   UNL     1      34.864 -16.453 -23.032  0.00  0.00    -0.002 C 
ATOM      2  C   UNL     1      33.808 -13.892 -22.788  0.00  0.00    +0.054 C 
ATOM      3  C   UNL     1      34.887 -15.814 -21.797  0.00  0.00    -0.002 C 
ATOM      4  C   UNL     1      34.318 -15.824 -24.146  0.00  0.00    -0.002 C 
ATOM      5  C   UNL     1      34.357 -14.530 -21.675  0.00  0.00    +0.004 C 
ATOM      6  C   UNL     1      33.788 -14.540 -24.023  0.00  0.00    +0.004 C 
ENDROOT
BRANCH   2   9
ATOM      7  O   UNL     1      32.210 -12.391 -22.012  0.00  0.00    -0.270 OA
ATOM      8  N   UNL     1      33.990 -11.528 -23.276  0.00  0.00    -0.279 N 
ATOM      9  C   UNL     1      33.257 -12.553 -22.660  0.00  0.00    +0.250 C 
ATOM     10  H   UNL     1      34.802 -11.812 -23.755  0.00  0.00    +0.155 HD
BRANCH   8  11
ATOM     11  C   UNL     1      33.715 -10.140 -23.299  0.00  0.00    +0.064 C 
ATOM     12  C   UNL     1      34.603  -9.260 -23.897  0.00  0.00    +0.055 C 
ATOM     13  C   UNL     1      32.543  -9.691 -22.711  0.00  0.00    +0.016 C 
ATOM     14  C   UNL     1      34.311  -7.895 -23.907  0.00  0.00    +0.015 C 
ATOM     15  C   UNL     1      32.251  -8.328 -22.721  0.00  0.00    +0.001 C 
ATOM     16  C   UNL     1      33.135  -7.430 -23.319  0.00  0.00    +0.001 C 
BRANCH  12  17
ATOM     17  N   UNL     1      35.800  -9.709 -24.500  0.00  0.00    -0.356 N 
ATOM     18  H   UNL     1      35.839  -9.842 -25.474  0.00  0.00    +0.142 HD
ATOM     19  H   UNL     1      36.592  -9.890 -23.945  0.00  0.00    +0.142 HD
ENDBRANCH  12  17
ENDBRANCH   8  11
ENDBRANCH   2   9
BRANCH   1  20
ATOM     20  C   UNL     1      35.433 -17.835 -23.164  0.00  0.00    +0.119 C 
BRANCH  20  22
ATOM     21  O   UNL     1      37.503 -18.647 -21.295  0.00  0.00    -0.226 OA
ATOM     22  N   UNL     1      35.278 -18.601 -21.949  0.00  0.00    -0.267 N 
ATOM     23  C   UNL     1      36.326 -18.941 -21.120  0.00  0.00    +0.402 C 
ATOM     24  H   UNL     1      34.373 -18.898 -21.699  0.00  0.00    +0.153 HD
BRANCH  23  25
ATOM     25  O   UNL     1      35.857 -19.663 -20.058  0.00  0.00    -0.430 OA
BRANCH  25  26
ATOM     26  C   UNL     1      34.608 -20.334 -20.261  0.00  0.00    +0.238 C 
BRANCH  26  28
ATOM     27  N   UNL     1      35.217 -22.584 -17.301  0.00  0.00    -0.243 NA
ATOM     28  C   UNL     1      34.342 -21.239 -19.094  0.00  0.00    +0.040 C 
ATOM     29  C   UNL     1      33.046 -21.561 -18.734  0.00  0.00    +0.002 C 
ATOM     30  C   UNL     1      35.386 -21.764 -18.362  0.00  0.00    +0.098 C 
ATOM     31  C   UNL     1      32.831 -22.402 -17.648  0.00  0.00    +0.020 C 
ATOM     32  C   UNL     1      33.940 -22.883 -16.970  0.00  0.00    +0.099 C 
ENDBRANCH  26  28
ENDBRANCH  25  26
ENDBRANCH  23  25
ENDBRANCH  20  22
ENDBRANCH   1  20
TORSDOF 8
ENDMDL
MODEL 6
REMARK VINA RESULT:     -10.6      3.544      6.139
REMARK  Name = 4261
REMARK  8 active torsions:
REMARK  status: ('A' for Active; 'I' for Inactive)
REMARK    1  A    between atoms: C_1  and  C_20
REMARK    2  A    between atoms: C_2  and  C_9
REMARK    3  A    between atoms: N_8  and  C_11
REMARK    4  A    between atoms: C_12  and  N_17
REMARK    5  A    between atoms: C_20  and  N_22
REMARK    6  A    between atoms: C_23  and  O_25
REMARK    7  A    between atoms: O_25  and  C_26
REMARK    8  A    between atoms: C_26  and  C_28
REMARK                            x       y       z     vdW  Elec       q    Type
REMARK                         _______ _______ _______ _____ _____    ______ ____
ROOT
ATOM      1  C   UNL     1      34.021 -14.725 -24.031  0.00  0.00    -0.002 C 
ATOM      2  C   UNL     1      35.003 -16.942 -22.668  0.00  0.00    +0.054 C 
ATOM      3  C   UNL     1      34.420 -14.597 -22.705  0.00  0.00    -0.002 C 
ATOM      4  C   UNL     1      34.108 -15.951 -24.682  0.00  0.00    -0.002 C 
ATOM      5  C   UNL     1      34.913 -15.708 -22.022  0.00  0.00    +0.004 C 
ATOM      6  C   UNL     1      34.600 -17.062 -23.999  0.00  0.00    +0.004 C 
ENDROOT
BRANCH   2   9
ATOM      7  O   UNL     1      36.702 -18.429 -22.113  0.00  0.00    -0.270 OA
ATOM      8  N   UNL     1      34.604 -18.750 -21.110  0.00  0.00    -0.279 N 
ATOM      9  C   UNL     1      35.515 -18.100 -21.956  0.00  0.00    +0.250 C 
ATOM     10  H   UNL     1      33.695 -18.373 -21.090  0.00  0.00    +0.155 HD
BRANCH   8  11
ATOM     11  C   UNL     1      34.821 -19.877 -20.280  0.00  0.00    +0.064 C 
ATOM     12  C   UNL     1      33.756 -20.667 -19.879  0.00  0.00    +0.055 C 
ATOM     13  C   UNL     1      36.119 -20.164 -19.887  0.00  0.00    +0.016 C 
ATOM     14  C   UNL     1      33.995 -21.772 -19.061  0.00  0.00    +0.015 C 
ATOM     15  C   UNL     1      36.358 -21.269 -19.070  0.00  0.00    +0.001 C 
ATOM     16  C   UNL     1      35.295 -22.073 -18.657  0.00  0.00    +0.001 C 
BRANCH  12  17
ATOM     17  N   UNL     1      32.430 -20.381 -20.276  0.00  0.00    -0.356 N 
ATOM     18  H   UNL     1      32.031 -20.864 -21.036  0.00  0.00    +0.142 HD
ATOM     19  H   UNL     1      31.907 -19.702 -19.795  0.00  0.00    +0.142 HD
ENDBRANCH  12  17
ENDBRANCH   8  11
ENDBRANCH   2   9
BRANCH   1  20
ATOM     20  C   UNL     1      33.492 -13.529 -24.767  0.00  0.00    +0.119 C 
BRANCH  20  22
ATOM     21  O   UNL     1      34.530 -10.933 -25.555  0.00  0.00    -0.226 OA
ATOM     22  N   UNL     1      33.569 -12.326 -23.969  0.00  0.00    -0.267 N 
ATOM     23  C   UNL     1      34.081 -11.133 -24.432  0.00  0.00    +0.402 C 
ATOM     24  H   UNL     1      33.237 -12.362 -23.042  0.00  0.00    +0.153 HD
BRANCH  23  25
ATOM     25  O   UNL     1      34.016 -10.191 -23.444  0.00  0.00    -0.430 OA
BRANCH  25  26
ATOM     26  C   UNL     1      32.767  -9.501 -23.320  0.00  0.00    +0.238 C 
BRANCH  26  28
ATOM     27  N   UNL     1      32.302  -8.197 -19.815  0.00  0.00    -0.243 NA
ATOM     28  C   UNL     1      32.381  -9.445 -21.870  0.00  0.00    +0.040 C 
ATOM     29  C   UNL     1      31.777 -10.530 -21.260  0.00  0.00    +0.002 C 
ATOM     30  C   UNL     1      32.623  -8.313 -21.123  0.00  0.00    +0.098 C 
ATOM     31  C   UNL     1      31.432 -10.449 -19.917  0.00  0.00    +0.020 C 
ATOM     32  C   UNL     1      31.713  -9.271 -19.244  0.00  0.00    +0.099 C 
ENDBRANCH  26  28
ENDBRANCH  25  26
ENDBRANCH  23  25
ENDBRANCH  20  22
ENDBRANCH   1  20
TORSDOF 8
ENDMDL
MODEL 7
REMARK VINA RESULT:     -10.6      3.274      9.847
REMARK  Name = 4261
REMARK  8 active torsions:
REMARK  status: ('A' for Active; 'I' for Inactive)
REMARK    1  A    between atoms: C_1  and  C_20
REMARK    2  A    between atoms: C_2  and  C_9
REMARK    3  A    between atoms: N_8  and  C_11
REMARK    4  A    between atoms: C_12  and  N_17
REMARK    5  A    between atoms: C_20  and  N_22
REMARK    6  A    between atoms: C_23  and  O_25
REMARK    7  A    between atoms: O_25  and  C_26
REMARK    8  A    between atoms: C_26  and  C_28
REMARK                            x       y       z     vdW  Elec       q    Type
REMARK                         _______ _______ _______ _____ _____    ______ ____
ROOT
ATOM      1  C   UNL     1      34.394 -22.967 -16.498  0.00  0.00    -0.002 C 
ATOM      2  C   UNL     1      33.844 -21.450 -18.762  0.00  0.00    +0.054 C 
ATOM      3  C   UNL     1      35.437 -22.362 -17.190  0.00  0.00    -0.002 C 
ATOM      4  C   UNL     1      33.080 -22.822 -16.926  0.00  0.00    -0.002 C 
ATOM      5  C   UNL     1      35.161 -21.601 -18.326  0.00  0.00    +0.004 C 
ATOM      6  C   UNL     1      32.803 -22.061 -18.061  0.00  0.00    +0.004 C 
ENDROOT
BRANCH   2   9
ATOM      7  O   UNL     1      32.383 -20.564 -20.340  0.00  0.00    -0.270 OA
ATOM      8  N   UNL     1      34.660 -20.032 -20.546  0.00  0.00    -0.279 N 
ATOM      9  C   UNL     1      33.557 -20.659 -19.947  0.00  0.00    +0.250 C 
ATOM     10  H   UNL     1      35.531 -20.201 -20.120  0.00  0.00    +0.155 HD
BRANCH   8  11
ATOM     11  C   UNL     1      34.684 -19.189 -21.683  0.00  0.00    +0.064 C 
ATOM     12  C   UNL     1      35.174 -17.896 -21.586  0.00  0.00    +0.055 C 
ATOM     13  C   UNL     1      34.207 -19.690 -22.884  0.00  0.00    +0.016 C 
ATOM     14  C   UNL     1      35.187 -17.084 -22.721  0.00  0.00    +0.015 C 
ATOM     15  C   UNL     1      34.220 -18.878 -24.018  0.00  0.00    +0.001 C 
ATOM     16  C   UNL     1      34.710 -17.574 -23.936  0.00  0.00    +0.001 C 
BRANCH  12  17
ATOM     17  N   UNL     1      35.663 -17.379 -20.366  0.00  0.00    -0.356 N 
ATOM     18  H   UNL     1      36.389 -17.844 -19.891  0.00  0.00    +0.142 HD
ATOM     19  H   UNL     1      35.278 -16.554 -19.992  0.00  0.00    +0.142 HD
ENDBRANCH  12  17
ENDBRANCH   8  11
ENDBRANCH   2   9
BRANCH   1  20
ATOM     20  C   UNL     1      34.691 -23.785 -15.274  0.00  0.00    +0.119 C 
BRANCH  20  22
ATOM     21  O   UNL     1      34.316 -23.999 -12.402  0.00  0.00    -0.226 OA
ATOM     22  N   UNL     1      33.487 -24.149 -14.563  0.00  0.00    -0.267 N 
ATOM     23  C   UNL     1      33.404 -24.225 -13.189  0.00  0.00    +0.402 C 
ATOM     24  H   UNL     1      32.680 -24.354 -15.090  0.00  0.00    +0.153 HD
BRANCH  23  25
ATOM     25  O   UNL     1      32.139 -24.592 -12.824  0.00  0.00    -0.430 OA
BRANCH  25  26
ATOM     26  C   UNL     1      31.176 -23.534 -12.755  0.00  0.00    +0.238 C 
BRANCH  26  28
ATOM     27  N   UNL     1      28.883 -25.035 -15.341  0.00  0.00    -0.243 NA
ATOM     28  C   UNL     1      30.242 -23.644 -13.925  0.00  0.00    +0.040 C 
ATOM     29  C   UNL     1      29.885 -22.520 -14.648  0.00  0.00    +0.002 C 
ATOM     30  C   UNL     1      29.727 -24.867 -14.298  0.00  0.00    +0.098 C 
ATOM     31  C   UNL     1      29.019 -22.653 -15.726  0.00  0.00    +0.020 C 
ATOM     32  C   UNL     1      28.550 -23.921 -16.030  0.00  0.00    +0.099 C 
ENDBRANCH  26  28
ENDBRANCH  25  26
ENDBRANCH  23  25
ENDBRANCH  20  22
ENDBRANCH   1  20
TORSDOF 8
ENDMDL
MODEL 8
REMARK VINA RESULT:     -10.5      3.637      6.593
REMARK  Name = 4261
REMARK  8 active torsions:
REMARK  status: ('A' for Active; 'I' for Inactive)
REMARK    1  A    between atoms: C_1  and  C_20
REMARK    2  A    between atoms: C_2  and  C_9
REMARK    3  A    between atoms: N_8  and  C_11
REMARK    4  A    between atoms: C_12  and  N_17
REMARK    5  A    between atoms: C_20  and  N_22
REMARK    6  A    between atoms: C_23  and  O_25
REMARK    7  A    between atoms: O_25  and  C_26
REMARK    8  A    between atoms: C_26  and  C_28
REMARK                            x       y       z     vdW  Elec       q    Type
REMARK                         _______ _______ _______ _____ _____    ______ ____
ROOT
ATOM      1  C   UNL     1      33.990 -14.719 -23.965  0.00  0.00    -0.002 C 
ATOM      2  C   UNL     1      34.955 -16.985 -22.673  0.00  0.00    +0.054 C 
ATOM      3  C   UNL     1      34.422 -14.628 -22.646  0.00  0.00    -0.002 C 
ATOM      4  C   UNL     1      34.036 -15.932 -24.644  0.00  0.00    -0.002 C 
ATOM      5  C   UNL     1      34.906 -15.764 -21.999  0.00  0.00    +0.004 C 
ATOM      6  C   UNL     1      34.520 -17.068 -23.996  0.00  0.00    +0.004 C 
ENDROOT
BRANCH   2   9
ATOM      7  O   UNL     1      36.609 -18.561 -22.243  0.00  0.00    -0.270 OA
ATOM      8  N   UNL     1      34.581 -18.769 -21.080  0.00  0.00    -0.279 N 
ATOM      9  C   UNL     1      35.458 -18.169 -21.997  0.00  0.00    +0.250 C 
ATOM     10  H   UNL     1      33.699 -18.343 -20.991  0.00  0.00    +0.155 HD
BRANCH   8  11
ATOM     11  C   UNL     1      34.801 -19.905 -20.265  0.00  0.00    +0.064 C 
ATOM     12  C   UNL     1      33.735 -20.689 -19.853  0.00  0.00    +0.055 C 
ATOM     13  C   UNL     1      36.103 -20.208 -19.896  0.00  0.00    +0.016 C 
ATOM     14  C   UNL     1      33.978 -21.804 -19.050  0.00  0.00    +0.015 C 
ATOM     15  C   UNL     1      36.345 -21.323 -19.093  0.00  0.00    +0.001 C 
ATOM     16  C   UNL     1      35.282 -22.121 -18.670  0.00  0.00    +0.001 C 
BRANCH  12  17
ATOM     17  N   UNL     1      32.406 -20.387 -20.226  0.00  0.00    -0.356 N 
ATOM     18  H   UNL     1      32.211 -20.077 -21.139  0.00  0.00    +0.142 HD
ATOM     19  H   UNL     1      31.677 -20.487 -19.573  0.00  0.00    +0.142 HD
ENDBRANCH  12  17
ENDBRANCH   8  11
ENDBRANCH   2   9
BRANCH   1  20
ATOM     20  C   UNL     1      33.471 -13.496 -24.663  0.00  0.00    +0.119 C 
BRANCH  20  22
ATOM     21  O   UNL     1      34.489 -10.940 -25.593  0.00  0.00    -0.226 OA
ATOM     22  N   UNL     1      33.694 -12.297 -23.889  0.00  0.00    -0.267 N 
ATOM     23  C   UNL     1      34.183 -11.123 -24.420  0.00  0.00    +0.402 C 
ATOM     24  H   UNL     1      33.484 -12.319 -22.927  0.00  0.00    +0.153 HD
BRANCH  23  25
ATOM     25  O   UNL     1      34.280 -10.178 -23.438  0.00  0.00    -0.430 OA
BRANCH  25  26
ATOM     26  C   UNL     1      34.998  -8.988 -23.784  0.00  0.00    +0.238 C 
BRANCH  26  28
ATOM     27  N   UNL     1      32.378  -6.883 -22.079  0.00  0.00    -0.243 NA
ATOM     28  C   UNL     1      34.186  -7.791 -23.381  0.00  0.00    +0.040 C 
ATOM     29  C   UNL     1      34.467  -6.542 -23.905  0.00  0.00    +0.002 C 
ATOM     30  C   UNL     1      33.148  -7.918 -22.483  0.00  0.00    +0.098 C 
ATOM     31  C   UNL     1      33.697  -5.453 -23.514  0.00  0.00    +0.020 C 
ATOM     32  C   UNL     1      32.674  -5.673 -22.606  0.00  0.00    +0.099 C 
ENDBRANCH  26  28
ENDBRANCH  25  26
ENDBRANCH  23  25
ENDBRANCH  20  22
ENDBRANCH   1  20
TORSDOF 8
ENDMDL
MODEL 9
REMARK VINA RESULT:     -10.4      2.063      2.602
REMARK  Name = 4261
REMARK  8 active torsions:
REMARK  status: ('A' for Active; 'I' for Inactive)
REMARK    1  A    between atoms: C_1  and  C_20
REMARK    2  A    between atoms: C_2  and  C_9
REMARK    3  A    between atoms: N_8  and  C_11
REMARK    4  A    between atoms: C_12  and  N_17
REMARK    5  A    between atoms: C_20  and  N_22
REMARK    6  A    between atoms: C_23  and  O_25
REMARK    7  A    between atoms: O_25  and  C_26
REMARK    8  A    between atoms: C_26  and  C_28
REMARK                            x       y       z     vdW  Elec       q    Type
REMARK                         _______ _______ _______ _____ _____    ______ ____
ROOT
ATOM      1  C   UNL     1      35.598 -19.260 -21.397  0.00  0.00    -0.002 C 
ATOM      2  C   UNL     1      34.932 -21.100 -19.422  0.00  0.00    +0.054 C 
ATOM      3  C   UNL     1      34.271 -19.642 -21.232  0.00  0.00    -0.002 C 
ATOM      4  C   UNL     1      36.595 -19.788 -20.584  0.00  0.00    -0.002 C 
ATOM      5  C   UNL     1      33.938 -20.565 -20.241  0.00  0.00    +0.004 C 
ATOM      6  C   UNL     1      36.261 -20.710 -19.593  0.00  0.00    +0.004 C 
ENDROOT
BRANCH   2   9
ATOM      7  O   UNL     1      33.685 -22.889 -18.614  0.00  0.00    -0.270 OA
ATOM      8  N   UNL     1      35.333 -21.989 -17.206  0.00  0.00    -0.279 N 
ATOM      9  C   UNL     1      34.584 -22.063 -18.390  0.00  0.00    +0.250 C 
ATOM     10  H   UNL     1      36.014 -21.279 -17.175  0.00  0.00    +0.155 HD
BRANCH   8  11
ATOM     11  C   UNL     1      35.237 -22.802 -16.051  0.00  0.00    +0.064 C 
ATOM     12  C   UNL     1      36.380 -23.191 -15.372  0.00  0.00    +0.055 C 
ATOM     13  C   UNL     1      33.977 -23.192 -15.623  0.00  0.00    +0.016 C 
ATOM     14  C   UNL     1      36.261 -23.993 -14.236  0.00  0.00    +0.015 C 
ATOM     15  C   UNL     1      33.858 -23.993 -14.488  0.00  0.00    +0.001 C 
ATOM     16  C   UNL     1      35.000 -24.393 -13.794  0.00  0.00    +0.001 C 
BRANCH  12  17
ATOM     17  N   UNL     1      37.668 -22.796 -15.801  0.00  0.00    -0.356 N 
ATOM     18  H   UNL     1      38.278 -23.459 -16.196  0.00  0.00    +0.142 HD
ATOM     19  H   UNL     1      37.953 -21.860 -15.704  0.00  0.00    +0.142 HD
ENDBRANCH  12  17
ENDBRANCH   8  11
ENDBRANCH   2   9
BRANCH   1  20
ATOM     20  C   UNL     1      35.957 -18.265 -22.462  0.00  0.00    +0.119 C 
BRANCH  20  22
ATOM     21  O   UNL     1      34.992 -16.663 -24.684  0.00  0.00    -0.226 OA
ATOM     22  N   UNL     1      35.120 -17.089 -22.408  0.00  0.00    -0.267 N 
ATOM     23  C   UNL     1      34.710 -16.390 -23.523  0.00  0.00    +0.402 C 
ATOM     24  H   UNL     1      34.825 -16.769 -21.525  0.00  0.00    +0.153 HD
BRANCH  23  25
ATOM     25  O   UNL     1      33.931 -15.333 -23.143  0.00  0.00    -0.430 OA
BRANCH  25  26
ATOM     26  C   UNL     1      34.408 -14.575 -22.025  0.00  0.00    +0.238 C 
BRANCH  26  28
ATOM     27  N   UNL     1      32.612 -11.309 -22.576  0.00  0.00    -0.243 NA
ATOM     28  C   UNL     1      33.492 -13.409 -21.798  0.00  0.00    +0.040 C 
ATOM     29  C   UNL     1      32.710 -13.339 -20.658  0.00  0.00    +0.002 C 
ATOM     30  C   UNL     1      33.415 -12.387 -22.720  0.00  0.00    +0.098 C 
ATOM     31  C   UNL     1      31.872 -12.246 -20.475  0.00  0.00    +0.020 C 
ATOM     32  C   UNL     1      31.859 -11.266 -21.454  0.00  0.00    +0.099 C 
ENDBRANCH  26  28
ENDBRANCH  25  26
ENDBRANCH  23  25
ENDBRANCH  20  22
ENDBRANCH   1  20
TORSDOF 8
ENDMDL
