MODEL 1
REMARK VINA RESULT:     -11.4      0.000      0.000
REMARK  Name = 100472
REMARK  3 active torsions:
REMARK  status: ('A' for Active; 'I' for Inactive)
REMARK    1  A    between atoms: C_1  and  C_13
REMARK    2  A    between atoms: C_2  and  C_7
REMARK    3  A    between atoms: C_13  and  C_16
REMARK                            x       y       z     vdW  Elec       q    Type
REMARK                         _______ _______ _______ _____ _____    ______ ____
ROOT
ATOM      1  C   UNL     1      34.959 -19.696 -21.343  0.00  0.00    -0.013 C 
ATOM      2  C   UNL     1      34.345 -21.217 -19.086  0.00  0.00    -0.000 C 
ATOM      3  C   UNL     1      35.984 -20.241 -20.568  0.00  0.00    -0.004 C 
ATOM      4  C   UNL     1      33.627 -19.911 -20.988  0.00  0.00    -0.004 C 
ATOM      5  C   UNL     1      35.676 -21.002 -19.441  0.00  0.00    -0.000 C 
ATOM      6  C   UNL     1      33.320 -20.672 -19.860  0.00  0.00    -0.000 C 
ENDROOT
BRANCH   2   7
ATOM      7  C   UNL     1      34.025 -22.006 -17.915  0.00  0.00    -0.000 C 
ATOM      8  C   UNL     1      35.034 -22.375 -17.027  0.00  0.00    -0.000 C 
ATOM      9  C   UNL     1      32.708 -22.396 -17.676  0.00  0.00    -0.000 C 
ATOM     10  C   UNL     1      34.727 -23.135 -15.898  0.00  0.00    +0.000 C 
ATOM     11  C   UNL     1      32.399 -23.155 -16.547  0.00  0.00    +0.000 C 
ATOM     12  C   UNL     1      33.410 -23.524 -15.659  0.00  0.00    +0.000 C 
ENDBRANCH   2   7
BRANCH   1  13
ATOM     13  C   UNL     1      35.288 -18.883 -22.549  0.00  0.00    +0.112 C 
BRANCH  13  16
ATOM     14  O   UNL     1      35.376 -16.820 -21.305  0.00  0.00    -0.274 OA
ATOM     15  N   UNL     1      34.563 -16.799 -23.508  0.00  0.00    -0.269 N 
ATOM     16  C   UNL     1      35.089 -17.382 -22.358  0.00  0.00    +0.232 C 
ATOM     17  H   UNL     1      34.393 -17.406 -24.265  0.00  0.00    +0.156 HD
ATOM     18  N   UNL     1      33.742 -15.083 -24.913  0.00  0.00    -0.229 NA
ATOM     19  C   UNL     1      34.244 -15.436 -23.716  0.00  0.00    +0.134 C 
ATOM     20  C   UNL     1      34.478 -14.574 -22.666  0.00  0.00    +0.034 C 
ATOM     21  C   UNL     1      34.169 -13.233 -22.861  0.00  0.00    +0.004 C 
ATOM     22  C   UNL     1      33.647 -12.815 -24.081  0.00  0.00    +0.021 C 
ATOM     23  C   UNL     1      33.454 -13.771 -25.065  0.00  0.00    +0.100 C 
ENDBRANCH  13  16
ENDBRANCH   1  13
TORSDOF 3
ENDMDL
MODEL 2
REMARK VINA RESULT:     -11.1      2.204      8.964
REMARK  Name = 100472
REMARK  3 active torsions:
REMARK  status: ('A' for Active; 'I' for Inactive)
REMARK    1  A    between atoms: C_1  and  C_13
REMARK    2  A    between atoms: C_2  and  C_7
REMARK    3  A    between atoms: C_13  and  C_16
REMARK                            x       y       z     vdW  Elec       q    Type
REMARK                         _______ _______ _______ _____ _____    ______ ____
ROOT
ATOM      1  C   UNL     1      34.825 -16.592 -23.128  0.00  0.00    -0.013 C 
ATOM      2  C   UNL     1      33.870 -13.979 -22.917  0.00  0.00    -0.000 C 
ATOM      3  C   UNL     1      34.202 -15.986 -24.220  0.00  0.00    -0.004 C 
ATOM      4  C   UNL     1      34.970 -15.890 -21.931  0.00  0.00    -0.004 C 
ATOM      5  C   UNL     1      33.725 -14.680 -24.114  0.00  0.00    -0.000 C 
ATOM      6  C   UNL     1      34.494 -14.584 -21.826  0.00  0.00    -0.000 C 
ENDROOT
BRANCH   2   7
ATOM      7  C   UNL     1      33.375 -12.624 -22.808  0.00  0.00    -0.000 C 
ATOM      8  C   UNL     1      32.425 -12.304 -21.838  0.00  0.00    -0.000 C 
ATOM      9  C   UNL     1      33.848 -11.637 -23.672  0.00  0.00    -0.000 C 
ATOM     10  C   UNL     1      31.948 -10.998 -21.732  0.00  0.00    +0.000 C 
ATOM     11  C   UNL     1      33.371 -10.330 -23.567  0.00  0.00    +0.000 C 
ATOM     12  C   UNL     1      32.421 -10.011 -22.596  0.00  0.00    +0.000 C 
ENDBRANCH   2   7
BRANCH   1  13
ATOM     13  C   UNL     1      35.335 -17.989 -23.241  0.00  0.00    +0.112 C 
BRANCH  13  16
ATOM     14  O   UNL     1      33.530 -19.303 -22.333  0.00  0.00    -0.274 OA
ATOM     15  N   UNL     1      35.634 -19.366 -21.291  0.00  0.00    -0.269 N 
ATOM     16  C   UNL     1      34.705 -18.961 -22.247  0.00  0.00    +0.232 C 
ATOM     17  H   UNL     1      36.539 -18.987 -21.375  0.00  0.00    +0.156 HD
ATOM     18  N   UNL     1      36.468 -20.515 -19.399  0.00  0.00    -0.229 NA
ATOM     19  C   UNL     1      35.428 -20.258 -20.212  0.00  0.00    +0.134 C 
ATOM     20  C   UNL     1      34.166 -20.798 -20.082  0.00  0.00    +0.034 C 
ATOM     21  C   UNL     1      33.953 -21.676 -19.025  0.00  0.00    +0.004 C 
ATOM     22  C   UNL     1      34.997 -21.975 -18.156  0.00  0.00    +0.021 C 
ATOM     23  C   UNL     1      36.224 -21.374 -18.385  0.00  0.00    +0.100 C 
ENDBRANCH  13  16
ENDBRANCH   1  13
TORSDOF 3
ENDMDL
MODEL 3
REMARK VINA RESULT:     -11.0      2.090      3.368
REMARK  Name = 100472
REMARK  3 active torsions:
REMARK  status: ('A' for Active; 'I' for Inactive)
REMARK    1  A    between atoms: C_1  and  C_13
REMARK    2  A    between atoms: C_2  and  C_7
REMARK    3  A    between atoms: C_13  and  C_16
REMARK                            x       y       z     vdW  Elec       q    Type
REMARK                         _______ _______ _______ _____ _____    ______ ____
ROOT
ATOM      1  C   UNL     1      34.901 -17.245 -23.246  0.00  0.00    -0.013 C 
ATOM      2  C   UNL     1      34.814 -19.200 -21.256  0.00  0.00    -0.000 C 
ATOM      3  C   UNL     1      35.568 -17.041 -22.037  0.00  0.00    -0.004 C 
ATOM      4  C   UNL     1      34.190 -18.427 -23.459  0.00  0.00    -0.004 C 
ATOM      5  C   UNL     1      35.525 -18.018 -21.043  0.00  0.00    -0.000 C 
ATOM      6  C   UNL     1      34.147 -19.404 -22.464  0.00  0.00    -0.000 C 
ENDROOT
BRANCH   2   7
ATOM      7  C   UNL     1      34.768 -20.213 -20.224  0.00  0.00    -0.000 C 
ATOM      8  C   UNL     1      35.952 -20.694 -19.666  0.00  0.00    -0.000 C 
ATOM      9  C   UNL     1      33.540 -20.709 -19.788  0.00  0.00    -0.000 C 
ATOM     10  C   UNL     1      35.908 -21.671 -18.671  0.00  0.00    +0.000 C 
ATOM     11  C   UNL     1      33.495 -21.685 -18.793  0.00  0.00    +0.000 C 
ATOM     12  C   UNL     1      34.680 -22.166 -18.235  0.00  0.00    +0.000 C 
ENDBRANCH   2   7
BRANCH   1  13
ATOM     13  C   UNL     1      34.947 -16.201 -24.309  0.00  0.00    +0.112 C 
BRANCH  13  16
ATOM     14  O   UNL     1      33.582 -14.308 -24.914  0.00  0.00    -0.274 OA
ATOM     15  N   UNL     1      33.963 -14.771 -22.643  0.00  0.00    -0.269 N 
ATOM     16  C   UNL     1      34.082 -14.978 -24.015  0.00  0.00    +0.232 C 
ATOM     17  H   UNL     1      34.435 -15.412 -22.063  0.00  0.00    +0.156 HD
ATOM     18  N   UNL     1      33.261 -13.728 -20.640  0.00  0.00    -0.229 NA
ATOM     19  C   UNL     1      33.244 -13.745 -21.984  0.00  0.00    +0.134 C 
ATOM     20  C   UNL     1      32.576 -12.841 -22.783  0.00  0.00    +0.034 C 
ATOM     21  C   UNL     1      31.867 -11.830 -22.145  0.00  0.00    +0.004 C 
ATOM     22  C   UNL     1      31.852 -11.767 -20.756  0.00  0.00    +0.021 C 
ATOM     23  C   UNL     1      32.559 -12.732 -20.056  0.00  0.00    +0.100 C 
ENDBRANCH  13  16
ENDBRANCH   1  13
TORSDOF 3
ENDMDL
MODEL 4
REMARK VINA RESULT:     -11.0      4.086      9.403
REMARK  Name = 100472
REMARK  3 active torsions:
REMARK  status: ('A' for Active; 'I' for Inactive)
REMARK    1  A    between atoms: C_1  and  C_13
REMARK    2  A    between atoms: C_2  and  C_7
REMARK    3  A    between atoms: C_13  and  C_16
REMARK                            x       y       z     vdW  Elec       q    Type
REMARK                         _______ _______ _______ _____ _____    ______ ____
ROOT
ATOM      1  C   UNL     1      34.689 -21.506 -18.836  0.00  0.00    -0.013 C 
ATOM      2  C   UNL     1      34.716 -19.669 -20.937  0.00  0.00    -0.000 C 
ATOM      3  C   UNL     1      33.489 -21.082 -19.408  0.00  0.00    -0.004 C 
ATOM      4  C   UNL     1      35.903 -21.011 -19.315  0.00  0.00    -0.004 C 
ATOM      5  C   UNL     1      33.503 -20.164 -20.458  0.00  0.00    -0.000 C 
ATOM      6  C   UNL     1      35.916 -20.093 -20.365  0.00  0.00    -0.000 C 
ENDROOT
BRANCH   2   7
ATOM      7  C   UNL     1      34.731 -18.717 -22.026  0.00  0.00    -0.000 C 
ATOM      8  C   UNL     1      35.309 -17.461 -21.846  0.00  0.00    -0.000 C 
ATOM      9  C   UNL     1      34.166 -19.055 -23.255  0.00  0.00    -0.000 C 
ATOM     10  C   UNL     1      35.323 -16.542 -22.896  0.00  0.00    +0.000 C 
ATOM     11  C   UNL     1      34.181 -18.138 -24.306  0.00  0.00    +0.000 C 
ATOM     12  C   UNL     1      34.760 -16.881 -24.125  0.00  0.00    +0.000 C 
ENDBRANCH   2   7
BRANCH   1  13
ATOM     13  C   UNL     1      34.675 -22.488 -17.714  0.00  0.00    +0.112 C 
BRANCH  13  16
ATOM     14  O   UNL     1      32.265 -22.501 -17.792  0.00  0.00    -0.274 OA
ATOM     15  N   UNL     1      33.358 -23.368 -15.903  0.00  0.00    -0.269 N 
ATOM     16  C   UNL     1      33.281 -22.776 -17.161  0.00  0.00    +0.232 C 
ATOM     17  H   UNL     1      34.264 -23.516 -15.546  0.00  0.00    +0.156 HD
ATOM     18  N   UNL     1      32.584 -24.334 -13.888  0.00  0.00    -0.229 NA
ATOM     19  C   UNL     1      32.286 -23.781 -15.076  0.00  0.00    +0.134 C 
ATOM     20  C   UNL     1      31.012 -23.581 -15.564  0.00  0.00    +0.034 C 
ATOM     21  C   UNL     1      29.952 -23.984 -14.760  0.00  0.00    +0.004 C 
ATOM     22  C   UNL     1      30.206 -24.563 -13.521  0.00  0.00    +0.021 C 
ATOM     23  C   UNL     1      31.527 -24.715 -13.135  0.00  0.00    +0.100 C 
ENDBRANCH  13  16
ENDBRANCH   1  13
TORSDOF 3
ENDMDL
MODEL 5
REMARK VINA RESULT:     -10.9      2.130      8.639
REMARK  Name = 100472
REMARK  3 active torsions:
REMARK  status: ('A' for Active; 'I' for Inactive)
REMARK    1  A    between atoms: C_1  and  C_13
REMARK    2  A    between atoms: C_2  and  C_7
REMARK    3  A    between atoms: C_13  and  C_16
REMARK                            x       y       z     vdW  Elec       q    Type
REMARK                         _______ _______ _______ _____ _____    ______ ____
ROOT
ATOM      1  C   UNL     1      34.669 -16.219 -23.407  0.00  0.00    -0.013 C 
ATOM      2  C   UNL     1      33.569 -13.746 -22.729  0.00  0.00    -0.000 C 
ATOM      3  C   UNL     1      34.843 -15.707 -22.121  0.00  0.00    -0.004 C 
ATOM      4  C   UNL     1      33.946 -15.494 -24.354  0.00  0.00    -0.004 C 
ATOM      5  C   UNL     1      34.293 -14.471 -21.782  0.00  0.00    -0.000 C 
ATOM      6  C   UNL     1      33.396 -14.258 -24.015  0.00  0.00    -0.000 C 
ENDROOT
BRANCH   2   7
ATOM      7  C   UNL     1      32.999 -12.463 -22.378  0.00  0.00    -0.000 C 
ATOM      8  C   UNL     1      33.341 -11.325 -23.107  0.00  0.00    -0.000 C 
ATOM      9  C   UNL     1      32.108 -12.366 -21.310  0.00  0.00    -0.000 C 
ATOM     10  C   UNL     1      32.791 -10.089 -22.769  0.00  0.00    +0.000 C 
ATOM     11  C   UNL     1      31.557 -11.130 -20.971  0.00  0.00    +0.000 C 
ATOM     12  C   UNL     1      31.899  -9.991 -21.702  0.00  0.00    +0.000 C 
ENDBRANCH   2   7
BRANCH   1  13
ATOM     13  C   UNL     1      35.257 -17.541 -23.769  0.00  0.00    +0.112 C 
BRANCH  13  16
ATOM     14  O   UNL     1      36.756 -18.546 -22.172  0.00  0.00    -0.274 OA
ATOM     15  N   UNL     1      34.456 -19.000 -22.033  0.00  0.00    -0.269 N 
ATOM     16  C   UNL     1      35.602 -18.416 -22.567  0.00  0.00    +0.232 C 
ATOM     17  H   UNL     1      33.607 -18.783 -22.482  0.00  0.00    +0.156 HD
ATOM     18  N   UNL     1      33.154 -20.324 -20.568  0.00  0.00    -0.229 NA
ATOM     19  C   UNL     1      34.370 -19.870 -20.920  0.00  0.00    +0.134 C 
ATOM     20  C   UNL     1      35.551 -20.181 -20.279  0.00  0.00    +0.034 C 
ATOM     21  C   UNL     1      35.477 -21.034 -19.184  0.00  0.00    +0.004 C 
ATOM     22  C   UNL     1      34.243 -21.531 -18.779  0.00  0.00    +0.021 C 
ATOM     23  C   UNL     1      33.122 -21.149 -19.498  0.00  0.00    +0.100 C 
ENDBRANCH  13  16
ENDBRANCH   1  13
TORSDOF 3
ENDMDL
MODEL 6
REMARK VINA RESULT:     -10.9      4.262      8.789
REMARK  Name = 100472
REMARK  3 active torsions:
REMARK  status: ('A' for Active; 'I' for Inactive)
REMARK    1  A    between atoms: C_1  and  C_13
REMARK    2  A    between atoms: C_2  and  C_7
REMARK    3  A    between atoms: C_13  and  C_16
REMARK                            x       y       z     vdW  Elec       q    Type
REMARK                         _______ _______ _______ _____ _____    ______ ____
ROOT
ATOM      1  C   UNL     1      33.932 -22.277 -18.241  0.00  0.00    -0.013 C 
ATOM      2  C   UNL     1      34.431 -20.298 -20.143  0.00  0.00    -0.000 C 
ATOM      3  C   UNL     1      32.868 -21.632 -18.873  0.00  0.00    -0.004 C 
ATOM      4  C   UNL     1      35.245 -21.932 -18.561  0.00  0.00    -0.004 C 
ATOM      5  C   UNL     1      33.118 -20.643 -19.824  0.00  0.00    -0.000 C 
ATOM      6  C   UNL     1      35.495 -20.943 -19.512  0.00  0.00    -0.000 C 
ENDROOT
BRANCH   2   7
ATOM      7  C   UNL     1      34.691 -19.271 -21.129  0.00  0.00    -0.000 C 
ATOM      8  C   UNL     1      34.215 -19.419 -22.432  0.00  0.00    -0.000 C 
ATOM      9  C   UNL     1      35.417 -18.134 -20.777  0.00  0.00    -0.000 C 
ATOM     10  C   UNL     1      34.464 -18.428 -23.382  0.00  0.00    +0.000 C 
ATOM     11  C   UNL     1      35.667 -17.143 -21.726  0.00  0.00    +0.000 C 
ATOM     12  C   UNL     1      35.190 -17.291 -23.029  0.00  0.00    +0.000 C 
ENDBRANCH   2   7
BRANCH   1  13
ATOM     13  C   UNL     1      33.665 -23.335 -17.225  0.00  0.00    +0.112 C 
BRANCH  13  16
ATOM     14  O   UNL     1      32.796 -22.633 -15.089  0.00  0.00    -0.274 OA
ATOM     15  N   UNL     1      31.301 -23.113 -16.836  0.00  0.00    -0.269 N 
ATOM     16  C   UNL     1      32.553 -22.982 -16.240  0.00  0.00    +0.232 C 
ATOM     17  H   UNL     1      31.295 -23.407 -17.776  0.00  0.00    +0.156 HD
ATOM     18  N   UNL     1      28.943 -23.065 -17.006  0.00  0.00    -0.229 NA
ATOM     19  C   UNL     1      30.037 -22.875 -16.247  0.00  0.00    +0.134 C 
ATOM     20  C   UNL     1      30.030 -22.462 -14.931  0.00  0.00    +0.034 C 
ATOM     21  C   UNL     1      28.793 -22.225 -14.344  0.00  0.00    +0.004 C 
ATOM     22  C   UNL     1      27.630 -22.405 -15.086  0.00  0.00    +0.021 C 
ATOM     23  C   UNL     1      27.759 -22.822 -16.401  0.00  0.00    +0.100 C 
ENDBRANCH  13  16
ENDBRANCH   1  13
TORSDOF 3
ENDMDL
MODEL 7
REMARK VINA RESULT:     -10.7      1.136      2.039
REMARK  Name = 100472
REMARK  3 active torsions:
REMARK  status: ('A' for Active; 'I' for Inactive)
REMARK    1  A    between atoms: C_1  and  C_13
REMARK    2  A    between atoms: C_2  and  C_7
REMARK    3  A    between atoms: C_13  and  C_16
REMARK                            x       y       z     vdW  Elec       q    Type
REMARK                         _______ _______ _______ _____ _____    ______ ____
ROOT
ATOM      1  C   UNL     1      35.298 -20.752 -19.913  0.00  0.00    -0.013 C 
ATOM      2  C   UNL     1      33.952 -22.018 -17.821  0.00  0.00    -0.000 C 
ATOM      3  C   UNL     1      36.019 -21.402 -18.910  0.00  0.00    -0.004 C 
ATOM      4  C   UNL     1      33.904 -20.736 -19.869  0.00  0.00    -0.004 C 
ATOM      5  C   UNL     1      35.346 -22.034 -17.865  0.00  0.00    -0.000 C 
ATOM      6  C   UNL     1      33.231 -21.368 -18.824  0.00  0.00    -0.000 C 
ENDROOT
BRANCH   2   7
ATOM      7  C   UNL     1      33.254 -22.673 -16.737  0.00  0.00    -0.000 C 
ATOM      8  C   UNL     1      31.861 -22.736 -16.741  0.00  0.00    -0.000 C 
ATOM      9  C   UNL     1      33.975 -23.243 -15.688  0.00  0.00    -0.000 C 
ATOM     10  C   UNL     1      31.188 -23.368 -15.695  0.00  0.00    +0.000 C 
ATOM     11  C   UNL     1      33.302 -23.876 -14.642  0.00  0.00    +0.000 C 
ATOM     12  C   UNL     1      31.909 -23.938 -14.647  0.00  0.00    +0.000 C 
ENDBRANCH   2   7
BRANCH   1  13
ATOM     13  C   UNL     1      36.018 -20.076 -21.030  0.00  0.00    +0.112 C 
BRANCH  13  16
ATOM     14  O   UNL     1      35.841 -17.806 -20.241  0.00  0.00    -0.274 OA
ATOM     15  N   UNL     1      35.222 -18.305 -22.451  0.00  0.00    -0.269 N 
ATOM     16  C   UNL     1      35.690 -18.592 -21.171  0.00  0.00    +0.232 C 
ATOM     17  H   UNL     1      35.165 -19.065 -23.074  0.00  0.00    +0.156 HD
ATOM     18  N   UNL     1      34.398 -16.990 -24.236  0.00  0.00    -0.229 NA
ATOM     19  C   UNL     1      34.820 -17.047 -22.960  0.00  0.00    +0.134 C 
ATOM     20  C   UNL     1      34.897 -15.973 -22.099  0.00  0.00    +0.034 C 
ATOM     21  C   UNL     1      34.505 -14.733 -22.590  0.00  0.00    +0.004 C 
ATOM     22  C   UNL     1      34.060 -14.620 -23.903  0.00  0.00    +0.021 C 
ATOM     23  C   UNL     1      34.026 -15.768 -24.678  0.00  0.00    +0.100 C 
ENDBRANCH  13  16
ENDBRANCH   1  13
TORSDOF 3
ENDMDL
MODEL 8
REMARK VINA RESULT:     -10.5      4.437      9.681
REMARK  Name = 100472
REMARK  3 active torsions:
REMARK  status: ('A' for Active; 'I' for Inactive)
REMARK    1  A    between atoms: C_1  and  C_13
REMARK    2  A    between atoms: C_2  and  C_7
REMARK    3  A    between atoms: C_13  and  C_16
REMARK                            x       y       z     vdW  Elec       q    Type
REMARK                         _______ _______ _______ _____ _____    ______ ____
ROOT
ATOM      1  C   UNL     1      34.133 -21.994 -18.335  0.00  0.00    -0.013 C 
ATOM      2  C   UNL     1      34.494 -20.132 -20.382  0.00  0.00    -0.000 C 
ATOM      3  C   UNL     1      33.029 -21.350 -18.896  0.00  0.00    -0.004 C 
ATOM      4  C   UNL     1      35.417 -21.706 -18.798  0.00  0.00    -0.004 C 
ATOM      5  C   UNL     1      33.210 -20.420 -19.919  0.00  0.00    -0.000 C 
ATOM      6  C   UNL     1      35.598 -20.776 -19.821  0.00  0.00    -0.000 C 
ENDROOT
BRANCH   2   7
ATOM      7  C   UNL     1      34.682 -19.166 -21.443  0.00  0.00    -0.000 C 
ATOM      8  C   UNL     1      34.150 -19.409 -22.709  0.00  0.00    -0.000 C 
ATOM      9  C   UNL     1      35.395 -17.993 -21.199  0.00  0.00    -0.000 C 
ATOM     10  C   UNL     1      34.330 -18.477 -23.732  0.00  0.00    +0.000 C 
ATOM     11  C   UNL     1      35.576 -17.061 -22.221  0.00  0.00    +0.000 C 
ATOM     12  C   UNL     1      35.043 -17.304 -23.488  0.00  0.00    +0.000 C 
ENDBRANCH   2   7
BRANCH   1  13
ATOM     13  C   UNL     1      33.939 -22.988 -17.241  0.00  0.00    +0.112 C 
BRANCH  13  16
ATOM     14  O   UNL     1      36.137 -22.504 -16.377  0.00  0.00    -0.274 OA
ATOM     15  N   UNL     1      34.511 -23.403 -14.941  0.00  0.00    -0.269 N 
ATOM     16  C   UNL     1      35.008 -22.928 -16.152  0.00  0.00    +0.232 C 
ATOM     17  H   UNL     1      33.574 -23.706 -14.944  0.00  0.00    +0.156 HD
ATOM     18  N   UNL     1      34.525 -23.994 -12.651  0.00  0.00    -0.229 NA
ATOM     19  C   UNL     1      35.197 -23.502 -13.707  0.00  0.00    +0.134 C 
ATOM     20  C   UNL     1      36.509 -23.080 -13.688  0.00  0.00    +0.034 C 
ATOM     21  C   UNL     1      37.191 -23.173 -12.480  0.00  0.00    +0.004 C 
ATOM     22  C   UNL     1      36.541 -23.674 -11.357  0.00  0.00    +0.021 C 
ATOM     23  C   UNL     1      35.220 -24.067 -11.494  0.00  0.00    +0.100 C 
ENDBRANCH  13  16
ENDBRANCH   1  13
TORSDOF 3
ENDMDL
MODEL 9
REMARK VINA RESULT:     -10.4      1.036      1.666
REMARK  Name = 100472
REMARK  3 active torsions:
REMARK  status: ('A' for Active; 'I' for Inactive)
REMARK    1  A    between atoms: C_1  and  C_13
REMARK    2  A    between atoms: C_2  and  C_7
REMARK    3  A    between atoms: C_13  and  C_16
REMARK                            x       y       z     vdW  Elec       q    Type
REMARK                         _______ _______ _______ _____ _____    ______ ____
ROOT
ATOM      1  C   UNL     1      35.215 -18.946 -22.050  0.00  0.00    -0.013 C 
ATOM      2  C   UNL     1      35.254 -20.544 -19.763  0.00  0.00    -0.000 C 
ATOM      3  C   UNL     1      34.057 -19.607 -21.641  0.00  0.00    -0.004 C 
ATOM      4  C   UNL     1      36.393 -19.084 -21.315  0.00  0.00    -0.004 C 
ATOM      5  C   UNL     1      34.076 -20.406 -20.498  0.00  0.00    -0.000 C 
ATOM      6  C   UNL     1      36.413 -19.883 -20.172  0.00  0.00    -0.000 C 
ENDROOT
BRANCH   2   7
ATOM      7  C   UNL     1      35.275 -21.373 -18.577  0.00  0.00    -0.000 C 
ATOM      8  C   UNL     1      36.442 -21.481 -17.821  0.00  0.00    -0.000 C 
ATOM      9  C   UNL     1      34.127 -22.065 -18.191  0.00  0.00    -0.000 C 
ATOM     10  C   UNL     1      36.461 -22.280 -16.678  0.00  0.00    +0.000 C 
ATOM     11  C   UNL     1      34.146 -22.864 -17.047  0.00  0.00    +0.000 C 
ATOM     12  C   UNL     1      35.314 -22.970 -16.291  0.00  0.00    +0.000 C 
ENDBRANCH   2   7
BRANCH   1  13
ATOM     13  C   UNL     1      35.194 -18.092 -23.272  0.00  0.00    +0.112 C 
BRANCH  13  16
ATOM     14  O   UNL     1      35.176 -16.118 -21.888  0.00  0.00    -0.274 OA
ATOM     15  N   UNL     1      34.472 -15.960 -24.122  0.00  0.00    -0.269 N 
ATOM     16  C   UNL     1      34.953 -16.611 -22.989  0.00  0.00    +0.232 C 
ATOM     17  H   UNL     1      34.352 -16.517 -24.926  0.00  0.00    +0.156 HD
ATOM     18  N   UNL     1      33.682 -14.167 -25.447  0.00  0.00    -0.229 NA
ATOM     19  C   UNL     1      34.133 -14.592 -24.253  0.00  0.00    +0.134 C 
ATOM     20  C   UNL     1      34.298 -13.800 -23.137  0.00  0.00    +0.034 C 
ATOM     21  C   UNL     1      33.969 -12.455 -23.255  0.00  0.00    +0.004 C 
ATOM     22  C   UNL     1      33.498 -11.964 -24.468  0.00  0.00    +0.021 C 
ATOM     23  C   UNL     1      33.375 -12.853 -25.524  0.00  0.00    +0.100 C 
ENDBRANCH  13  16
ENDBRANCH   1  13
TORSDOF 3
ENDMDL
