MODEL 1
REMARK VINA RESULT:     -11.6      0.000      0.000
REMARK  Name = 9810927
REMARK  6 active torsions:
REMARK  status: ('A' for Active; 'I' for Inactive)
REMARK    1  A    between atoms: N_1  and  C_13
REMARK    2  A    between atoms: C_11  and  O_24
REMARK    3  A    between atoms: C_12  and  O_26
REMARK    4  A    between atoms: C_14  and  C_18
REMARK    5  A    between atoms: C_19  and  C_20
REMARK    6  A    between atoms: N_28  and  C_32
REMARK                            x       y       z     vdW  Elec       q    Type
REMARK                         _______ _______ _______ _____ _____    ______ ____
ROOT
ATOM      1  N   UNL     1      36.208 -23.327 -15.551  0.00  0.00    -0.247 N 
ATOM      2  N   UNL     1      37.315 -21.746 -16.670  0.00  0.00    -0.242 NA
ATOM      3  N   UNL     1      34.191 -23.453 -16.900  0.00  0.00    -0.228 NA
ATOM      4  N   UNL     1      34.273 -21.886 -18.769  0.00  0.00    -0.228 NA
ATOM      5  C   UNL     1      35.403 -22.965 -16.595  0.00  0.00    +0.152 C 
ATOM      6  C   UNL     1      37.344 -22.565 -15.639  0.00  0.00    +0.223 C 
ATOM      7  C   UNL     1      36.108 -21.986 -17.276  0.00  0.00    +0.140 C 
ATOM      8  C   UNL     1      35.500 -21.441 -18.402  0.00  0.00    +0.150 C 
ATOM      9  C   UNL     1      33.703 -22.850 -18.005  0.00  0.00    +0.253 C 
ATOM     10  N   UNL     1      36.143 -20.443 -19.154  0.00  0.00    -0.295 N 
ATOM     11  H   UNL     1      37.029 -20.194 -18.803  0.00  0.00    +0.154 HD
ENDROOT
BRANCH  10  14
ATOM     12 CL   UNL     1      34.582 -17.443 -24.014  0.00  0.00    -0.082 Cl
ATOM     13  F   UNL     1      37.740 -18.404 -20.174  0.00  0.00    -0.203 F 
ATOM     14  C   UNL     1      35.773 -19.727 -20.312  0.00  0.00    +0.077 C 
ATOM     15  C   UNL     1      36.594 -18.710 -20.799  0.00  0.00    +0.154 C 
ATOM     16  C   UNL     1      34.583 -20.037 -20.969  0.00  0.00    +0.018 C 
ATOM     17  C   UNL     1      36.226 -18.004 -21.943  0.00  0.00    +0.042 C 
ATOM     18  C   UNL     1      34.214 -19.330 -22.113  0.00  0.00    +0.013 C 
ATOM     19  C   UNL     1      35.036 -18.315 -22.601  0.00  0.00    +0.060 C 
ENDBRANCH  10  14
BRANCH   1  23
ATOM     20  O   UNL     1      34.500 -24.574 -14.461  0.00  0.00    -0.326 OA
ATOM     21  C   UNL     1      36.372 -23.932 -13.126  0.00  0.00    +0.187 C 
ATOM     22  C   UNL     1      35.087 -23.420 -12.503  0.00  0.00    +0.178 C 
ATOM     23  C   UNL     1      35.920 -24.333 -14.526  0.00  0.00    +0.225 C 
ATOM     24  C   UNL     1      34.041 -24.346 -13.109  0.00  0.00    +0.223 C 
BRANCH  24  28
ATOM     25  O   UNL     1      32.004 -23.946 -14.397  0.00  0.00    -0.421 OA
ATOM     26  N   UNL     1      31.879 -23.292 -12.261  0.00  0.00    -0.109 NA
ATOM     27  N   UNL     1      30.669 -23.007 -12.867  0.00  0.00    -0.112 NA
ATOM     28  C   UNL     1      32.618 -23.835 -13.192  0.00  0.00    +0.255 A 
ATOM     29  C   UNL     1      30.788 -23.405 -14.111  0.00  0.00    +0.225 A 
BRANCH  29  30
ATOM     30  C   UNL     1      29.813 -23.352 -15.208  0.00  0.00    +0.070 C 
ATOM     31  C   UNL     1      29.190 -24.760 -15.531  0.00  0.00    +0.009 C 
ATOM     32  C   UNL     1      30.440 -22.823 -16.550  0.00  0.00    +0.009 C 
ATOM     33  C   UNL     1      28.561 -22.420 -14.973  0.00  0.00    +0.009 C 
ENDBRANCH  29  30
ENDBRANCH  24  28
BRANCH  21  34
ATOM     34  O   UNL     1      36.820 -25.109 -12.456  0.00  0.00    -0.378 OA
ATOM     35  H   UNL     1      37.786 -25.173 -12.528  0.00  0.00    +0.211 HD
ENDBRANCH  21  34
BRANCH  22  36
ATOM     36  O   UNL     1      35.104 -23.489 -11.091  0.00  0.00    -0.379 OA
ATOM     37  H   UNL     1      34.991 -22.598 -10.722  0.00  0.00    +0.211 HD
ENDBRANCH  22  36
ENDBRANCH   1  23
TORSDOF 6
ENDMDL
MODEL 2
REMARK VINA RESULT:     -11.5      3.236      5.884
REMARK  Name = 9810927
REMARK  6 active torsions:
REMARK  status: ('A' for Active; 'I' for Inactive)
REMARK    1  A    between atoms: N_1  and  C_13
REMARK    2  A    between atoms: C_11  and  O_24
REMARK    3  A    between atoms: C_12  and  O_26
REMARK    4  A    between atoms: C_14  and  C_18
REMARK    5  A    between atoms: C_19  and  C_20
REMARK    6  A    between atoms: N_28  and  C_32
REMARK                            x       y       z     vdW  Elec       q    Type
REMARK                         _______ _______ _______ _____ _____    ______ ____
ROOT
ATOM      1  N   UNL     1      36.587 -22.835 -15.389  0.00  0.00    -0.247 N 
ATOM      2  N   UNL     1      37.600 -21.449 -16.814  0.00  0.00    -0.242 NA
ATOM      3  N   UNL     1      34.423 -23.038 -16.476  0.00  0.00    -0.228 NA
ATOM      4  N   UNL     1      34.330 -21.713 -18.523  0.00  0.00    -0.228 NA
ATOM      5  C   UNL     1      35.676 -22.569 -16.373  0.00  0.00    +0.152 C 
ATOM      6  C   UNL     1      37.726 -22.138 -15.699  0.00  0.00    +0.223 C 
ATOM      7  C   UNL     1      36.324 -21.710 -17.246  0.00  0.00    +0.140 C 
ATOM      8  C   UNL     1      35.603 -21.280 -18.356  0.00  0.00    +0.150 C 
ATOM      9  C   UNL     1      33.827 -22.553 -17.586  0.00  0.00    +0.253 C 
ATOM     10  N   UNL     1      36.182 -20.407 -19.294  0.00  0.00    -0.295 N 
ATOM     11  H   UNL     1      37.110 -20.155 -19.079  0.00  0.00    +0.154 HD
ENDROOT
BRANCH  10  14
ATOM     12 CL   UNL     1      34.148 -17.954 -24.283  0.00  0.00    -0.082 Cl
ATOM     13  F   UNL     1      37.783 -18.743 -20.848  0.00  0.00    -0.203 F 
ATOM     14  C   UNL     1      35.699 -19.822 -20.484  0.00  0.00    +0.077 C 
ATOM     15  C   UNL     1      36.526 -18.992 -21.240  0.00  0.00    +0.154 C 
ATOM     16  C   UNL     1      34.393 -20.073 -20.900  0.00  0.00    +0.018 C 
ATOM     17  C   UNL     1      36.046 -18.414 -22.415  0.00  0.00    +0.042 C 
ATOM     18  C   UNL     1      33.912 -19.495 -22.075  0.00  0.00    +0.013 C 
ATOM     19  C   UNL     1      34.739 -18.667 -22.833  0.00  0.00    +0.060 C 
ENDBRANCH  10  14
BRANCH   1  23
ATOM     20  O   UNL     1      37.658 -24.249 -13.804  0.00  0.00    -0.326 OA
ATOM     21  C   UNL     1      35.451 -24.869 -14.471  0.00  0.00    +0.187 C 
ATOM     22  C   UNL     1      36.414 -26.012 -14.731  0.00  0.00    +0.178 C 
ATOM     23  C   UNL     1      36.393 -23.697 -14.220  0.00  0.00    +0.225 C 
ATOM     24  C   UNL     1      37.560 -25.692 -13.781  0.00  0.00    +0.223 C 
BRANCH  24  28
ATOM     25  O   UNL     1      38.970 -27.529 -14.562  0.00  0.00    -0.421 OA
ATOM     26  N   UNL     1      40.095 -25.662 -14.061  0.00  0.00    -0.109 NA
ATOM     27  N   UNL     1      41.008 -26.611 -14.484  0.00  0.00    -0.112 NA
ATOM     28  C   UNL     1      38.928 -26.245 -14.125  0.00  0.00    +0.255 A 
ATOM     29  C   UNL     1      40.307 -27.683 -14.765  0.00  0.00    +0.225 A 
BRANCH  29  30
ATOM     30  C   UNL     1      40.755 -28.991 -15.260  0.00  0.00    +0.070 C 
ATOM     31  C   UNL     1      39.584 -29.832 -15.889  0.00  0.00    +0.009 C 
ATOM     32  C   UNL     1      41.387 -29.882 -14.128  0.00  0.00    +0.009 C 
ATOM     33  C   UNL     1      41.858 -28.961 -16.389  0.00  0.00    +0.009 C 
ENDBRANCH  29  30
ENDBRANCH  24  28
BRANCH  21  34
ATOM     34  O   UNL     1      34.711 -25.100 -13.273  0.00  0.00    -0.378 OA
ATOM     35  H   UNL     1      34.278 -24.276 -12.997  0.00  0.00    +0.211 HD
ENDBRANCH  21  34
BRANCH  22  36
ATOM     36  O   UNL     1      35.840 -27.276 -14.465  0.00  0.00    -0.379 OA
ATOM     37  H   UNL     1      34.889 -27.171 -14.302  0.00  0.00    +0.211 HD
ENDBRANCH  22  36
ENDBRANCH   1  23
TORSDOF 6
ENDMDL
MODEL 3
REMARK VINA RESULT:     -10.8      5.794     10.225
REMARK  Name = 9810927
REMARK  6 active torsions:
REMARK  status: ('A' for Active; 'I' for Inactive)
REMARK    1  A    between atoms: N_1  and  C_13
REMARK    2  A    between atoms: C_11  and  O_24
REMARK    3  A    between atoms: C_12  and  O_26
REMARK    4  A    between atoms: C_14  and  C_18
REMARK    5  A    between atoms: C_19  and  C_20
REMARK    6  A    between atoms: N_28  and  C_32
REMARK                            x       y       z     vdW  Elec       q    Type
REMARK                         _______ _______ _______ _____ _____    ______ ____
ROOT
ATOM      1  N   UNL     1      34.250 -20.067 -20.989  0.00  0.00    -0.247 N 
ATOM      2  N   UNL     1      32.303 -20.513 -19.996  0.00  0.00    -0.242 NA
ATOM      3  N   UNL     1      35.763 -21.196 -19.460  0.00  0.00    -0.228 NA
ATOM      4  N   UNL     1      34.546 -22.255 -17.628  0.00  0.00    -0.228 NA
ATOM      5  C   UNL     1      34.549 -20.808 -19.880  0.00  0.00    +0.152 C 
ATOM      6  C   UNL     1      32.888 -19.916 -21.014  0.00  0.00    +0.223 C 
ATOM      7  C   UNL     1      33.329 -21.074 -19.280  0.00  0.00    +0.140 C 
ATOM      8  C   UNL     1      33.354 -21.828 -18.111  0.00  0.00    +0.150 C 
ATOM      9  C   UNL     1      35.660 -21.917 -18.322  0.00  0.00    +0.253 C 
ATOM     10  N   UNL     1      32.163 -22.147 -17.436  0.00  0.00    -0.295 N 
ATOM     11  H   UNL     1      31.355 -21.790 -17.872  0.00  0.00    +0.154 HD
ENDROOT
BRANCH  10  14
ATOM     12 CL   UNL     1      31.045 -25.210 -12.494  0.00  0.00    -0.082 Cl
ATOM     13  F   UNL     1      29.557 -22.723 -16.647  0.00  0.00    -0.203 F 
ATOM     14  C   UNL     1      31.894 -22.877 -16.259  0.00  0.00    +0.077 C 
ATOM     15  C   UNL     1      30.578 -23.150 -15.890  0.00  0.00    +0.154 C 
ATOM     16  C   UNL     1      32.949 -23.325 -15.464  0.00  0.00    +0.018 C 
ATOM     17  C   UNL     1      30.315 -23.871 -14.726  0.00  0.00    +0.042 C 
ATOM     18  C   UNL     1      32.687 -24.045 -14.299  0.00  0.00    +0.013 C 
ATOM     19  C   UNL     1      31.370 -24.320 -13.930  0.00  0.00    +0.060 C 
ENDBRANCH  10  14
BRANCH   1  23
ATOM     20  O   UNL     1      35.516 -18.162 -21.644  0.00  0.00    -0.326 OA
ATOM     21  C   UNL     1      34.670 -19.539 -23.401  0.00  0.00    +0.187 C 
ATOM     22  C   UNL     1      34.192 -18.110 -23.582  0.00  0.00    +0.178 C 
ATOM     23  C   UNL     1      35.196 -19.529 -21.970  0.00  0.00    +0.225 C 
ATOM     24  C   UNL     1      35.220 -17.321 -22.782  0.00  0.00    +0.223 C 
BRANCH  24  28
ATOM     25  O   UNL     1      34.256 -15.106 -23.146  0.00  0.00    -0.421 OA
ATOM     26  N   UNL     1      34.889 -15.492 -21.036  0.00  0.00    -0.109 NA
ATOM     27  N   UNL     1      34.367 -14.213 -21.098  0.00  0.00    -0.112 NA
ATOM     28  C   UNL     1      34.801 -15.967 -22.250  0.00  0.00    +0.255 A 
ATOM     29  C   UNL     1      34.011 -14.031 -22.348  0.00  0.00    +0.225 A 
BRANCH  29  30
ATOM     30  C   UNL     1      33.397 -12.859 -22.985  0.00  0.00    +0.070 C 
ATOM     31  C   UNL     1      32.064 -12.417 -22.277  0.00  0.00    +0.009 C 
ATOM     32  C   UNL     1      33.039 -13.109 -24.496  0.00  0.00    +0.009 C 
ATOM     33  C   UNL     1      34.275 -11.547 -23.008  0.00  0.00    +0.009 C 
ENDBRANCH  29  30
ENDBRANCH  24  28
BRANCH  21  34
ATOM     34  O   UNL     1      35.768 -19.815 -24.269  0.00  0.00    -0.378 OA
ATOM     35  H   UNL     1      35.462 -19.803 -25.190  0.00  0.00    +0.211 HD
ENDBRANCH  21  34
BRANCH  22  36
ATOM     36  O   UNL     1      34.160 -17.718 -24.940  0.00  0.00    -0.379 OA
ATOM     37  H   UNL     1      34.920 -17.144 -25.129  0.00  0.00    +0.211 HD
ENDBRANCH  22  36
ENDBRANCH   1  23
TORSDOF 6
ENDMDL
MODEL 4
REMARK VINA RESULT:     -10.6      2.345      3.171
REMARK  Name = 9810927
REMARK  6 active torsions:
REMARK  status: ('A' for Active; 'I' for Inactive)
REMARK    1  A    between atoms: N_1  and  C_13
REMARK    2  A    between atoms: C_11  and  O_24
REMARK    3  A    between atoms: C_12  and  O_26
REMARK    4  A    between atoms: C_14  and  C_18
REMARK    5  A    between atoms: C_19  and  C_20
REMARK    6  A    between atoms: N_28  and  C_32
REMARK                            x       y       z     vdW  Elec       q    Type
REMARK                         _______ _______ _______ _____ _____    ______ ____
ROOT
ATOM      1  N   UNL     1      35.730 -21.915 -18.168  0.00  0.00    -0.247 N 
ATOM      2  N   UNL     1      36.854 -20.248 -19.135  0.00  0.00    -0.242 NA
ATOM      3  N   UNL     1      33.565 -21.627 -19.234  0.00  0.00    -0.228 NA
ATOM      4  N   UNL     1      33.587 -19.754 -20.798  0.00  0.00    -0.228 NA
ATOM      5  C   UNL     1      34.849 -21.303 -19.017  0.00  0.00    +0.152 C 
ATOM      6  C   UNL     1      36.920 -21.243 -18.275  0.00  0.00    +0.223 C 
ATOM      7  C   UNL     1      35.566 -20.274 -19.606  0.00  0.00    +0.140 C 
ATOM      8  C   UNL     1      34.888 -19.484 -20.529  0.00  0.00    +0.150 C 
ATOM      9  C   UNL     1      33.015 -20.793 -20.143  0.00  0.00    +0.253 C 
ATOM     10  N   UNL     1      35.537 -18.418 -21.176  0.00  0.00    -0.295 N 
ATOM     11  H   UNL     1      36.479 -18.310 -20.910  0.00  0.00    +0.154 HD
ENDROOT
BRANCH  10  14
ATOM     12 CL   UNL     1      33.741 -14.447 -25.182  0.00  0.00    -0.082 Cl
ATOM     13  F   UNL     1      34.811 -19.185 -23.751  0.00  0.00    -0.203 F 
ATOM     14  C   UNL     1      35.109 -17.473 -22.132  0.00  0.00    +0.077 C 
ATOM     15  C   UNL     1      34.752 -17.889 -23.414  0.00  0.00    +0.154 C 
ATOM     16  C   UNL     1      35.044 -16.123 -21.793  0.00  0.00    +0.018 C 
ATOM     17  C   UNL     1      34.329 -16.953 -24.358  0.00  0.00    +0.042 C 
ATOM     18  C   UNL     1      34.622 -15.186 -22.736  0.00  0.00    +0.013 C 
ATOM     19  C   UNL     1      34.263 -15.601 -24.018  0.00  0.00    +0.060 C 
ENDBRANCH  10  14
BRANCH   1  23
ATOM     20  O   UNL     1      34.081 -23.461 -17.425  0.00  0.00    -0.326 OA
ATOM     21  C   UNL     1      35.726 -22.800 -15.826  0.00  0.00    +0.187 C 
ATOM     22  C   UNL     1      34.335 -22.508 -15.294  0.00  0.00    +0.178 C 
ATOM     23  C   UNL     1      35.463 -23.067 -17.304  0.00  0.00    +0.225 C 
ATOM     24  C   UNL     1      33.469 -23.454 -16.115  0.00  0.00    +0.223 C 
BRANCH  24  28
ATOM     25  O   UNL     1      31.110 -23.826 -15.600  0.00  0.00    -0.421 OA
ATOM     26  N   UNL     1      31.480 -22.152 -17.037  0.00  0.00    -0.109 NA
ATOM     27  N   UNL     1      30.115 -22.250 -16.839  0.00  0.00    -0.112 NA
ATOM     28  C   UNL     1      32.011 -23.088 -16.296  0.00  0.00    +0.255 A 
ATOM     29  C   UNL     1      29.946 -23.240 -15.994  0.00  0.00    +0.225 A 
BRANCH  29  30
ATOM     30  C   UNL     1      28.706 -23.785 -15.427  0.00  0.00    +0.070 C 
ATOM     31  C   UNL     1      27.819 -24.512 -16.503  0.00  0.00    +0.009 C 
ATOM     32  C   UNL     1      27.799 -22.675 -14.777  0.00  0.00    +0.009 C 
ATOM     33  C   UNL     1      28.883 -24.858 -14.283  0.00  0.00    +0.009 C 
ENDBRANCH  29  30
ENDBRANCH  24  28
BRANCH  21  34
ATOM     34  O   UNL     1      36.241 -23.999 -15.250  0.00  0.00    -0.378 OA
ATOM     35  H   UNL     1      36.768 -24.475 -15.912  0.00  0.00    +0.211 HD
ENDBRANCH  21  34
BRANCH  22  36
ATOM     36  O   UNL     1      34.223 -22.753 -13.907  0.00  0.00    -0.379 OA
ATOM     37  H   UNL     1      35.097 -22.970 -13.545  0.00  0.00    +0.211 HD
ENDBRANCH  22  36
ENDBRANCH   1  23
TORSDOF 6
ENDMDL
MODEL 5
REMARK VINA RESULT:     -10.5     12.491     16.745
REMARK  Name = 9810927
REMARK  6 active torsions:
REMARK  status: ('A' for Active; 'I' for Inactive)
REMARK    1  A    between atoms: N_1  and  C_13
REMARK    2  A    between atoms: C_11  and  O_24
REMARK    3  A    between atoms: C_12  and  O_26
REMARK    4  A    between atoms: C_14  and  C_18
REMARK    5  A    between atoms: C_19  and  C_20
REMARK    6  A    between atoms: N_28  and  C_32
REMARK                            x       y       z     vdW  Elec       q    Type
REMARK                         _______ _______ _______ _____ _____    ______ ____
ROOT
ATOM      1  N   UNL     1      31.955  -8.683 -22.397  0.00  0.00    -0.247 N 
ATOM      2  N   UNL     1      33.339  -9.835 -23.713  0.00  0.00    -0.242 NA
ATOM      3  N   UNL     1      31.244 -10.454 -20.893  0.00  0.00    -0.228 NA
ATOM      4  N   UNL     1      32.302 -12.579 -21.460  0.00  0.00    -0.228 NA
ATOM      5  C   UNL     1      31.942  -9.968 -21.930  0.00  0.00    +0.152 C 
ATOM      6  C   UNL     1      32.808  -8.655 -23.468  0.00  0.00    +0.223 C 
ATOM      7  C   UNL     1      32.807 -10.664 -22.759  0.00  0.00    +0.140 C 
ATOM      8  C   UNL     1      32.977 -12.020 -22.494  0.00  0.00    +0.150 C 
ATOM      9  C   UNL     1      31.489 -11.773 -20.735  0.00  0.00    +0.253 C 
ATOM     10  N   UNL     1      33.836 -12.804 -23.283  0.00  0.00    -0.295 N 
ATOM     11  H   UNL     1      34.278 -12.300 -24.006  0.00  0.00    +0.154 HD
ENDROOT
BRANCH  10  14
ATOM     12 CL   UNL     1      35.333 -18.529 -23.121  0.00  0.00    -0.082 Cl
ATOM     13  F   UNL     1      33.602 -14.427 -25.532  0.00  0.00    -0.203 F 
ATOM     14  C   UNL     1      34.193 -14.169 -23.247  0.00  0.00    +0.077 C 
ATOM     15  C   UNL     1      34.064 -14.956 -24.390  0.00  0.00    +0.154 C 
ATOM     16  C   UNL     1      34.673 -14.729 -22.064  0.00  0.00    +0.018 C 
ATOM     17  C   UNL     1      34.416 -16.305 -24.351  0.00  0.00    +0.042 C 
ATOM     18  C   UNL     1      35.025 -16.078 -22.024  0.00  0.00    +0.013 C 
ATOM     19  C   UNL     1      34.898 -16.866 -23.168  0.00  0.00    +0.060 C 
ENDBRANCH  10  14
BRANCH   1  23
ATOM     20  O   UNL     1      30.832  -6.655 -22.934  0.00  0.00    -0.326 OA
ATOM     21  C   UNL     1      31.978  -6.720 -20.841  0.00  0.00    +0.187 C 
ATOM     22  C   UNL     1      32.484  -5.559 -21.676  0.00  0.00    +0.178 C 
ATOM     23  C   UNL     1      31.203  -7.545 -21.862  0.00  0.00    +0.225 C 
ATOM     24  C   UNL     1      31.331  -5.329 -22.643  0.00  0.00    +0.223 C 
BRANCH  24  28
ATOM     25  O   UNL     1      32.941  -4.721 -24.377  0.00  0.00    -0.421 OA
ATOM     26  N   UNL     1      30.853  -4.029 -24.785  0.00  0.00    -0.109 NA
ATOM     27  N   UNL     1      31.652  -3.620 -25.837  0.00  0.00    -0.112 NA
ATOM     28  C   UNL     1      31.649  -4.664 -23.966  0.00  0.00    +0.255 A 
ATOM     29  C   UNL     1      32.861  -4.045 -25.556  0.00  0.00    +0.225 A 
BRANCH  29  30
ATOM     30  C   UNL     1      34.106  -3.898 -26.321  0.00  0.00    +0.070 C 
ATOM     31  C   UNL     1      34.671  -2.431 -26.278  0.00  0.00    +0.009 C 
ATOM     32  C   UNL     1      33.929  -4.264 -27.840  0.00  0.00    +0.009 C 
ATOM     33  C   UNL     1      35.317  -4.793 -25.846  0.00  0.00    +0.009 C 
ENDBRANCH  29  30
ENDBRANCH  24  28
BRANCH  21  34
ATOM     34  O   UNL     1      31.055  -6.264 -19.854  0.00  0.00    -0.378 OA
ATOM     35  H   UNL     1      30.695  -5.403 -20.122  0.00  0.00    +0.211 HD
ENDBRANCH  21  34
BRANCH  22  36
ATOM     36  O   UNL     1      32.762  -4.413 -20.898  0.00  0.00    -0.379 OA
ATOM     37  H   UNL     1      33.357  -4.653 -20.169  0.00  0.00    +0.211 HD
ENDBRANCH  22  36
ENDBRANCH   1  23
TORSDOF 6
ENDMDL
MODEL 6
REMARK VINA RESULT:     -10.3      6.390      9.055
REMARK  Name = 9810927
REMARK  6 active torsions:
REMARK  status: ('A' for Active; 'I' for Inactive)
REMARK    1  A    between atoms: N_1  and  C_13
REMARK    2  A    between atoms: C_11  and  O_24
REMARK    3  A    between atoms: C_12  and  O_26
REMARK    4  A    between atoms: C_14  and  C_18
REMARK    5  A    between atoms: C_19  and  C_20
REMARK    6  A    between atoms: N_28  and  C_32
REMARK                            x       y       z     vdW  Elec       q    Type
REMARK                         _______ _______ _______ _____ _____    ______ ____
ROOT
ATOM      1  N   UNL     1      35.054 -16.500 -21.955  0.00  0.00    -0.247 N 
ATOM      2  N   UNL     1      34.375 -14.814 -20.661  0.00  0.00    -0.242 NA
ATOM      3  N   UNL     1      34.576 -15.560 -24.144  0.00  0.00    -0.228 NA
ATOM      4  N   UNL     1      33.624 -13.321 -23.960  0.00  0.00    -0.228 NA
ATOM      5  C   UNL     1      34.607 -15.525 -22.803  0.00  0.00    +0.152 C 
ATOM      6  C   UNL     1      34.893 -16.025 -20.680  0.00  0.00    +0.223 C 
ATOM      7  C   UNL     1      34.192 -14.490 -21.981  0.00  0.00    +0.140 C 
ATOM      8  C   UNL     1      33.685 -13.355 -22.607  0.00  0.00    +0.150 C 
ATOM      9  C   UNL     1      34.066 -14.410 -24.635  0.00  0.00    +0.253 C 
ATOM     10  N   UNL     1      33.241 -12.256 -21.851  0.00  0.00    -0.295 N 
ATOM     11  H   UNL     1      33.331 -12.384 -20.879  0.00  0.00    +0.154 HD
ENDROOT
BRANCH  10  14
ATOM     12 CL   UNL     1      30.950  -7.009 -23.356  0.00  0.00    -0.082 Cl
ATOM     13  F   UNL     1      30.920 -11.292 -20.655  0.00  0.00    -0.203 F 
ATOM     14  C   UNL     1      32.694 -11.006 -22.208  0.00  0.00    +0.077 C 
ATOM     15  C   UNL     1      31.530 -10.550 -21.591  0.00  0.00    +0.154 C 
ATOM     16  C   UNL     1      33.319 -10.227 -23.181  0.00  0.00    +0.018 C 
ATOM     17  C   UNL     1      30.990  -9.314 -21.946  0.00  0.00    +0.042 C 
ATOM     18  C   UNL     1      32.780  -8.991 -23.537  0.00  0.00    +0.013 C 
ATOM     19  C   UNL     1      31.616  -8.534 -22.919  0.00  0.00    +0.060 C 
ENDBRANCH  10  14
BRANCH   1  23
ATOM     20  O   UNL     1      34.646 -18.843 -22.019  0.00  0.00    -0.326 OA
ATOM     21  C   UNL     1      36.896 -18.160 -21.604  0.00  0.00    +0.187 C 
ATOM     22  C   UNL     1      36.409 -19.060 -20.484  0.00  0.00    +0.178 C 
ATOM     23  C   UNL     1      35.601 -17.807 -22.327  0.00  0.00    +0.225 C 
ATOM     24  C   UNL     1      35.268 -19.817 -21.149  0.00  0.00    +0.223 C 
BRANCH  24  28
ATOM     25  O   UNL     1      34.562 -21.355 -19.387  0.00  0.00    -0.421 OA
ATOM     26  N   UNL     1      32.920 -20.063 -20.184  0.00  0.00    -0.109 NA
ATOM     27  N   UNL     1      32.385 -20.878 -19.203  0.00  0.00    -0.112 NA
ATOM     28  C   UNL     1      34.186 -20.380 -20.252  0.00  0.00    +0.255 A 
ATOM     29  C   UNL     1      33.379 -21.614 -18.767  0.00  0.00    +0.225 A 
BRANCH  29  30
ATOM     30  C   UNL     1      33.389 -22.650 -17.726  0.00  0.00    +0.070 C 
ATOM     31  C   UNL     1      34.593 -22.489 -16.726  0.00  0.00    +0.009 C 
ATOM     32  C   UNL     1      33.492 -24.103 -18.319  0.00  0.00    +0.009 C 
ATOM     33  C   UNL     1      32.117 -22.703 -16.792  0.00  0.00    +0.009 C 
ENDBRANCH  29  30
ENDBRANCH  24  28
BRANCH  21  34
ATOM     34  O   UNL     1      37.719 -18.890 -22.512  0.00  0.00    -0.378 OA
ATOM     35  H   UNL     1      37.162 -19.457 -23.069  0.00  0.00    +0.211 HD
ENDBRANCH  21  34
BRANCH  22  36
ATOM     36  O   UNL     1      37.419 -19.929 -20.010  0.00  0.00    -0.379 OA
ATOM     37  H   UNL     1      37.885 -19.510 -19.269  0.00  0.00    +0.211 HD
ENDBRANCH  22  36
ENDBRANCH   1  23
TORSDOF 6
ENDMDL
MODEL 7
REMARK VINA RESULT:     -10.1     11.678     15.790
REMARK  Name = 9810927
REMARK  6 active torsions:
REMARK  status: ('A' for Active; 'I' for Inactive)
REMARK    1  A    between atoms: N_1  and  C_13
REMARK    2  A    between atoms: C_11  and  O_24
REMARK    3  A    between atoms: C_12  and  O_26
REMARK    4  A    between atoms: C_14  and  C_18
REMARK    5  A    between atoms: C_19  and  C_20
REMARK    6  A    between atoms: N_28  and  C_32
REMARK                            x       y       z     vdW  Elec       q    Type
REMARK                         _______ _______ _______ _____ _____    ______ ____
ROOT
ATOM      1  N   UNL     1      32.324  -9.848 -22.103  0.00  0.00    -0.247 N 
ATOM      2  N   UNL     1      33.519 -11.017 -23.581  0.00  0.00    -0.242 NA
ATOM      3  N   UNL     1      31.736 -11.623 -20.551  0.00  0.00    -0.228 NA
ATOM      4  N   UNL     1      32.665 -13.766 -21.259  0.00  0.00    -0.228 NA
ATOM      5  C   UNL     1      32.327 -11.140 -21.654  0.00  0.00    +0.152 C 
ATOM      6  C   UNL     1      33.052  -9.827 -23.264  0.00  0.00    +0.223 C 
ATOM      7  C   UNL     1      33.074 -11.846 -22.583  0.00  0.00    +0.140 C 
ATOM      8  C   UNL     1      33.235 -13.209 -22.355  0.00  0.00    +0.150 C 
ATOM      9  C   UNL     1      31.961 -12.950 -20.437  0.00  0.00    +0.253 C 
ATOM     10  N   UNL     1      33.978 -14.004 -23.246  0.00  0.00    -0.295 N 
ATOM     11  H   UNL     1      34.350 -13.501 -24.007  0.00  0.00    +0.154 HD
ENDROOT
BRANCH  10  14
ATOM     12 CL   UNL     1      35.319 -19.769 -23.339  0.00  0.00    -0.082 Cl
ATOM     13  F   UNL     1      35.254 -15.230 -21.097  0.00  0.00    -0.203 F 
ATOM     14  C   UNL     1      34.299 -15.378 -23.266  0.00  0.00    +0.077 C 
ATOM     15  C   UNL     1      34.938 -15.963 -22.174  0.00  0.00    +0.154 C 
ATOM     16  C   UNL     1      33.975 -16.149 -24.381  0.00  0.00    +0.018 C 
ATOM     17  C   UNL     1      35.254 -17.321 -22.196  0.00  0.00    +0.042 C 
ATOM     18  C   UNL     1      34.291 -17.507 -24.405  0.00  0.00    +0.013 C 
ATOM     19  C   UNL     1      34.930 -18.094 -23.312  0.00  0.00    +0.060 C 
ENDBRANCH  10  14
BRANCH   1  23
ATOM     20  O   UNL     1      31.611  -7.598 -22.402  0.00  0.00    -0.326 OA
ATOM     21  C   UNL     1      32.378  -8.197 -20.222  0.00  0.00    +0.187 C 
ATOM     22  C   UNL     1      33.177  -7.021 -20.750  0.00  0.00    +0.178 C 
ATOM     23  C   UNL     1      31.668  -8.700 -21.473  0.00  0.00    +0.225 C 
ATOM     24  C   UNL     1      32.244  -6.442 -21.805  0.00  0.00    +0.223 C 
BRANCH  24  28
ATOM     25  O   UNL     1      32.091  -4.677 -23.487  0.00  0.00    -0.421 OA
ATOM     26  N   UNL     1      34.064  -5.731 -23.444  0.00  0.00    -0.109 NA
ATOM     27  N   UNL     1      34.116  -4.766 -24.433  0.00  0.00    -0.112 NA
ATOM     28  C   UNL     1      32.868  -5.637 -22.925  0.00  0.00    +0.255 A 
ATOM     29  C   UNL     1      32.944  -4.177 -24.422  0.00  0.00    +0.225 A 
BRANCH  29  30
ATOM     30  C   UNL     1      32.442  -3.078 -25.257  0.00  0.00    +0.070 C 
ATOM     31  C   UNL     1      33.332  -1.786 -25.154  0.00  0.00    +0.009 C 
ATOM     32  C   UNL     1      30.979  -2.646 -24.872  0.00  0.00    +0.009 C 
ATOM     33  C   UNL     1      32.363  -3.369 -26.807  0.00  0.00    +0.009 C 
ENDBRANCH  29  30
ENDBRANCH  24  28
BRANCH  21  34
ATOM     34  O   UNL     1      31.382  -7.753 -19.302  0.00  0.00    -0.378 OA
ATOM     35  H   UNL     1      31.115  -6.848 -19.527  0.00  0.00    +0.211 HD
ENDBRANCH  21  34
BRANCH  22  36
ATOM     36  O   UNL     1      33.488  -6.080 -19.742  0.00  0.00    -0.379 OA
ATOM     37  H   UNL     1      34.447  -6.069 -19.594  0.00  0.00    +0.211 HD
ENDBRANCH  22  36
ENDBRANCH   1  23
TORSDOF 6
ENDMDL
MODEL 8
REMARK VINA RESULT:      -9.7      5.666     10.122
REMARK  Name = 9810927
REMARK  6 active torsions:
REMARK  status: ('A' for Active; 'I' for Inactive)
REMARK    1  A    between atoms: N_1  and  C_13
REMARK    2  A    between atoms: C_11  and  O_24
REMARK    3  A    between atoms: C_12  and  O_26
REMARK    4  A    between atoms: C_14  and  C_18
REMARK    5  A    between atoms: C_19  and  C_20
REMARK    6  A    between atoms: N_28  and  C_32
REMARK                            x       y       z     vdW  Elec       q    Type
REMARK                         _______ _______ _______ _____ _____    ______ ____
ROOT
ATOM      1  N   UNL     1      34.248 -20.084 -20.956  0.00  0.00    -0.247 N 
ATOM      2  N   UNL     1      32.296 -20.499 -19.960  0.00  0.00    -0.242 NA
ATOM      3  N   UNL     1      35.739 -21.287 -19.462  0.00  0.00    -0.228 NA
ATOM      4  N   UNL     1      34.506 -22.353 -17.645  0.00  0.00    -0.228 NA
ATOM      5  C   UNL     1      34.534 -20.857 -19.865  0.00  0.00    +0.152 C 
ATOM      6  C   UNL     1      32.891 -19.896 -20.969  0.00  0.00    +0.223 C 
ATOM      7  C   UNL     1      33.311 -21.104 -19.263  0.00  0.00    +0.140 C 
ATOM      8  C   UNL     1      33.323 -21.884 -18.111  0.00  0.00    +0.150 C 
ATOM      9  C   UNL     1      35.624 -22.029 -18.339  0.00  0.00    +0.253 C 
ATOM     10  N   UNL     1      32.128 -22.185 -17.435  0.00  0.00    -0.295 N 
ATOM     11  H   UNL     1      31.327 -21.797 -17.858  0.00  0.00    +0.154 HD
ENDROOT
BRANCH  10  14
ATOM     12 CL   UNL     1      30.940 -25.328 -12.561  0.00  0.00    -0.082 Cl
ATOM     13  F   UNL     1      34.010 -22.477 -15.406  0.00  0.00    -0.203 F 
ATOM     14  C   UNL     1      31.846 -22.933 -16.273  0.00  0.00    +0.077 C 
ATOM     15  C   UNL     1      32.810 -23.062 -15.273  0.00  0.00    +0.154 C 
ATOM     16  C   UNL     1      30.602 -23.546 -16.125  0.00  0.00    +0.018 C 
ATOM     17  C   UNL     1      32.530 -23.802 -14.125  0.00  0.00    +0.042 C 
ATOM     18  C   UNL     1      30.322 -24.287 -14.978  0.00  0.00    +0.013 C 
ATOM     19  C   UNL     1      31.285 -24.414 -13.977  0.00  0.00    +0.060 C 
ENDBRANCH  10  14
BRANCH   1  23
ATOM     20  O   UNL     1      35.517 -18.180 -21.610  0.00  0.00    -0.326 OA
ATOM     21  C   UNL     1      34.690 -19.569 -23.367  0.00  0.00    +0.187 C 
ATOM     22  C   UNL     1      34.212 -18.143 -23.562  0.00  0.00    +0.178 C 
ATOM     23  C   UNL     1      35.203 -19.550 -21.931  0.00  0.00    +0.225 C 
ATOM     24  C   UNL     1      35.230 -17.347 -22.757  0.00  0.00    +0.223 C 
BRANCH  24  28
ATOM     25  O   UNL     1      34.261 -15.137 -23.143  0.00  0.00    -0.421 OA
ATOM     26  N   UNL     1      34.882 -15.507 -21.026  0.00  0.00    -0.109 NA
ATOM     27  N   UNL     1      34.356 -14.230 -21.100  0.00  0.00    -0.112 NA
ATOM     28  C   UNL     1      34.804 -15.990 -22.237  0.00  0.00    +0.255 A 
ATOM     29  C   UNL     1      34.008 -14.058 -22.353  0.00  0.00    +0.225 A 
BRANCH  29  30
ATOM     30  C   UNL     1      33.395 -12.892 -23.003  0.00  0.00    +0.070 C 
ATOM     31  C   UNL     1      32.066 -12.437 -22.295  0.00  0.00    +0.009 C 
ATOM     32  C   UNL     1      33.030 -13.160 -24.509  0.00  0.00    +0.009 C 
ATOM     33  C   UNL     1      34.277 -11.583 -23.046  0.00  0.00    +0.009 C 
ENDBRANCH  29  30
ENDBRANCH  24  28
BRANCH  21  34
ATOM     34  O   UNL     1      35.797 -19.849 -24.223  0.00  0.00    -0.378 OA
ATOM     35  H   UNL     1      36.032 -20.787 -24.150  0.00  0.00    +0.211 HD
ENDBRANCH  21  34
BRANCH  22  36
ATOM     36  O   UNL     1      34.192 -17.759 -24.922  0.00  0.00    -0.379 OA
ATOM     37  H   UNL     1      34.607 -18.453 -25.460  0.00  0.00    +0.211 HD
ENDBRANCH  22  36
ENDBRANCH   1  23
TORSDOF 6
ENDMDL
MODEL 9
REMARK VINA RESULT:      -9.5      2.709      4.175
REMARK  Name = 9810927
REMARK  6 active torsions:
REMARK  status: ('A' for Active; 'I' for Inactive)
REMARK    1  A    between atoms: N_1  and  C_13
REMARK    2  A    between atoms: C_11  and  O_24
REMARK    3  A    between atoms: C_12  and  O_26
REMARK    4  A    between atoms: C_14  and  C_18
REMARK    5  A    between atoms: C_19  and  C_20
REMARK    6  A    between atoms: N_28  and  C_32
REMARK                            x       y       z     vdW  Elec       q    Type
REMARK                         _______ _______ _______ _____ _____    ______ ____
ROOT
ATOM      1  N   UNL     1      36.710 -20.559 -18.970  0.00  0.00    -0.247 N 
ATOM      2  N   UNL     1      37.325 -18.527 -19.657  0.00  0.00    -0.242 NA
ATOM      3  N   UNL     1      34.640 -20.809 -20.217  0.00  0.00    -0.228 NA
ATOM      4  N   UNL     1      34.185 -18.841 -21.586  0.00  0.00    -0.228 NA
ATOM      5  C   UNL     1      35.742 -20.143 -19.841  0.00  0.00    +0.152 C 
ATOM      6  C   UNL     1      37.638 -19.553 -18.893  0.00  0.00    +0.223 C 
ATOM      7  C   UNL     1      36.143 -18.883 -20.255  0.00  0.00    +0.140 C 
ATOM      8  C   UNL     1      35.316 -18.227 -21.163  0.00  0.00    +0.150 C 
ATOM      9  C   UNL     1      33.921 -20.075 -21.094  0.00  0.00    +0.253 C 
ATOM     10  N   UNL     1      35.645 -16.945 -21.637  0.00  0.00    -0.295 N 
ATOM     11  H   UNL     1      36.487 -16.592 -21.268  0.00  0.00    +0.154 HD
ENDROOT
BRANCH  10  14
ATOM     12 CL   UNL     1      32.979 -13.256 -25.423  0.00  0.00    -0.082 Cl
ATOM     13  F   UNL     1      34.688 -14.465 -20.812  0.00  0.00    -0.203 F 
ATOM     14  C   UNL     1      35.010 -16.064 -22.538  0.00  0.00    +0.077 C 
ATOM     15  C   UNL     1      34.541 -14.828 -22.094  0.00  0.00    +0.154 C 
ATOM     16  C   UNL     1      34.851 -16.433 -23.873  0.00  0.00    +0.018 C 
ATOM     17  C   UNL     1      33.913 -13.960 -22.986  0.00  0.00    +0.042 C 
ATOM     18  C   UNL     1      34.222 -15.565 -24.765  0.00  0.00    +0.013 C 
ATOM     19  C   UNL     1      33.754 -14.328 -24.323  0.00  0.00    +0.060 C 
ENDBRANCH  10  14
BRANCH   1  23
ATOM     20  O   UNL     1      35.470 -22.481 -18.315  0.00  0.00    -0.326 OA
ATOM     21  C   UNL     1      37.115 -21.694 -16.775  0.00  0.00    +0.187 C 
ATOM     22  C   UNL     1      35.756 -21.751 -16.102  0.00  0.00    +0.178 C 
ATOM     23  C   UNL     1      36.757 -21.834 -18.250  0.00  0.00    +0.225 C 
ATOM     24  C   UNL     1      35.005 -22.750 -16.972  0.00  0.00    +0.223 C 
BRANCH  24  28
ATOM     25  O   UNL     1      32.850 -23.107 -15.879  0.00  0.00    -0.421 OA
ATOM     26  N   UNL     1      32.700 -22.223 -17.928  0.00  0.00    -0.109 NA
ATOM     27  N   UNL     1      31.418 -22.370 -17.432  0.00  0.00    -0.112 NA
ATOM     28  C   UNL     1      33.494 -22.664 -16.988  0.00  0.00    +0.255 A 
ATOM     29  C   UNL     1      31.554 -22.889 -16.234  0.00  0.00    +0.225 A 
BRANCH  29  30
ATOM     30  C   UNL     1      30.527 -23.255 -15.251  0.00  0.00    +0.070 C 
ATOM     31  C   UNL     1      29.090 -22.776 -15.673  0.00  0.00    +0.009 C 
ATOM     32  C   UNL     1      30.804 -22.640 -13.830  0.00  0.00    +0.009 C 
ATOM     33  C   UNL     1      30.354 -24.800 -14.976  0.00  0.00    +0.009 C 
ENDBRANCH  29  30
ENDBRANCH  24  28
BRANCH  21  34
ATOM     34  O   UNL     1      37.904 -22.824 -16.407  0.00  0.00    -0.378 OA
ATOM     35  H   UNL     1      38.469 -23.081 -17.154  0.00  0.00    +0.211 HD
ENDBRANCH  21  34
BRANCH  22  36
ATOM     36  O   UNL     1      35.836 -22.173 -14.756  0.00  0.00    -0.379 OA
ATOM     37  H   UNL     1      35.382 -21.529 -14.187  0.00  0.00    +0.211 HD
ENDBRANCH  22  36
ENDBRANCH   1  23
TORSDOF 6
ENDMDL
