MODEL 1
REMARK VINA RESULT:     -11.5      0.000      0.000
REMARK  Name = 24832041
REMARK  6 active torsions:
REMARK  status: ('A' for Active; 'I' for Inactive)
REMARK    1  A    between atoms: C_1  and  C_18
REMARK    2  A    between atoms: C_4  and  C_7
REMARK    3  A    between atoms: C_10  and  C_15
REMARK    4  A    between atoms: C_18  and  N_19
REMARK    5  A    between atoms: C_18  and  C_23
REMARK    6  A    between atoms: C_23  and  C_26
REMARK                            x       y       z     vdW  Elec       q    Type
REMARK                         _______ _______ _______ _____ _____    ______ ____
ROOT
ATOM      1  C   UNL     1      34.635 -19.697 -21.256  0.00  0.00    -0.042 C 
ATOM      2  C   UNL     1      35.876 -19.988 -20.692  0.00  0.00    -0.006 C 
ATOM      3  C   UNL     1      33.468 -20.166 -20.652  0.00  0.00    -0.006 C 
ATOM      4  C   UNL     1      34.785 -21.217 -18.920  0.00  0.00    -0.000 C 
ATOM      5  C   UNL     1      35.952 -20.748 -19.525  0.00  0.00    -0.000 C 
ATOM      6  C   UNL     1      33.543 -20.926 -19.485  0.00  0.00    -0.000 C 
ENDROOT
BRANCH   4   7
ATOM      7  C   UNL     1      34.864 -22.004 -17.710  0.00  0.00    +0.000 C 
ATOM      8  C   UNL     1      36.059 -22.062 -16.993  0.00  0.00    +0.005 C 
ATOM      9  C   UNL     1      33.746 -22.704 -17.260  0.00  0.00    +0.000 C 
ATOM     10  C   UNL     1      36.135 -22.821 -15.825  0.00  0.00    +0.053 C 
ATOM     11  C   UNL     1      33.822 -23.463 -16.092  0.00  0.00    +0.000 C 
ATOM     12  C   UNL     1      35.016 -23.522 -15.374  0.00  0.00    +0.005 C 
BRANCH  10  15
ATOM     13  O   UNL     1      37.405 -22.702 -13.844  0.00  0.00    -0.270 OA
ATOM     14  N   UNL     1      38.547 -23.164 -15.778  0.00  0.00    -0.325 N 
ATOM     15  C   UNL     1      37.380 -22.881 -15.075  0.00  0.00    +0.243 C 
ATOM     16  H   UNL     1      39.409 -23.212 -15.305  0.00  0.00    +0.145 HD
ATOM     17  H   UNL     1      38.511 -23.317 -16.750  0.00  0.00    +0.145 HD
ENDBRANCH  10  15
ENDBRANCH   4   7
BRANCH   1  18
ATOM     18  C   UNL     1      34.553 -18.885 -22.503  0.00  0.00    -0.038 C 
BRANCH  18  19
ATOM     19  N   UNL     1      34.697 -19.717 -23.717  0.00  0.00    +0.384 N 
ATOM     20  H   UNL     1      34.745 -19.114 -24.540  0.00  0.00    -0.089 HD
ATOM     21  H   UNL     1      33.893 -20.340 -23.800  0.00  0.00    -0.089 HD
ATOM     22  H   UNL     1      35.551 -20.270 -23.652  0.00  0.00    -0.089 HD
ENDBRANCH  18  19
BRANCH  18  23
ATOM     23  C   UNL     1      35.596 -17.732 -22.585  0.00  0.00    +0.011 C 
BRANCH  23  26
ATOM     24  F   UNL     1      35.056 -15.929 -20.463  0.00  0.00    -0.205 F 
ATOM     25  F   UNL     1      33.672 -14.322 -25.505  0.00  0.00    -0.204 F 
ATOM     26  C   UNL     1      34.956 -16.378 -22.792  0.00  0.00    +0.006 C 
ATOM     27  C   UNL     1      34.720 -15.542 -21.702  0.00  0.00    +0.136 C 
ATOM     28  C   UNL     1      34.603 -15.967 -24.077  0.00  0.00    +0.028 C 
ATOM     29  C   UNL     1      34.012 -14.718 -24.272  0.00  0.00    +0.140 C 
ATOM     30  C   UNL     1      34.129 -14.293 -21.897  0.00  0.00    +0.032 C 
ATOM     31  C   UNL     1      33.776 -13.880 -23.181  0.00  0.00    +0.032 C 
ENDBRANCH  23  26
ENDBRANCH  18  23
ENDBRANCH   1  18
TORSDOF 6
ENDMDL
MODEL 2
REMARK VINA RESULT:     -11.3      2.519      3.447
REMARK  Name = 24832041
REMARK  6 active torsions:
REMARK  status: ('A' for Active; 'I' for Inactive)
REMARK    1  A    between atoms: C_1  and  C_18
REMARK    2  A    between atoms: C_4  and  C_7
REMARK    3  A    between atoms: C_10  and  C_15
REMARK    4  A    between atoms: C_18  and  N_19
REMARK    5  A    between atoms: C_18  and  C_23
REMARK    6  A    between atoms: C_23  and  C_26
REMARK                            x       y       z     vdW  Elec       q    Type
REMARK                         _______ _______ _______ _____ _____    ______ ____
ROOT
ATOM      1  C   UNL     1      34.332 -19.803 -21.184  0.00  0.00    -0.042 C 
ATOM      2  C   UNL     1      33.029 -20.037 -20.746  0.00  0.00    -0.006 C 
ATOM      3  C   UNL     1      35.411 -20.334 -20.476  0.00  0.00    -0.006 C 
ATOM      4  C   UNL     1      33.882 -21.331 -18.892  0.00  0.00    -0.000 C 
ATOM      5  C   UNL     1      32.803 -20.801 -19.600  0.00  0.00    -0.000 C 
ATOM      6  C   UNL     1      35.186 -21.097 -19.331  0.00  0.00    -0.000 C 
ENDROOT
BRANCH   4   7
ATOM      7  C   UNL     1      33.649 -22.123 -17.705  0.00  0.00    +0.000 C 
ATOM      8  C   UNL     1      32.344 -22.408 -17.303  0.00  0.00    +0.005 C 
ATOM      9  C   UNL     1      34.728 -22.602 -16.963  0.00  0.00    +0.000 C 
ATOM     10  C   UNL     1      32.118 -23.172 -16.157  0.00  0.00    +0.053 C 
ATOM     11  C   UNL     1      34.502 -23.366 -15.818  0.00  0.00    +0.000 C 
ATOM     12  C   UNL     1      33.198 -23.651 -15.415  0.00  0.00    +0.005 C 
BRANCH  10  15
ATOM     13  O   UNL     1      30.524 -24.304 -14.844  0.00  0.00    -0.270 OA
ATOM     14  N   UNL     1      29.722 -22.781 -16.359  0.00  0.00    -0.325 N 
ATOM     15  C   UNL     1      30.758 -23.471 -15.738  0.00  0.00    +0.243 C 
ATOM     16  H   UNL     1      28.788 -22.957 -16.102  0.00  0.00    +0.145 HD
ATOM     17  H   UNL     1      29.922 -22.115 -17.056  0.00  0.00    +0.145 HD
ENDBRANCH  10  15
ENDBRANCH   4   7
BRANCH   1  18
ATOM     18  C   UNL     1      34.573 -18.988 -22.408  0.00  0.00    -0.038 C 
BRANCH  18  19
ATOM     19  N   UNL     1      34.958 -19.826 -23.565  0.00  0.00    +0.384 N 
ATOM     20  H   UNL     1      34.182 -19.869 -24.227  0.00  0.00    -0.089 HD
ATOM     21  H   UNL     1      35.183 -20.768 -23.243  0.00  0.00    -0.089 HD
ATOM     22  H   UNL     1      35.772 -19.420 -24.024  0.00  0.00    -0.089 HD
ENDBRANCH  18  19
BRANCH  18  23
ATOM     23  C   UNL     1      35.654 -17.881 -22.237  0.00  0.00    +0.011 C 
BRANCH  23  26
ATOM     24  F   UNL     1      35.006 -16.683 -24.724  0.00  0.00    -0.205 F 
ATOM     25  F   UNL     1      34.118 -13.706 -20.223  0.00  0.00    -0.204 F 
ATOM     26  C   UNL     1      35.087 -16.486 -22.360  0.00  0.00    +0.006 C 
ATOM     27  C   UNL     1      34.790 -15.959 -23.617  0.00  0.00    +0.136 C 
ATOM     28  C   UNL     1      34.859 -15.725 -21.213  0.00  0.00    +0.028 C 
ATOM     29  C   UNL     1      34.336 -14.437 -21.323  0.00  0.00    +0.140 C 
ATOM     30  C   UNL     1      34.267 -14.670 -23.727  0.00  0.00    +0.032 C 
ATOM     31  C   UNL     1      34.039 -13.909 -22.581  0.00  0.00    +0.032 C 
ENDBRANCH  23  26
ENDBRANCH  18  23
ENDBRANCH   1  18
TORSDOF 6
ENDMDL
MODEL 3
REMARK VINA RESULT:     -11.2      4.521      9.820
REMARK  Name = 24832041
REMARK  6 active torsions:
REMARK  status: ('A' for Active; 'I' for Inactive)
REMARK    1  A    between atoms: C_1  and  C_18
REMARK    2  A    between atoms: C_4  and  C_7
REMARK    3  A    between atoms: C_10  and  C_15
REMARK    4  A    between atoms: C_18  and  N_19
REMARK    5  A    between atoms: C_18  and  C_23
REMARK    6  A    between atoms: C_23  and  C_26
REMARK                            x       y       z     vdW  Elec       q    Type
REMARK                         _______ _______ _______ _____ _____    ______ ____
ROOT
ATOM      1  C   UNL     1      35.154 -16.744 -21.888  0.00  0.00    -0.042 C 
ATOM      2  C   UNL     1      35.012 -16.377 -23.225  0.00  0.00    -0.006 C 
ATOM      3  C   UNL     1      34.848 -15.831 -20.878  0.00  0.00    -0.006 C 
ATOM      4  C   UNL     1      34.259 -14.184 -22.545  0.00  0.00    -0.000 C 
ATOM      5  C   UNL     1      34.565 -15.097 -23.555  0.00  0.00    -0.000 C 
ATOM      6  C   UNL     1      34.401 -14.552 -21.206  0.00  0.00    -0.000 C 
ENDROOT
BRANCH   4   7
ATOM      7  C   UNL     1      33.795 -12.858 -22.886  0.00  0.00    +0.000 C 
ATOM      8  C   UNL     1      32.927 -12.181 -22.028  0.00  0.00    +0.005 C 
ATOM      9  C   UNL     1      34.214 -12.256 -24.072  0.00  0.00    +0.000 C 
ATOM     10  C   UNL     1      32.478 -10.902 -22.357  0.00  0.00    +0.053 C 
ATOM     11  C   UNL     1      33.765 -10.976 -24.401  0.00  0.00    +0.000 C 
ATOM     12  C   UNL     1      32.898 -10.299 -23.544  0.00  0.00    +0.005 C 
BRANCH  10  15
ATOM     13  O   UNL     1      31.708  -8.978 -21.237  0.00  0.00    -0.270 OA
ATOM     14  N   UNL     1      30.543 -10.920 -20.878  0.00  0.00    -0.325 N 
ATOM     15  C   UNL     1      31.576 -10.194 -21.463  0.00  0.00    +0.243 C 
ATOM     16  H   UNL     1      29.912 -10.475 -20.267  0.00  0.00    +0.145 HD
ATOM     17  H   UNL     1      30.441 -11.879 -21.076  0.00  0.00    +0.145 HD
ENDBRANCH  10  15
ENDBRANCH   4   7
BRANCH   1  18
ATOM     18  C   UNL     1      35.631 -18.112 -21.536  0.00  0.00    -0.038 C 
BRANCH  18  19
ATOM     19  N   UNL     1      36.815 -18.507 -22.328  0.00  0.00    +0.384 N 
ATOM     20  H   UNL     1      37.510 -18.933 -21.714  0.00  0.00    -0.089 HD
ATOM     21  H   UNL     1      37.217 -17.682 -22.775  0.00  0.00    -0.089 HD
ATOM     22  H   UNL     1      36.538 -19.179 -23.043  0.00  0.00    -0.089 HD
ENDBRANCH  18  19
BRANCH  18  23
ATOM     23  C   UNL     1      34.555 -19.225 -21.692  0.00  0.00    +0.011 C 
BRANCH  23  26
ATOM     24  F   UNL     1      32.141 -20.260 -20.622  0.00  0.00    -0.205 F 
ATOM     25  F   UNL     1      36.799 -21.817 -18.214  0.00  0.00    -0.204 F 
ATOM     26  C   UNL     1      34.510 -20.167 -20.511  0.00  0.00    +0.006 C 
ATOM     27  C   UNL     1      33.286 -20.638 -20.037  0.00  0.00    +0.136 C 
ATOM     28  C   UNL     1      35.697 -20.565 -19.896  0.00  0.00    +0.028 C 
ATOM     29  C   UNL     1      35.660 -21.435 -18.806  0.00  0.00    +0.140 C 
ATOM     30  C   UNL     1      33.249 -21.507 -18.947  0.00  0.00    +0.032 C 
ATOM     31  C   UNL     1      34.435 -21.906 -18.331  0.00  0.00    +0.032 C 
ENDBRANCH  23  26
ENDBRANCH  18  23
ENDBRANCH   1  18
TORSDOF 6
ENDMDL
MODEL 4
REMARK VINA RESULT:     -11.2      4.677      9.863
REMARK  Name = 24832041
REMARK  6 active torsions:
REMARK  status: ('A' for Active; 'I' for Inactive)
REMARK    1  A    between atoms: C_1  and  C_18
REMARK    2  A    between atoms: C_4  and  C_7
REMARK    3  A    between atoms: C_10  and  C_15
REMARK    4  A    between atoms: C_18  and  N_19
REMARK    5  A    between atoms: C_18  and  C_23
REMARK    6  A    between atoms: C_23  and  C_26
REMARK                            x       y       z     vdW  Elec       q    Type
REMARK                         _______ _______ _______ _____ _____    ______ ____
ROOT
ATOM      1  C   UNL     1      35.119 -16.717 -21.668  0.00  0.00    -0.042 C 
ATOM      2  C   UNL     1      34.938 -16.212 -22.955  0.00  0.00    -0.006 C 
ATOM      3  C   UNL     1      34.777 -15.941 -20.560  0.00  0.00    -0.006 C 
ATOM      4  C   UNL     1      34.073 -14.155 -22.028  0.00  0.00    -0.000 C 
ATOM      5  C   UNL     1      34.415 -14.932 -23.136  0.00  0.00    -0.000 C 
ATOM      6  C   UNL     1      34.255 -14.660 -20.740  0.00  0.00    -0.000 C 
ENDROOT
BRANCH   4   7
ATOM      7  C   UNL     1      33.530 -12.828 -22.216  0.00  0.00    +0.000 C 
ATOM      8  C   UNL     1      34.208 -11.903 -23.010  0.00  0.00    +0.005 C 
ATOM      9  C   UNL     1      32.329 -12.473 -21.602  0.00  0.00    +0.000 C 
ATOM     10  C   UNL     1      33.684 -10.623 -23.191  0.00  0.00    +0.053 C 
ATOM     11  C   UNL     1      31.806 -11.192 -21.783  0.00  0.00    +0.000 C 
ATOM     12  C   UNL     1      32.483 -10.267 -22.577  0.00  0.00    +0.005 C 
BRANCH  10  15
ATOM     13  O   UNL     1      34.183  -8.437 -23.912  0.00  0.00    -0.270 OA
ATOM     14  N   UNL     1      35.319 -10.147 -24.934  0.00  0.00    -0.325 N 
ATOM     15  C   UNL     1      34.389  -9.658 -24.021  0.00  0.00    +0.243 C 
ATOM     16  H   UNL     1      35.814  -9.524 -25.513  0.00  0.00    +0.145 HD
ATOM     17  H   UNL     1      35.481 -11.116 -25.001  0.00  0.00    +0.145 HD
ENDBRANCH  10  15
ENDBRANCH   4   7
BRANCH   1  18
ATOM     18  C   UNL     1      35.677 -18.085 -21.474  0.00  0.00    -0.038 C 
BRANCH  18  19
ATOM     19  N   UNL     1      36.822 -18.350 -22.373  0.00  0.00    +0.384 N 
ATOM     20  H   UNL     1      37.694 -18.252 -21.852  0.00  0.00    -0.089 HD
ATOM     21  H   UNL     1      36.809 -17.682 -23.145  0.00  0.00    -0.089 HD
ATOM     22  H   UNL     1      36.753 -19.298 -22.742  0.00  0.00    -0.089 HD
ENDBRANCH  18  19
BRANCH  18  23
ATOM     23  C   UNL     1      34.642 -19.231 -21.665  0.00  0.00    +0.011 C 
BRANCH  23  26
ATOM     24  F   UNL     1      32.219 -20.261 -20.610  0.00  0.00    -0.205 F 
ATOM     25  F   UNL     1      36.858 -21.834 -18.177  0.00  0.00    -0.204 F 
ATOM     26  C   UNL     1      34.588 -20.175 -20.485  0.00  0.00    +0.006 C 
ATOM     27  C   UNL     1      33.360 -20.642 -20.019  0.00  0.00    +0.136 C 
ATOM     28  C   UNL     1      35.770 -20.577 -19.864  0.00  0.00    +0.028 C 
ATOM     29  C   UNL     1      35.724 -21.447 -18.774  0.00  0.00    +0.140 C 
ATOM     30  C   UNL     1      33.313 -21.512 -18.929  0.00  0.00    +0.032 C 
ATOM     31  C   UNL     1      34.495 -21.915 -18.308  0.00  0.00    +0.032 C 
ENDBRANCH  23  26
ENDBRANCH  18  23
ENDBRANCH   1  18
TORSDOF 6
ENDMDL
MODEL 5
REMARK VINA RESULT:     -11.1      4.483      9.458
REMARK  Name = 24832041
REMARK  6 active torsions:
REMARK  status: ('A' for Active; 'I' for Inactive)
REMARK    1  A    between atoms: C_1  and  C_18
REMARK    2  A    between atoms: C_4  and  C_7
REMARK    3  A    between atoms: C_10  and  C_15
REMARK    4  A    between atoms: C_18  and  N_19
REMARK    5  A    between atoms: C_18  and  C_23
REMARK    6  A    between atoms: C_23  and  C_26
REMARK                            x       y       z     vdW  Elec       q    Type
REMARK                         _______ _______ _______ _____ _____    ______ ____
ROOT
ATOM      1  C   UNL     1      33.888 -22.329 -17.839  0.00  0.00    -0.042 C 
ATOM      2  C   UNL     1      32.925 -21.659 -18.593  0.00  0.00    -0.006 C 
ATOM      3  C   UNL     1      35.243 -22.122 -18.097  0.00  0.00    -0.006 C 
ATOM      4  C   UNL     1      34.672 -20.575 -19.863  0.00  0.00    -0.000 C 
ATOM      5  C   UNL     1      33.316 -20.782 -19.605  0.00  0.00    -0.000 C 
ATOM      6  C   UNL     1      35.635 -21.246 -19.109  0.00  0.00    -0.000 C 
ENDROOT
BRANCH   4   7
ATOM      7  C   UNL     1      35.077 -19.666 -20.911  0.00  0.00    +0.000 C 
ATOM      8  C   UNL     1      34.235 -19.437 -22.000  0.00  0.00    +0.005 C 
ATOM      9  C   UNL     1      36.309 -19.018 -20.835  0.00  0.00    +0.000 C 
ATOM     10  C   UNL     1      34.626 -18.559 -23.012  0.00  0.00    +0.053 C 
ATOM     11  C   UNL     1      36.700 -18.141 -21.846  0.00  0.00    +0.000 C 
ATOM     12  C   UNL     1      35.859 -17.911 -22.935  0.00  0.00    +0.005 C 
BRANCH  10  15
ATOM     13  O   UNL     1      33.850 -17.289 -24.838  0.00  0.00    -0.270 OA
ATOM     14  N   UNL     1      32.797 -19.288 -24.446  0.00  0.00    -0.325 N 
ATOM     15  C   UNL     1      33.748 -18.318 -24.146  0.00  0.00    +0.243 C 
ATOM     16  H   UNL     1      32.184 -19.159 -25.206  0.00  0.00    +0.145 HD
ATOM     17  H   UNL     1      32.735 -20.104 -23.899  0.00  0.00    +0.145 HD
ENDBRANCH  10  15
ENDBRANCH   4   7
BRANCH   1  18
ATOM     18  C   UNL     1      33.470 -23.266 -16.757  0.00  0.00    -0.038 C 
BRANCH  18  19
ATOM     19  N   UNL     1      31.999 -23.359 -16.642  0.00  0.00    +0.384 N 
ATOM     20  H   UNL     1      31.640 -23.985 -17.363  0.00  0.00    -0.089 HD
ATOM     21  H   UNL     1      31.589 -22.432 -16.761  0.00  0.00    -0.089 HD
ATOM     22  H   UNL     1      31.752 -23.724 -15.723  0.00  0.00    -0.089 HD
ENDBRANCH  18  19
BRANCH  18  23
ATOM     23  C   UNL     1      34.041 -22.914 -15.352  0.00  0.00    +0.011 C 
BRANCH  23  26
ATOM     24  F   UNL     1      36.589 -21.685 -15.160  0.00  0.00    -0.205 F 
ATOM     25  F   UNL     1      36.359 -27.080 -14.288  0.00  0.00    -0.204 F 
ATOM     26  C   UNL     1      35.305 -23.677 -15.026  0.00  0.00    +0.006 C 
ATOM     27  C   UNL     1      36.525 -23.007 -14.948  0.00  0.00    +0.136 C 
ATOM     28  C   UNL     1      35.247 -25.052 -14.803  0.00  0.00    +0.028 C 
ATOM     29  C   UNL     1      36.412 -25.759 -14.502  0.00  0.00    +0.140 C 
ATOM     30  C   UNL     1      37.690 -23.713 -14.647  0.00  0.00    +0.032 C 
ATOM     31  C   UNL     1      37.634 -25.089 -14.423  0.00  0.00    +0.032 C 
ENDBRANCH  23  26
ENDBRANCH  18  23
ENDBRANCH   1  18
TORSDOF 6
ENDMDL
MODEL 6
REMARK VINA RESULT:     -11.1      4.795      9.623
REMARK  Name = 24832041
REMARK  6 active torsions:
REMARK  status: ('A' for Active; 'I' for Inactive)
REMARK    1  A    between atoms: C_1  and  C_18
REMARK    2  A    between atoms: C_4  and  C_7
REMARK    3  A    between atoms: C_10  and  C_15
REMARK    4  A    between atoms: C_18  and  N_19
REMARK    5  A    between atoms: C_18  and  C_23
REMARK    6  A    between atoms: C_23  and  C_26
REMARK                            x       y       z     vdW  Elec       q    Type
REMARK                         _______ _______ _______ _____ _____    ______ ____
ROOT
ATOM      1  C   UNL     1      33.568 -22.123 -18.162  0.00  0.00    -0.042 C 
ATOM      2  C   UNL     1      34.938 -22.008 -18.398  0.00  0.00    -0.006 C 
ATOM      3  C   UNL     1      32.667 -21.352 -18.897  0.00  0.00    -0.006 C 
ATOM      4  C   UNL     1      34.506 -20.351 -20.103  0.00  0.00    -0.000 C 
ATOM      5  C   UNL     1      35.407 -21.122 -19.368  0.00  0.00    -0.000 C 
ATOM      6  C   UNL     1      33.136 -20.466 -19.866  0.00  0.00    -0.000 C 
ENDROOT
BRANCH   4   7
ATOM      7  C   UNL     1      34.993 -19.433 -21.109  0.00  0.00    +0.000 C 
ATOM      8  C   UNL     1      34.202 -19.131 -22.218  0.00  0.00    +0.005 C 
ATOM      9  C   UNL     1      36.252 -18.851 -20.971  0.00  0.00    +0.000 C 
ATOM     10  C   UNL     1      34.671 -18.246 -23.189  0.00  0.00    +0.053 C 
ATOM     11  C   UNL     1      36.721 -17.965 -21.942  0.00  0.00    +0.000 C 
ATOM     12  C   UNL     1      35.931 -17.663 -23.051  0.00  0.00    +0.005 C 
BRANCH  10  15
ATOM     13  O   UNL     1      34.053 -16.910 -25.027  0.00  0.00    -0.270 OA
ATOM     14  N   UNL     1      32.826 -18.814 -24.674  0.00  0.00    -0.325 N 
ATOM     15  C   UNL     1      33.847 -17.928 -24.344  0.00  0.00    +0.243 C 
ATOM     16  H   UNL     1      32.247 -18.632 -25.449  0.00  0.00    +0.145 HD
ATOM     17  H   UNL     1      32.682 -19.624 -24.133  0.00  0.00    +0.145 HD
ENDBRANCH  10  15
ENDBRANCH   4   7
BRANCH   1  18
ATOM     18  C   UNL     1      33.066 -23.070 -17.126  0.00  0.00    -0.038 C 
BRANCH  18  19
ATOM     19  N   UNL     1      33.053 -24.467 -17.612  0.00  0.00    +0.384 N 
ATOM     20  H   UNL     1      32.218 -24.940 -17.265  0.00  0.00    -0.089 HD
ATOM     21  H   UNL     1      33.884 -24.952 -17.272  0.00  0.00    -0.089 HD
ATOM     22  H   UNL     1      33.048 -24.473 -18.631  0.00  0.00    -0.089 HD
ENDBRANCH  18  19
BRANCH  18  23
ATOM     23  C   UNL     1      31.644 -22.735 -16.589  0.00  0.00    +0.011 C 
BRANCH  23  26
ATOM     24  F   UNL     1      33.255 -22.694 -14.256  0.00  0.00    -0.205 F 
ATOM     25  F   UNL     1      28.702 -25.719 -14.081  0.00  0.00    -0.204 F 
ATOM     26  C   UNL     1      31.298 -23.499 -15.332  0.00  0.00    +0.006 C 
ATOM     27  C   UNL     1      32.137 -23.433 -14.220  0.00  0.00    +0.136 C 
ATOM     28  C   UNL     1      30.137 -24.271 -15.285  0.00  0.00    +0.028 C 
ATOM     29  C   UNL     1      29.816 -24.978 -14.126  0.00  0.00    +0.140 C 
ATOM     30  C   UNL     1      31.816 -24.140 -13.061  0.00  0.00    +0.032 C 
ATOM     31  C   UNL     1      30.655 -24.911 -13.013  0.00  0.00    +0.032 C 
ENDBRANCH  23  26
ENDBRANCH  18  23
ENDBRANCH   1  18
TORSDOF 6
ENDMDL
MODEL 7
REMARK VINA RESULT:     -10.9      4.940      9.691
REMARK  Name = 24832041
REMARK  6 active torsions:
REMARK  status: ('A' for Active; 'I' for Inactive)
REMARK    1  A    between atoms: C_1  and  C_18
REMARK    2  A    between atoms: C_4  and  C_7
REMARK    3  A    between atoms: C_10  and  C_15
REMARK    4  A    between atoms: C_18  and  N_19
REMARK    5  A    between atoms: C_18  and  C_23
REMARK    6  A    between atoms: C_23  and  C_26
REMARK                            x       y       z     vdW  Elec       q    Type
REMARK                         _______ _______ _______ _____ _____    ______ ____
ROOT
ATOM      1  C   UNL     1      33.680 -22.143 -18.284  0.00  0.00    -0.042 C 
ATOM      2  C   UNL     1      35.041 -21.976 -18.536  0.00  0.00    -0.006 C 
ATOM      3  C   UNL     1      32.743 -21.369 -18.969  0.00  0.00    -0.006 C 
ATOM      4  C   UNL     1      34.530 -20.258 -20.157  0.00  0.00    -0.000 C 
ATOM      5  C   UNL     1      35.467 -21.033 -19.472  0.00  0.00    -0.000 C 
ATOM      6  C   UNL     1      33.168 -20.426 -19.905  0.00  0.00    -0.000 C 
ENDROOT
BRANCH   4   7
ATOM      7  C   UNL     1      34.972 -19.282 -21.128  0.00  0.00    +0.000 C 
ATOM      8  C   UNL     1      34.199 -19.027 -22.261  0.00  0.00    +0.005 C 
ATOM      9  C   UNL     1      36.169 -18.595 -20.932  0.00  0.00    +0.000 C 
ATOM     10  C   UNL     1      34.624 -18.085 -23.199  0.00  0.00    +0.053 C 
ATOM     11  C   UNL     1      36.595 -17.654 -21.870  0.00  0.00    +0.000 C 
ATOM     12  C   UNL     1      35.823 -17.398 -23.003  0.00  0.00    +0.005 C 
BRANCH  10  15
ATOM     13  O   UNL     1      33.998 -16.798 -25.069  0.00  0.00    -0.270 OA
ATOM     14  N   UNL     1      32.846 -18.750 -24.725  0.00  0.00    -0.325 N 
ATOM     15  C   UNL     1      33.818 -17.817 -24.379  0.00  0.00    +0.243 C 
ATOM     16  H   UNL     1      32.281 -18.602 -25.517  0.00  0.00    +0.145 HD
ATOM     17  H   UNL     1      32.723 -19.559 -24.178  0.00  0.00    +0.145 HD
ENDBRANCH  10  15
ENDBRANCH   4   7
BRANCH   1  18
ATOM     18  C   UNL     1      33.224 -23.151 -17.284  0.00  0.00    -0.038 C 
BRANCH  18  19
ATOM     19  N   UNL     1      33.101 -24.501 -17.874  0.00  0.00    +0.384 N 
ATOM     20  H   UNL     1      34.025 -24.931 -17.937  0.00  0.00    -0.089 HD
ATOM     21  H   UNL     1      32.696 -24.429 -18.808  0.00  0.00    -0.089 HD
ATOM     22  H   UNL     1      32.499 -25.077 -17.286  0.00  0.00    -0.089 HD
ENDBRANCH  18  19
BRANCH  18  23
ATOM     23  C   UNL     1      31.872 -22.803 -16.596  0.00  0.00    +0.011 C 
BRANCH  23  26
ATOM     24  F   UNL     1      29.419 -24.045 -15.899  0.00  0.00    -0.205 F 
ATOM     25  F   UNL     1      33.524 -24.455 -12.307  0.00  0.00    -0.204 F 
ATOM     26  C   UNL     1      31.664 -23.555 -15.301  0.00  0.00    +0.006 C 
ATOM     27  C   UNL     1      30.430 -24.141 -15.024  0.00  0.00    +0.136 C 
ATOM     28  C   UNL     1      32.710 -23.661 -14.385  0.00  0.00    +0.028 C 
ATOM     29  C   UNL     1      32.521 -24.353 -13.188  0.00  0.00    +0.140 C 
ATOM     30  C   UNL     1      30.241 -24.834 -13.828  0.00  0.00    +0.032 C 
ATOM     31  C   UNL     1      31.286 -24.941 -12.910  0.00  0.00    +0.032 C 
ENDBRANCH  23  26
ENDBRANCH  18  23
ENDBRANCH   1  18
TORSDOF 6
ENDMDL
MODEL 8
REMARK VINA RESULT:     -10.7      5.006      8.252
REMARK  Name = 24832041
REMARK  6 active torsions:
REMARK  status: ('A' for Active; 'I' for Inactive)
REMARK    1  A    between atoms: C_1  and  C_18
REMARK    2  A    between atoms: C_4  and  C_7
REMARK    3  A    between atoms: C_10  and  C_15
REMARK    4  A    between atoms: C_18  and  N_19
REMARK    5  A    between atoms: C_18  and  C_23
REMARK    6  A    between atoms: C_23  and  C_26
REMARK                            x       y       z     vdW  Elec       q    Type
REMARK                         _______ _______ _______ _____ _____    ______ ____
ROOT
ATOM      1  C   UNL     1      33.614 -12.096 -23.432  0.00  0.00    -0.042 C 
ATOM      2  C   UNL     1      34.015 -12.696 -22.239  0.00  0.00    -0.006 C 
ATOM      3  C   UNL     1      33.496 -12.861 -24.592  0.00  0.00    -0.006 C 
ATOM      4  C   UNL     1      34.181 -14.827 -23.365  0.00  0.00    -0.000 C 
ATOM      5  C   UNL     1      34.299 -14.061 -22.205  0.00  0.00    -0.000 C 
ATOM      6  C   UNL     1      33.780 -14.226 -24.559  0.00  0.00    -0.000 C 
ENDROOT
BRANCH   4   7
ATOM      7  C   UNL     1      34.475 -16.242 -23.330  0.00  0.00    +0.000 C 
ATOM      8  C   UNL     1      35.359 -16.748 -22.376  0.00  0.00    +0.005 C 
ATOM      9  C   UNL     1      33.875 -17.102 -24.250  0.00  0.00    +0.000 C 
ATOM     10  C   UNL     1      35.642 -18.113 -22.342  0.00  0.00    +0.053 C 
ATOM     11  C   UNL     1      34.159 -18.467 -24.215  0.00  0.00    +0.000 C 
ATOM     12  C   UNL     1      35.042 -18.973 -23.262  0.00  0.00    +0.005 C 
BRANCH  10  15
ATOM     13  O   UNL     1      36.148 -19.189 -20.308  0.00  0.00    -0.270 OA
ATOM     14  N   UNL     1      37.925 -18.531 -21.601  0.00  0.00    -0.325 N 
ATOM     15  C   UNL     1      36.561 -18.642 -21.346  0.00  0.00    +0.243 C 
ATOM     16  H   UNL     1      38.577 -18.877 -20.949  0.00  0.00    +0.145 HD
ATOM     17  H   UNL     1      38.238 -18.108 -22.432  0.00  0.00    +0.145 HD
ENDBRANCH  10  15
ENDBRANCH   4   7
BRANCH   1  18
ATOM     18  C   UNL     1      33.309 -10.637 -23.468  0.00  0.00    -0.038 C 
BRANCH  18  19
ATOM     19  N   UNL     1      34.538  -9.814 -23.498  0.00  0.00    +0.384 N 
ATOM     20  H   UNL     1      34.616  -9.288 -22.627  0.00  0.00    -0.089 HD
ATOM     21  H   UNL     1      34.494  -9.166 -24.285  0.00  0.00    -0.089 HD
ATOM     22  H   UNL     1      35.351 -10.420 -23.602  0.00  0.00    -0.089 HD
ENDBRANCH  18  19
BRANCH  18  23
ATOM     23  C   UNL     1      32.426 -10.138 -22.287  0.00  0.00    +0.011 C 
BRANCH  23  26
ATOM     24  F   UNL     1      32.844  -8.394 -20.090  0.00  0.00    -0.205 F 
ATOM     25  F   UNL     1      30.962  -6.160 -24.714  0.00  0.00    -0.204 F 
ATOM     26  C   UNL     1      32.154  -8.652 -22.347  0.00  0.00    +0.006 C 
ATOM     27  C   UNL     1      32.383  -7.854 -21.227  0.00  0.00    +0.136 C 
ATOM     28  C   UNL     1      31.675  -8.081 -23.525  0.00  0.00    +0.028 C 
ATOM     29  C   UNL     1      31.423  -6.710 -23.583  0.00  0.00    +0.140 C 
ATOM     30  C   UNL     1      32.131  -6.483 -21.285  0.00  0.00    +0.032 C 
ATOM     31  C   UNL     1      31.652  -5.911 -22.462  0.00  0.00    +0.032 C 
ENDBRANCH  23  26
ENDBRANCH  18  23
ENDBRANCH   1  18
TORSDOF 6
ENDMDL
MODEL 9
REMARK VINA RESULT:     -10.7      4.762      7.940
REMARK  Name = 24832041
REMARK  6 active torsions:
REMARK  status: ('A' for Active; 'I' for Inactive)
REMARK    1  A    between atoms: C_1  and  C_18
REMARK    2  A    between atoms: C_4  and  C_7
REMARK    3  A    between atoms: C_10  and  C_15
REMARK    4  A    between atoms: C_18  and  N_19
REMARK    5  A    between atoms: C_18  and  C_23
REMARK    6  A    between atoms: C_23  and  C_26
REMARK                            x       y       z     vdW  Elec       q    Type
REMARK                         _______ _______ _______ _____ _____    ______ ____
ROOT
ATOM      1  C   UNL     1      33.795 -12.588 -23.911  0.00  0.00    -0.042 C 
ATOM      2  C   UNL     1      33.568 -13.484 -24.955  0.00  0.00    -0.006 C 
ATOM      3  C   UNL     1      34.270 -13.053 -22.684  0.00  0.00    -0.006 C 
ATOM      4  C   UNL     1      34.289 -15.310 -23.546  0.00  0.00    -0.000 C 
ATOM      5  C   UNL     1      33.814 -14.845 -24.773  0.00  0.00    -0.000 C 
ATOM      6  C   UNL     1      34.517 -14.413 -22.502  0.00  0.00    -0.000 C 
ENDROOT
BRANCH   4   7
ATOM      7  C   UNL     1      34.545 -16.721 -23.358  0.00  0.00    +0.000 C 
ATOM      8  C   UNL     1      35.380 -17.146 -22.324  0.00  0.00    +0.005 C 
ATOM      9  C   UNL     1      33.958 -17.656 -24.210  0.00  0.00    +0.000 C 
ATOM     10  C   UNL     1      35.628 -18.507 -22.143  0.00  0.00    +0.053 C 
ATOM     11  C   UNL     1      34.206 -19.017 -24.028  0.00  0.00    +0.000 C 
ATOM     12  C   UNL     1      35.040 -19.442 -22.995  0.00  0.00    +0.005 C 
BRANCH  10  15
ATOM     13  O   UNL     1      37.694 -18.622 -21.019  0.00  0.00    -0.270 OA
ATOM     14  N   UNL     1      35.937 -19.748 -20.069  0.00  0.00    -0.325 N 
ATOM     15  C   UNL     1      36.496 -18.952 -21.064  0.00  0.00    +0.243 C 
ATOM     16  H   UNL     1      36.494 -20.068 -19.324  0.00  0.00    +0.145 HD
ATOM     17  H   UNL     1      34.984 -19.991 -20.110  0.00  0.00    +0.145 HD
ENDBRANCH  10  15
ENDBRANCH   4   7
BRANCH   1  18
ATOM     18  C   UNL     1      33.533 -11.133 -24.105  0.00  0.00    -0.038 C 
BRANCH  18  19
ATOM     19  N   UNL     1      34.193 -10.608 -25.320  0.00  0.00    +0.384 N 
ATOM     20  H   UNL     1      35.201 -10.565 -25.168  0.00  0.00    -0.089 HD
ATOM     21  H   UNL     1      33.839  -9.672 -25.521  0.00  0.00    -0.089 HD
ATOM     22  H   UNL     1      33.995 -11.223 -26.108  0.00  0.00    -0.089 HD
ENDBRANCH  18  19
BRANCH  18  23
ATOM     23  C   UNL     1      33.959 -10.241 -22.903  0.00  0.00    +0.011 C 
BRANCH  23  26
ATOM     24  F   UNL     1      31.328  -9.250 -22.532  0.00  0.00    -0.205 F 
ATOM     25  F   UNL     1      35.162  -5.637 -24.004  0.00  0.00    -0.204 F 
ATOM     26  C   UNL     1      33.588  -8.788 -23.092  0.00  0.00    +0.006 C 
ATOM     27  C   UNL     1      32.273  -8.370 -22.892  0.00  0.00    +0.136 C 
ATOM     28  C   UNL     1      34.565  -7.865 -23.467  0.00  0.00    +0.028 C 
ATOM     29  C   UNL     1      34.225  -6.523 -23.643  0.00  0.00    +0.140 C 
ATOM     30  C   UNL     1      31.934  -7.028 -23.068  0.00  0.00    +0.032 C 
ATOM     31  C   UNL     1      32.909  -6.105 -23.443  0.00  0.00    +0.032 C 
ENDBRANCH  23  26
ENDBRANCH  18  23
ENDBRANCH   1  18
TORSDOF 6
ENDMDL
