MODEL 1
REMARK VINA RESULT:     -11.3      0.000      0.000
REMARK  Name = 124173720
REMARK  4 active torsions:
REMARK  status: ('A' for Active; 'I' for Inactive)
REMARK    1  A    between atoms: C_13  and  N_24
REMARK    2  A    between atoms: C_18  and  C_23
REMARK    3  A    between atoms: N_24  and  C_26
REMARK    4  A    between atoms: C_26  and  C_30
REMARK                            x       y       z     vdW  Elec       q    Type
REMARK                         _______ _______ _______ _____ _____    ______ ____
ROOT
ATOM      1  O   UNL     1      32.060 -22.580 -17.849  0.00  0.00    -0.473 OA
ATOM      2  N   UNL     1      33.852 -23.674 -15.661  0.00  0.00    -0.272 N 
ATOM      3  N   UNL     1      35.988 -23.236 -15.989  0.00  0.00    -0.374 NA
ATOM      4  C   UNL     1      35.854 -24.050 -14.901  0.00  0.00    +0.190 C 
ATOM      5  C   UNL     1      34.765 -23.010 -16.457  0.00  0.00    +0.188 C 
ATOM      6  C   UNL     1      32.409 -23.712 -15.773  0.00  0.00    +0.141 C 
ATOM      7  C   UNL     1      34.536 -24.341 -14.677  0.00  0.00    +0.169 C 
ATOM      8  C   UNL     1      34.488 -22.174 -17.643  0.00  0.00    +0.078 C 
ATOM      9  C   UNL     1      31.833 -22.488 -16.446  0.00  0.00    +0.227 C 
ATOM     10  C   UNL     1      33.237 -22.014 -18.260  0.00  0.00    +0.144 C 
ATOM     11  C   UNL     1      35.585 -21.508 -18.231  0.00  0.00    +0.008 C 
ATOM     12  C   UNL     1      33.110 -21.261 -19.441  0.00  0.00    +0.051 C 
ATOM     13  C   UNL     1      34.210 -20.621 -19.999  0.00  0.00    +0.048 C 
ATOM     14  C   UNL     1      35.451 -20.739 -19.390  0.00  0.00    +0.015 C 
ATOM     15  O   UNL     1      39.059 -24.942 -13.573  0.00  0.00    -0.432 OA
ATOM     16  O   UNL     1      38.710 -23.384 -15.213  0.00  0.00    -0.226 OA
ATOM     17  N   UNL     1      36.923 -24.497 -14.162  0.00  0.00    -0.194 N 
ATOM     18  C   UNL     1      36.841 -25.361 -13.005  0.00  0.00    +0.195 C 
ATOM     19  C   UNL     1      38.240 -25.944 -12.962  0.00  0.00    +0.236 C 
ATOM     20  C   UNL     1      38.263 -24.189 -14.407  0.00  0.00    +0.411 C 
ENDROOT
BRANCH  18  23
ATOM     21  F   UNL     1      35.254 -24.870 -11.357  0.00  0.00    -0.196 F 
ATOM     22  F   UNL     1      37.341 -24.984 -10.749  0.00  0.00    -0.196 F 
ATOM     23  C   UNL     1      36.515 -24.577 -11.735  0.00  0.00    +0.340 C 
ENDBRANCH  18  23
BRANCH  13  24
ATOM     24  N   UNL     1      34.066 -19.857 -21.175  0.00  0.00    -0.327 N 
ATOM     25  H   UNL     1      33.158 -19.639 -21.485  0.00  0.00    +0.147 HD
BRANCH  24  26
ATOM     26  C   UNL     1      35.181 -19.387 -21.939  0.00  0.00    +0.146 C 
ATOM     27  C   UNL     1      34.876 -19.529 -23.423  0.00  0.00    +0.031 C 
BRANCH  26  30
ATOM     28  O   UNL     1      35.483 -17.514 -20.426  0.00  0.00    -0.274 OA
ATOM     29  N   UNL     1      35.670 -17.140 -22.684  0.00  0.00    -0.327 N 
ATOM     30  C   UNL     1      35.454 -17.936 -21.580  0.00  0.00    +0.237 C 
ATOM     31  H   UNL     1      35.856 -16.180 -22.571  0.00  0.00    +0.145 HD
ATOM     32  H   UNL     1      35.637 -17.531 -23.587  0.00  0.00    +0.145 HD
ENDBRANCH  26  30
ENDBRANCH  24  26
ENDBRANCH  13  24
TORSDOF 4
ENDMDL
MODEL 2
REMARK VINA RESULT:     -10.6      3.823      6.022
REMARK  Name = 124173720
REMARK  4 active torsions:
REMARK  status: ('A' for Active; 'I' for Inactive)
REMARK    1  A    between atoms: C_13  and  N_24
REMARK    2  A    between atoms: C_18  and  C_23
REMARK    3  A    between atoms: N_24  and  C_26
REMARK    4  A    between atoms: C_26  and  C_30
REMARK                            x       y       z     vdW  Elec       q    Type
REMARK                         _______ _______ _______ _____ _____    ______ ____
ROOT
ATOM      1  O   UNL     1      32.521 -22.385 -17.157  0.00  0.00    -0.473 OA
ATOM      2  N   UNL     1      34.899 -23.321 -15.525  0.00  0.00    -0.272 N 
ATOM      3  N   UNL     1      34.364 -23.903 -13.467  0.00  0.00    -0.374 NA
ATOM      4  C   UNL     1      35.722 -23.945 -13.612  0.00  0.00    +0.190 C 
ATOM      5  C   UNL     1      33.862 -23.517 -14.635  0.00  0.00    +0.188 C 
ATOM      6  C   UNL     1      34.840 -22.911 -16.913  0.00  0.00    +0.141 C 
ATOM      7  C   UNL     1      36.081 -23.584 -14.882  0.00  0.00    +0.169 C 
ATOM      8  C   UNL     1      32.416 -23.341 -14.882  0.00  0.00    +0.078 C 
ATOM      9  C   UNL     1      33.539 -23.284 -17.587  0.00  0.00    +0.227 C 
ATOM     10  C   UNL     1      31.841 -22.806 -16.046  0.00  0.00    +0.144 C 
ATOM     11  C   UNL     1      31.536 -23.708 -13.840  0.00  0.00    +0.008 C 
ATOM     12  C   UNL     1      30.453 -22.603 -16.134  0.00  0.00    +0.051 C 
ATOM     13  C   UNL     1      29.612 -22.970 -15.089  0.00  0.00    +0.048 C 
ATOM     14  C   UNL     1      30.154 -23.530 -13.941  0.00  0.00    +0.015 C 
ATOM     15  O   UNL     1      37.308 -24.797 -10.515  0.00  0.00    -0.432 OA
ATOM     16  O   UNL     1      35.051 -24.864 -10.890  0.00  0.00    -0.226 OA
ATOM     17  N   UNL     1      36.574 -24.303 -12.595  0.00  0.00    -0.194 N 
ATOM     18  C   UNL     1      38.016 -24.363 -12.690  0.00  0.00    +0.195 C 
ATOM     19  C   UNL     1      38.420 -24.252 -11.233  0.00  0.00    +0.236 C 
ATOM     20  C   UNL     1      36.186 -24.669 -11.304  0.00  0.00    +0.411 C 
ENDROOT
BRANCH  18  23
ATOM     21  F   UNL     1      39.821 -25.781 -13.140  0.00  0.00    -0.196 F 
ATOM     22  F   UNL     1      37.910 -26.701 -12.654  0.00  0.00    -0.196 F 
ATOM     23  C   UNL     1      38.488 -25.675 -13.312  0.00  0.00    +0.340 C 
ENDBRANCH  18  23
BRANCH  13  24
ATOM     24  N   UNL     1      28.220 -22.775 -15.195  0.00  0.00    -0.327 N 
ATOM     25  H   UNL     1      27.670 -22.862 -14.384  0.00  0.00    +0.147 HD
BRANCH  24  26
ATOM     26  C   UNL     1      27.571 -22.457 -16.430  0.00  0.00    +0.146 C 
ATOM     27  C   UNL     1      27.459 -23.712 -17.283  0.00  0.00    +0.031 C 
BRANCH  26  30
ATOM     28  O   UNL     1      25.569 -22.106 -15.106  0.00  0.00    -0.274 OA
ATOM     29  N   UNL     1      25.729 -21.066 -17.147  0.00  0.00    -0.327 N 
ATOM     30  C   UNL     1      26.198 -21.878 -16.137  0.00  0.00    +0.237 C 
ATOM     31  H   UNL     1      24.847 -20.637 -17.065  0.00  0.00    +0.145 HD
ATOM     32  H   UNL     1      26.276 -20.916 -17.952  0.00  0.00    +0.145 HD
ENDBRANCH  26  30
ENDBRANCH  24  26
ENDBRANCH  13  24
TORSDOF 4
ENDMDL
MODEL 3
REMARK VINA RESULT:     -10.6      4.049      8.847
REMARK  Name = 124173720
REMARK  4 active torsions:
REMARK  status: ('A' for Active; 'I' for Inactive)
REMARK    1  A    between atoms: C_13  and  N_24
REMARK    2  A    between atoms: C_18  and  C_23
REMARK    3  A    between atoms: N_24  and  C_26
REMARK    4  A    between atoms: C_26  and  C_30
REMARK                            x       y       z     vdW  Elec       q    Type
REMARK                         _______ _______ _______ _____ _____    ______ ____
ROOT
ATOM      1  O   UNL     1      33.790 -22.975 -16.286  0.00  0.00    -0.473 OA
ATOM      2  N   UNL     1      33.899 -21.379 -18.861  0.00  0.00    -0.272 N 
ATOM      3  N   UNL     1      35.879 -20.485 -19.245  0.00  0.00    -0.374 NA
ATOM      4  C   UNL     1      34.993 -20.049 -20.189  0.00  0.00    +0.190 C 
ATOM      5  C   UNL     1      35.209 -21.293 -18.431  0.00  0.00    +0.188 C 
ATOM      6  C   UNL     1      32.807 -22.145 -18.300  0.00  0.00    +0.141 C 
ATOM      7  C   UNL     1      33.754 -20.587 -19.972  0.00  0.00    +0.169 C 
ATOM      8  C   UNL     1      35.821 -21.966 -17.266  0.00  0.00    +0.078 C 
ATOM      9  C   UNL     1      33.267 -23.373 -17.549  0.00  0.00    +0.227 C 
ATOM     10  C   UNL     1      35.134 -22.716 -16.297  0.00  0.00    +0.144 C 
ATOM     11  C   UNL     1      37.212 -21.808 -17.089  0.00  0.00    +0.008 C 
ATOM     12  C   UNL     1      35.810 -23.236 -15.180  0.00  0.00    +0.051 C 
ATOM     13  C   UNL     1      37.181 -23.060 -15.031  0.00  0.00    +0.048 C 
ATOM     14  C   UNL     1      37.886 -22.348 -15.991  0.00  0.00    +0.015 C 
ATOM     15  O   UNL     1      36.546 -17.700 -22.403  0.00  0.00    -0.432 OA
ATOM     16  O   UNL     1      37.650 -18.938 -20.826  0.00  0.00    -0.226 OA
ATOM     17  N   UNL     1      35.339 -19.185 -21.200  0.00  0.00    -0.194 N 
ATOM     18  C   UNL     1      34.447 -18.689 -22.224  0.00  0.00    +0.195 C 
ATOM     19  C   UNL     1      35.165 -17.431 -22.670  0.00  0.00    +0.236 C 
ATOM     20  C   UNL     1      36.612 -18.646 -21.405  0.00  0.00    +0.411 C 
ENDROOT
BRANCH  18  23
ATOM     21  F   UNL     1      33.708 -19.061 -24.412  0.00  0.00    -0.196 F 
ATOM     22  F   UNL     1      35.511 -20.093 -23.764  0.00  0.00    -0.196 F 
ATOM     23  C   UNL     1      34.287 -19.688 -23.368  0.00  0.00    +0.340 C 
ENDBRANCH  18  23
BRANCH  13  24
ATOM     24  N   UNL     1      37.850 -23.599 -13.913  0.00  0.00    -0.327 N 
ATOM     25  H   UNL     1      38.833 -23.627 -13.923  0.00  0.00    +0.147 HD
BRANCH  24  26
ATOM     26  C   UNL     1      37.162 -24.107 -12.766  0.00  0.00    +0.146 C 
ATOM     27  C   UNL     1      37.566 -25.555 -12.531  0.00  0.00    +0.031 C 
BRANCH  26  30
ATOM     28  O   UNL     1      38.273 -22.292 -11.601  0.00  0.00    -0.274 OA
ATOM     29  N   UNL     1      36.853 -23.650 -10.413  0.00  0.00    -0.327 N 
ATOM     30  C   UNL     1      37.502 -23.248 -11.560  0.00  0.00    +0.237 C 
ATOM     31  H   UNL     1      36.999 -23.166  -9.568  0.00  0.00    +0.145 HD
ATOM     32  H   UNL     1      36.243 -24.423 -10.437  0.00  0.00    +0.145 HD
ENDBRANCH  26  30
ENDBRANCH  24  26
ENDBRANCH  13  24
TORSDOF 4
ENDMDL
MODEL 4
REMARK VINA RESULT:      -9.7      3.997      8.695
REMARK  Name = 124173720
REMARK  4 active torsions:
REMARK  status: ('A' for Active; 'I' for Inactive)
REMARK    1  A    between atoms: C_13  and  N_24
REMARK    2  A    between atoms: C_18  and  C_23
REMARK    3  A    between atoms: N_24  and  C_26
REMARK    4  A    between atoms: C_26  and  C_30
REMARK                            x       y       z     vdW  Elec       q    Type
REMARK                         _______ _______ _______ _____ _____    ______ ____
ROOT
ATOM      1  O   UNL     1      36.241 -23.567 -15.401  0.00  0.00    -0.473 OA
ATOM      2  N   UNL     1      36.167 -21.725 -17.809  0.00  0.00    -0.272 N 
ATOM      3  N   UNL     1      34.143 -21.480 -18.651  0.00  0.00    -0.374 NA
ATOM      4  C   UNL     1      35.049 -20.847 -19.455  0.00  0.00    +0.190 C 
ATOM      5  C   UNL     1      34.827 -22.020 -17.648  0.00  0.00    +0.188 C 
ATOM      6  C   UNL     1      37.284 -22.089 -16.964  0.00  0.00    +0.141 C 
ATOM      7  C   UNL     1      36.316 -20.988 -18.955  0.00  0.00    +0.169 C 
ATOM      8  C   UNL     1      34.199 -22.802 -16.563  0.00  0.00    +0.078 C 
ATOM      9  C   UNL     1      36.891 -22.305 -15.520  0.00  0.00    +0.227 C 
ATOM     10  C   UNL     1      34.883 -23.509 -15.560  0.00  0.00    +0.144 C 
ATOM     11  C   UNL     1      32.789 -22.878 -16.557  0.00  0.00    +0.008 C 
ATOM     12  C   UNL     1      34.179 -24.294 -14.629  0.00  0.00    +0.051 C 
ATOM     13  C   UNL     1      32.790 -24.353 -14.651  0.00  0.00    +0.048 C 
ATOM     14  C   UNL     1      32.093 -23.639 -15.614  0.00  0.00    +0.015 C 
ATOM     15  O   UNL     1      33.443 -19.459 -22.340  0.00  0.00    -0.432 OA
ATOM     16  O   UNL     1      32.351 -20.373 -20.548  0.00  0.00    -0.226 OA
ATOM     17  N   UNL     1      34.696 -20.177 -20.601  0.00  0.00    -0.194 N 
ATOM     18  C   UNL     1      35.609 -19.494 -21.490  0.00  0.00    +0.195 C 
ATOM     19  C   UNL     1      34.807 -19.449 -22.775  0.00  0.00    +0.236 C 
ATOM     20  C   UNL     1      33.396 -20.045 -21.094  0.00  0.00    +0.411 C 
ENDROOT
BRANCH  18  23
ATOM     21  F   UNL     1      37.190 -18.112 -20.455  0.00  0.00    -0.196 F 
ATOM     22  F   UNL     1      35.967 -17.245 -22.033  0.00  0.00    -0.196 F 
ATOM     23  C   UNL     1      35.949 -18.093 -20.983  0.00  0.00    +0.340 C 
ENDBRANCH  18  23
BRANCH  13  24
ATOM     24  N   UNL     1      32.097 -25.132 -13.703  0.00  0.00    -0.327 N 
ATOM     25  H   UNL     1      32.419 -26.043 -13.519  0.00  0.00    +0.147 HD
BRANCH  24  26
ATOM     26  C   UNL     1      30.947 -24.658 -12.998  0.00  0.00    +0.146 C 
ATOM     27  C   UNL     1      31.169 -23.212 -12.578  0.00  0.00    +0.031 C 
BRANCH  26  30
ATOM     28  O   UNL     1      29.139 -23.813 -14.378  0.00  0.00    -0.274 OA
ATOM     29  N   UNL     1      29.348 -26.084 -14.116  0.00  0.00    -0.327 N 
ATOM     30  C   UNL     1      29.727 -24.778 -13.895  0.00  0.00    +0.237 C 
ATOM     31  H   UNL     1      28.568 -26.282 -14.683  0.00  0.00    +0.145 HD
ATOM     32  H   UNL     1      29.857 -26.821 -13.705  0.00  0.00    +0.145 HD
ENDBRANCH  26  30
ENDBRANCH  24  26
ENDBRANCH  13  24
TORSDOF 4
ENDMDL
MODEL 5
REMARK VINA RESULT:      -9.2      3.483      5.490
REMARK  Name = 124173720
REMARK  4 active torsions:
REMARK  status: ('A' for Active; 'I' for Inactive)
REMARK    1  A    between atoms: C_13  and  N_24
REMARK    2  A    between atoms: C_18  and  C_23
REMARK    3  A    between atoms: N_24  and  C_26
REMARK    4  A    between atoms: C_26  and  C_30
REMARK                            x       y       z     vdW  Elec       q    Type
REMARK                         _______ _______ _______ _____ _____    ______ ____
ROOT
ATOM      1  O   UNL     1      35.753 -21.585 -17.864  0.00  0.00    -0.473 OA
ATOM      2  N   UNL     1      33.442 -22.799 -16.321  0.00  0.00    -0.272 N 
ATOM      3  N   UNL     1      31.474 -22.348 -17.209  0.00  0.00    -0.374 NA
ATOM      4  C   UNL     1      31.298 -23.002 -16.022  0.00  0.00    +0.190 C 
ATOM      5  C   UNL     1      32.784 -22.220 -17.388  0.00  0.00    +0.188 C 
ATOM      6  C   UNL     1      34.865 -22.913 -16.085  0.00  0.00    +0.141 C 
ATOM      7  C   UNL     1      32.506 -23.291 -15.448  0.00  0.00    +0.169 C 
ATOM      8  C   UNL     1      33.383 -21.553 -18.563  0.00  0.00    +0.078 C 
ATOM      9  C   UNL     1      35.680 -22.915 -17.358  0.00  0.00    +0.227 C 
ATOM     10  C   UNL     1      34.747 -21.268 -18.737  0.00  0.00    +0.144 C 
ATOM     11  C   UNL     1      32.502 -21.131 -19.582  0.00  0.00    +0.008 C 
ATOM     12  C   UNL     1      35.192 -20.547 -19.860  0.00  0.00    +0.051 C 
ATOM     13  C   UNL     1      34.299 -20.140 -20.845  0.00  0.00    +0.048 C 
ATOM     14  C   UNL     1      32.951 -20.438 -20.709  0.00  0.00    +0.015 C 
ATOM     15  O   UNL     1      27.815 -23.305 -15.239  0.00  0.00    -0.432 OA
ATOM     16  O   UNL     1      28.646 -22.547 -17.232  0.00  0.00    -0.226 OA
ATOM     17  N   UNL     1      30.060 -23.306 -15.509  0.00  0.00    -0.194 N 
ATOM     18  C   UNL     1      29.812 -23.992 -14.261  0.00  0.00    +0.195 C 
ATOM     19  C   UNL     1      28.391 -23.563 -13.954  0.00  0.00    +0.236 C 
ATOM     20  C   UNL     1      28.836 -23.002 -16.112  0.00  0.00    +0.411 C 
ENDROOT
BRANCH  18  23
ATOM     21  F   UNL     1      28.777 -26.074 -13.998  0.00  0.00    -0.196 F 
ATOM     22  F   UNL     1      30.073 -25.800 -15.725  0.00  0.00    -0.196 F 
ATOM     23  C   UNL     1      29.927 -25.508 -14.416  0.00  0.00    +0.340 C 
ENDBRANCH  18  23
BRANCH  13  24
ATOM     24  N   UNL     1      34.760 -19.431 -21.972  0.00  0.00    -0.327 N 
ATOM     25  H   UNL     1      34.635 -19.831 -22.862  0.00  0.00    +0.147 HD
BRANCH  24  26
ATOM     26  C   UNL     1      35.403 -18.156 -21.880  0.00  0.00    +0.146 C 
ATOM     27  C   UNL     1      36.912 -18.350 -21.831  0.00  0.00    +0.031 C 
BRANCH  26  30
ATOM     28  O   UNL     1      34.334 -17.731 -24.015  0.00  0.00    -0.274 OA
ATOM     29  N   UNL     1      35.473 -16.016 -22.999  0.00  0.00    -0.327 N 
ATOM     30  C   UNL     1      35.006 -17.309 -23.076  0.00  0.00    +0.237 C 
ATOM     31  H   UNL     1      35.276 -15.376 -23.721  0.00  0.00    +0.145 HD
ATOM     32  H   UNL     1      36.006 -15.730 -22.222  0.00  0.00    +0.145 HD
ENDBRANCH  26  30
ENDBRANCH  24  26
ENDBRANCH  13  24
TORSDOF 4
ENDMDL
MODEL 6
REMARK VINA RESULT:      -8.9      4.193      8.139
REMARK  Name = 124173720
REMARK  4 active torsions:
REMARK  status: ('A' for Active; 'I' for Inactive)
REMARK    1  A    between atoms: C_13  and  N_24
REMARK    2  A    between atoms: C_18  and  C_23
REMARK    3  A    between atoms: N_24  and  C_26
REMARK    4  A    between atoms: C_26  and  C_30
REMARK                            x       y       z     vdW  Elec       q    Type
REMARK                         _______ _______ _______ _____ _____    ______ ____
ROOT
ATOM      1  O   UNL     1      36.496 -22.976 -16.488  0.00  0.00    -0.473 OA
ATOM      2  N   UNL     1      33.465 -23.021 -16.393  0.00  0.00    -0.272 N 
ATOM      3  N   UNL     1      32.669 -24.102 -14.643  0.00  0.00    -0.374 NA
ATOM      4  C   UNL     1      31.637 -23.743 -15.464  0.00  0.00    +0.190 C 
ATOM      5  C   UNL     1      33.786 -23.665 -15.214  0.00  0.00    +0.188 C 
ATOM      6  C   UNL     1      34.346 -22.376 -17.344  0.00  0.00    +0.141 C 
ATOM      7  C   UNL     1      32.105 -23.073 -16.561  0.00  0.00    +0.169 C 
ATOM      8  C   UNL     1      35.129 -23.866 -14.632  0.00  0.00    +0.078 C 
ATOM      9  C   UNL     1      35.627 -21.871 -16.720  0.00  0.00    +0.227 C 
ATOM     10  C   UNL     1      36.348 -23.550 -15.254  0.00  0.00    +0.144 C 
ATOM     11  C   UNL     1      35.195 -24.464 -13.355  0.00  0.00    +0.008 C 
ATOM     12  C   UNL     1      37.572 -23.869 -14.640  0.00  0.00    +0.051 C 
ATOM     13  C   UNL     1      37.604 -24.463 -13.383  0.00  0.00    +0.048 C 
ATOM     14  C   UNL     1      36.413 -24.757 -12.736  0.00  0.00    +0.015 C 
ATOM     15  O   UNL     1      28.519 -24.981 -14.206  0.00  0.00    -0.432 OA
ATOM     16  O   UNL     1      30.509 -25.060 -13.077  0.00  0.00    -0.226 OA
ATOM     17  N   UNL     1      30.323 -24.038 -15.190  0.00  0.00    -0.194 N 
ATOM     18  C   UNL     1      29.192 -23.687 -16.020  0.00  0.00    +0.195 C 
ATOM     19  C   UNL     1      28.154 -24.691 -15.560  0.00  0.00    +0.236 C 
ATOM     20  C   UNL     1      29.865 -24.725 -14.062  0.00  0.00    +0.411 C 
ENDROOT
BRANCH  18  23
ATOM     21  F   UNL     1      27.405 -22.177 -15.971  0.00  0.00    -0.196 F 
ATOM     22  F   UNL     1      28.982 -21.927 -14.492  0.00  0.00    -0.196 F 
ATOM     23  C   UNL     1      28.738 -22.249 -15.779  0.00  0.00    +0.340 C 
ENDBRANCH  18  23
BRANCH  13  24
ATOM     24  N   UNL     1      38.838 -24.765 -12.772  0.00  0.00    -0.327 N 
ATOM     25  H   UNL     1      39.150 -24.193 -12.035  0.00  0.00    +0.147 HD
BRANCH  24  26
ATOM     26  C   UNL     1      39.657 -25.867 -13.176  0.00  0.00    +0.146 C 
ATOM     27  C   UNL     1      38.788 -27.099 -13.379  0.00  0.00    +0.031 C 
BRANCH  26  30
ATOM     28  O   UNL     1      41.166 -24.557 -14.552  0.00  0.00    -0.274 OA
ATOM     29  N   UNL     1      40.086 -26.345 -15.505  0.00  0.00    -0.327 N 
ATOM     30  C   UNL     1      40.386 -25.502 -14.457  0.00  0.00    +0.237 C 
ATOM     31  H   UNL     1      40.501 -26.203 -16.386  0.00  0.00    +0.145 HD
ATOM     32  H   UNL     1      39.455 -27.090 -15.373  0.00  0.00    +0.145 HD
ENDBRANCH  26  30
ENDBRANCH  24  26
ENDBRANCH  13  24
TORSDOF 4
ENDMDL
MODEL 7
REMARK VINA RESULT:      -8.9      7.718     11.519
REMARK  Name = 124173720
REMARK  4 active torsions:
REMARK  status: ('A' for Active; 'I' for Inactive)
REMARK    1  A    between atoms: C_13  and  N_24
REMARK    2  A    between atoms: C_18  and  C_23
REMARK    3  A    between atoms: N_24  and  C_26
REMARK    4  A    between atoms: C_26  and  C_30
REMARK                            x       y       z     vdW  Elec       q    Type
REMARK                         _______ _______ _______ _____ _____    ______ ____
ROOT
ATOM      1  O   UNL     1      33.355 -11.858 -24.915  0.00  0.00    -0.473 OA
ATOM      2  N   UNL     1      34.330 -14.645 -24.225  0.00  0.00    -0.272 N 
ATOM      3  N   UNL     1      34.357 -15.042 -22.055  0.00  0.00    -0.374 NA
ATOM      4  C   UNL     1      34.916 -16.098 -22.717  0.00  0.00    +0.190 C 
ATOM      5  C   UNL     1      34.003 -14.152 -22.977  0.00  0.00    +0.188 C 
ATOM      6  C   UNL     1      34.125 -14.038 -25.523  0.00  0.00    +0.141 C 
ATOM      7  C   UNL     1      34.915 -15.875 -24.067  0.00  0.00    +0.169 C 
ATOM      8  C   UNL     1      33.366 -12.858 -22.656  0.00  0.00    +0.078 C 
ATOM      9  C   UNL     1      32.963 -13.072 -25.550  0.00  0.00    +0.227 C 
ATOM     10  C   UNL     1      33.098 -11.827 -23.571  0.00  0.00    +0.144 C 
ATOM     11  C   UNL     1      33.032 -12.622 -21.305  0.00  0.00    +0.008 C 
ATOM     12  C   UNL     1      32.568 -10.600 -23.135  0.00  0.00    +0.051 C 
ATOM     13  C   UNL     1      32.254 -10.395 -21.796  0.00  0.00    +0.048 C 
ATOM     14  C   UNL     1      32.481 -11.411 -20.879  0.00  0.00    +0.015 C 
ATOM     15  O   UNL     1      36.115 -18.559 -20.406  0.00  0.00    -0.432 OA
ATOM     16  O   UNL     1      34.851 -16.737 -19.838  0.00  0.00    -0.226 OA
ATOM     17  N   UNL     1      35.405 -17.211 -22.076  0.00  0.00    -0.194 N 
ATOM     18  C   UNL     1      36.009 -18.355 -22.723  0.00  0.00    +0.195 C 
ATOM     19  C   UNL     1      36.819 -18.952 -21.589  0.00  0.00    +0.236 C 
ATOM     20  C   UNL     1      35.397 -17.419 -20.695  0.00  0.00    +0.411 C 
ENDROOT
BRANCH  18  23
ATOM     21  F   UNL     1      33.870 -19.263 -22.447  0.00  0.00    -0.196 F 
ATOM     22  F   UNL     1      34.580 -18.945 -24.480  0.00  0.00    -0.196 F 
ATOM     23  C   UNL     1      34.956 -19.332 -23.243  0.00  0.00    +0.340 C 
ENDBRANCH  18  23
BRANCH  13  24
ATOM     24  N   UNL     1      31.710  -9.165 -21.374  0.00  0.00    -0.327 N 
ATOM     25  H   UNL     1      30.732  -9.084 -21.304  0.00  0.00    +0.147 HD
BRANCH  24  26
ATOM     26  C   UNL     1      32.516  -8.030 -21.043  0.00  0.00    +0.146 C 
ATOM     27  C   UNL     1      31.905  -6.778 -21.655  0.00  0.00    +0.031 C 
BRANCH  26  30
ATOM     28  O   UNL     1      32.294  -8.805 -18.755  0.00  0.00    -0.274 OA
ATOM     29  N   UNL     1      33.072  -6.676 -19.120  0.00  0.00    -0.327 N 
ATOM     30  C   UNL     1      32.604  -7.905 -19.532  0.00  0.00    +0.237 C 
ATOM     31  H   UNL     1      33.169  -6.482 -18.160  0.00  0.00    +0.145 HD
ATOM     32  H   UNL     1      33.308  -5.990 -19.787  0.00  0.00    +0.145 HD
ENDBRANCH  26  30
ENDBRANCH  24  26
ENDBRANCH  13  24
TORSDOF 4
ENDMDL
MODEL 8
REMARK VINA RESULT:      -8.7     11.604     15.969
REMARK  Name = 124173720
REMARK  4 active torsions:
REMARK  status: ('A' for Active; 'I' for Inactive)
REMARK    1  A    between atoms: C_13  and  N_24
REMARK    2  A    between atoms: C_18  and  C_23
REMARK    3  A    between atoms: N_24  and  C_26
REMARK    4  A    between atoms: C_26  and  C_30
REMARK                            x       y       z     vdW  Elec       q    Type
REMARK                         _______ _______ _______ _____ _____    ______ ____
ROOT
ATOM      1  O   UNL     1      31.548  -7.128 -20.310  0.00  0.00    -0.473 OA
ATOM      2  N   UNL     1      32.350  -9.898 -21.248  0.00  0.00    -0.272 N 
ATOM      3  N   UNL     1      33.054  -9.936 -23.338  0.00  0.00    -0.374 NA
ATOM      4  C   UNL     1      32.980 -11.214 -22.860  0.00  0.00    +0.190 C 
ATOM      5  C   UNL     1      32.664  -9.133 -22.354  0.00  0.00    +0.188 C 
ATOM      6  C   UNL     1      31.893  -9.465 -19.945  0.00  0.00    +0.141 C 
ATOM      7  C   UNL     1      32.541 -11.219 -21.564  0.00  0.00    +0.169 C 
ATOM      8  C   UNL     1      32.598  -7.662 -22.482  0.00  0.00    +0.078 C 
ATOM      9  C   UNL     1      32.343  -8.066 -19.592  0.00  0.00    +0.227 C 
ATOM     10  C   UNL     1      32.066  -6.779 -21.529  0.00  0.00    +0.144 C 
ATOM     11  C   UNL     1      33.076  -7.099 -23.685  0.00  0.00    +0.008 C 
ATOM     12  C   UNL     1      31.974  -5.402 -21.798  0.00  0.00    +0.051 C 
ATOM     13  C   UNL     1      32.449  -4.877 -22.995  0.00  0.00    +0.048 C 
ATOM     14  C   UNL     1      33.007  -5.726 -23.939  0.00  0.00    +0.015 C 
ATOM     15  O   UNL     1      33.820 -13.580 -25.415  0.00  0.00    -0.432 OA
ATOM     16  O   UNL     1      34.055 -11.311 -25.605  0.00  0.00    -0.226 OA
ATOM     17  N   UNL     1      33.306 -12.316 -23.613  0.00  0.00    -0.194 N 
ATOM     18  C   UNL     1      33.244 -13.689 -23.162  0.00  0.00    +0.195 C 
ATOM     19  C   UNL     1      33.159 -14.437 -24.478  0.00  0.00    +0.236 C 
ATOM     20  C   UNL     1      33.752 -12.291 -24.936  0.00  0.00    +0.411 C 
ENDROOT
BRANCH  18  23
ATOM     21  F   UNL     1      34.116 -14.412 -21.114  0.00  0.00    -0.196 F 
ATOM     22  F   UNL     1      35.038 -15.176 -22.932  0.00  0.00    -0.196 F 
ATOM     23  C   UNL     1      34.489 -14.080 -22.367  0.00  0.00    +0.340 C 
ENDBRANCH  18  23
BRANCH  13  24
ATOM     24  N   UNL     1      32.363  -3.493 -23.247  0.00  0.00    -0.327 N 
ATOM     25  H   UNL     1      33.197  -2.985 -23.369  0.00  0.00    +0.147 HD
BRANCH  24  26
ATOM     26  C   UNL     1      31.118  -2.793 -23.333  0.00  0.00    +0.146 C 
ATOM     27  C   UNL     1      31.023  -1.786 -22.196  0.00  0.00    +0.031 C 
BRANCH  26  30
ATOM     28  O   UNL     1      32.008  -1.825 -25.371  0.00  0.00    -0.274 OA
ATOM     29  N   UNL     1      29.735  -1.806 -25.051  0.00  0.00    -0.327 N 
ATOM     30  C   UNL     1      31.029  -2.097 -24.680  0.00  0.00    +0.237 C 
ATOM     31  H   UNL     1      29.557  -1.354 -25.907  0.00  0.00    +0.145 HD
ATOM     32  H   UNL     1      28.986  -2.049 -24.459  0.00  0.00    +0.145 HD
ENDBRANCH  26  30
ENDBRANCH  24  26
ENDBRANCH  13  24
TORSDOF 4
ENDMDL
MODEL 9
REMARK VINA RESULT:      -8.5      9.570     14.564
REMARK  Name = 124173720
REMARK  4 active torsions:
REMARK  status: ('A' for Active; 'I' for Inactive)
REMARK    1  A    between atoms: C_13  and  N_24
REMARK    2  A    between atoms: C_18  and  C_23
REMARK    3  A    between atoms: N_24  and  C_26
REMARK    4  A    between atoms: C_26  and  C_30
REMARK                            x       y       z     vdW  Elec       q    Type
REMARK                         _______ _______ _______ _____ _____    ______ ____
ROOT
ATOM      1  O   UNL     1      33.687 -13.419 -25.102  0.00  0.00    -0.473 OA
ATOM      2  N   UNL     1      33.099 -10.592 -24.175  0.00  0.00    -0.272 N 
ATOM      3  N   UNL     1      33.085 -10.385 -21.979  0.00  0.00    -0.374 NA
ATOM      4  C   UNL     1      32.692  -9.207 -22.549  0.00  0.00    +0.190 C 
ATOM      5  C   UNL     1      33.328 -11.233 -22.973  0.00  0.00    +0.188 C 
ATOM      6  C   UNL     1      33.242 -11.108 -25.520  0.00  0.00    +0.141 C 
ATOM      7  C   UNL     1      32.689  -9.310 -23.914  0.00  0.00    +0.169 C 
ATOM      8  C   UNL     1      33.772 -12.626 -22.763  0.00  0.00    +0.078 C 
ATOM      9  C   UNL     1      34.258 -12.223 -25.624  0.00  0.00    +0.227 C 
ATOM     10  C   UNL     1      33.910 -13.602 -23.764  0.00  0.00    +0.144 C 
ATOM     11  C   UNL     1      34.043 -13.023 -21.436  0.00  0.00    +0.008 C 
ATOM     12  C   UNL     1      34.255 -14.925 -23.433  0.00  0.00    +0.051 C 
ATOM     13  C   UNL     1      34.511 -15.287 -22.115  0.00  0.00    +0.048 C 
ATOM     14  C   UNL     1      34.410 -14.332 -21.114  0.00  0.00    +0.015 C 
ATOM     15  O   UNL     1      31.805  -6.810 -20.039  0.00  0.00    -0.432 OA
ATOM     16  O   UNL     1      32.790  -8.834 -19.625  0.00  0.00    -0.226 OA
ATOM     17  N   UNL     1      32.352  -8.096 -21.817  0.00  0.00    -0.194 N 
ATOM     18  C   UNL     1      31.927  -6.826 -22.364  0.00  0.00    +0.195 C 
ATOM     19  C   UNL     1      31.186  -6.221 -21.188  0.00  0.00    +0.236 C 
ATOM     20  C   UNL     1      32.362  -8.010 -20.422  0.00  0.00    +0.411 C 
ENDROOT
BRANCH  18  23
ATOM     21  F   UNL     1      32.944  -4.719 -22.307  0.00  0.00    -0.196 F 
ATOM     22  F   UNL     1      34.236  -6.468 -22.227  0.00  0.00    -0.196 F 
ATOM     23  C   UNL     1      33.117  -5.967 -22.789  0.00  0.00    +0.340 C 
ENDBRANCH  18  23
BRANCH  13  24
ATOM     24  N   UNL     1      34.869 -16.613 -21.800  0.00  0.00    -0.327 N 
ATOM     25  H   UNL     1      34.650 -16.958 -20.905  0.00  0.00    +0.147 HD
BRANCH  24  26
ATOM     26  C   UNL     1      35.537 -17.479 -22.722  0.00  0.00    +0.146 C 
ATOM     27  C   UNL     1      36.572 -18.311 -21.980  0.00  0.00    +0.031 C 
BRANCH  26  30
ATOM     28  O   UNL     1      34.143 -18.225 -24.563  0.00  0.00    -0.274 OA
ATOM     29  N   UNL     1      34.037 -19.368 -22.575  0.00  0.00    -0.327 N 
ATOM     30  C   UNL     1      34.511 -18.372 -23.400  0.00  0.00    +0.237 C 
ATOM     31  H   UNL     1      33.366 -20.007 -22.909  0.00  0.00    +0.145 HD
ATOM     32  H   UNL     1      34.368 -19.442 -21.650  0.00  0.00    +0.145 HD
ENDBRANCH  26  30
ENDBRANCH  24  26
ENDBRANCH  13  24
TORSDOF 4
ENDMDL
