MODEL 1
REMARK VINA RESULT:     -12.1      0.000      0.000
REMARK  Name = 10430360
REMARK  6 active torsions:
REMARK  status: ('A' for Active; 'I' for Inactive)
REMARK    1  A    between atoms: C_4  and  C_18
REMARK    2  A    between atoms: C_7  and  C_14
REMARK    3  A    between atoms: C_17  and  O_23
REMARK    4  A    between atoms: O_23  and  C_24
REMARK    5  A    between atoms: C_24  and  C_25
REMARK    6  A    between atoms: C_25  and  N_26
REMARK                            x       y       z     vdW  Elec       q    Type
REMARK                         _______ _______ _______ _____ _____    ______ ____
ROOT
ATOM      1  N   UNL     1      33.644 -24.636 -13.203  0.00  0.00    -0.276 N 
ATOM      2  N   UNL     1      34.620 -24.157 -13.995  0.00  0.00    -0.173 NA
ATOM      3  C   UNL     1      32.550 -23.653 -14.830  0.00  0.00    +0.036 A 
ATOM      4  C   UNL     1      33.952 -23.558 -14.987  0.00  0.00    +0.102 A 
ATOM      5  C   UNL     1      32.378 -24.367 -13.649  0.00  0.00    +0.075 A 
ATOM      6  C   UNL     1      31.419 -23.222 -15.544  0.00  0.00    +0.006 C 
ATOM      7  C   UNL     1      30.150 -23.530 -15.036  0.00  0.00    +0.033 C 
ATOM      8  C   UNL     1      31.123 -24.684 -13.126  0.00  0.00    +0.019 C 
ATOM      9  C   UNL     1      30.007 -24.249 -13.848  0.00  0.00    +0.004 C 
ATOM     10  H   UNL     1      33.826 -25.137 -12.376  0.00  0.00    +0.189 HD
ENDROOT
BRANCH   7  14
ATOM     11  N   UNL     1      28.591 -23.642 -16.938  0.00  0.00    -0.218 N 
ATOM     12  N   UNL     1      28.132 -22.158 -15.401  0.00  0.00    -0.206 NA
ATOM     13  N   UNL     1      27.469 -23.063 -17.394  0.00  0.00    -0.157 NA
ATOM     14  C   UNL     1      28.974 -23.097 -15.754  0.00  0.00    +0.149 C 
ATOM     15  C   UNL     1      27.233 -22.173 -16.429  0.00  0.00    +0.218 C 
ATOM     16  H   UNL     1      29.071 -24.367 -17.400  0.00  0.00    +0.176 HD
ENDBRANCH   7  14
BRANCH   4  18
ATOM     17  C   UNL     1      34.726 -22.040 -18.296  0.00  0.00    +0.138 C 
ATOM     18  C   UNL     1      34.665 -22.911 -16.052  0.00  0.00    +0.022 C 
ATOM     19  C   UNL     1      34.029 -22.667 -17.270  0.00  0.00    +0.038 C 
ATOM     20  C   UNL     1      36.050 -21.653 -18.121  0.00  0.00    +0.037 C 
ATOM     21  C   UNL     1      35.993 -22.526 -15.869  0.00  0.00    +0.002 C 
ATOM     22  C   UNL     1      36.686 -21.897 -16.904  0.00  0.00    +0.003 C 
BRANCH  17  23
ATOM     23  O   UNL     1      34.102 -21.799 -19.492  0.00  0.00    -0.478 OA
BRANCH  23  24
ATOM     24  C   UNL     1      33.931 -20.437 -19.863  0.00  0.00    +0.183 C 
BRANCH  24  25
ATOM     25  C   UNL     1      35.068 -20.038 -20.790  0.00  0.00    -0.029 C 
BRANCH  25  26
ATOM     26  N   UNL     1      34.662 -18.933 -21.659  0.00  0.00    +0.389 N 
ATOM     27  C   UNL     1      35.575 -17.792 -21.501  0.00  0.00    -0.077 C 
ATOM     28  C   UNL     1      34.601 -19.376 -23.059  0.00  0.00    -0.077 C 
ATOM     29  C   UNL     1      35.135 -16.611 -22.368  0.00  0.00    -0.023 C 
ATOM     30  C   UNL     1      34.129 -18.245 -23.975  0.00  0.00    -0.023 C 
ATOM     31  C   UNL     1      35.013 -17.011 -23.833  0.00  0.00    -0.004 C 
ATOM     32  H   UNL     1      33.728 -18.628 -21.385  0.00  0.00    -0.080 HD
ENDBRANCH  25  26
ENDBRANCH  24  25
ENDBRANCH  23  24
ENDBRANCH  17  23
ENDBRANCH   4  18
TORSDOF 6
ENDMDL
MODEL 2
REMARK VINA RESULT:     -11.9      1.500      2.656
REMARK  Name = 10430360
REMARK  6 active torsions:
REMARK  status: ('A' for Active; 'I' for Inactive)
REMARK    1  A    between atoms: C_4  and  C_18
REMARK    2  A    between atoms: C_7  and  C_14
REMARK    3  A    between atoms: C_17  and  O_23
REMARK    4  A    between atoms: O_23  and  C_24
REMARK    5  A    between atoms: C_24  and  C_25
REMARK    6  A    between atoms: C_25  and  N_26
REMARK                            x       y       z     vdW  Elec       q    Type
REMARK                         _______ _______ _______ _____ _____    ______ ____
ROOT
ATOM      1  N   UNL     1      34.550 -23.638 -15.703  0.00  0.00    -0.276 N 
ATOM      2  N   UNL     1      35.000 -22.956 -16.771  0.00  0.00    -0.173 NA
ATOM      3  C   UNL     1      32.726 -22.787 -16.575  0.00  0.00    +0.036 A 
ATOM      4  C   UNL     1      33.887 -22.437 -17.302  0.00  0.00    +0.102 A 
ATOM      5  C   UNL     1      33.193 -23.577 -15.531  0.00  0.00    +0.075 A 
ATOM      6  C   UNL     1      31.348 -22.529 -16.680  0.00  0.00    +0.006 C 
ATOM      7  C   UNL     1      30.490 -23.082 -15.721  0.00  0.00    +0.033 C 
ATOM      8  C   UNL     1      32.354 -24.137 -14.565  0.00  0.00    +0.019 C 
ATOM      9  C   UNL     1      30.986 -23.872 -14.683  0.00  0.00    +0.004 C 
ATOM     10  H   UNL     1      35.144 -24.138 -15.100  0.00  0.00    +0.189 HD
ENDROOT
BRANCH   7  14
ATOM     11  N   UNL     1      28.330 -23.160 -16.901  0.00  0.00    -0.218 N 
ATOM     12  N   UNL     1      28.307 -22.272 -14.904  0.00  0.00    -0.206 NA
ATOM     13  N   UNL     1      27.043 -22.820 -16.730  0.00  0.00    -0.157 NA
ATOM     14  C   UNL     1      29.071 -22.831 -15.811  0.00  0.00    +0.149 C 
ATOM     15  C   UNL     1      27.082 -22.287 -15.508  0.00  0.00    +0.218 C 
ATOM     16  H   UNL     1      28.689 -23.592 -17.709  0.00  0.00    +0.176 HD
ENDBRANCH   7  14
BRANCH   4  18
ATOM     17  C   UNL     1      35.257 -20.377 -20.083  0.00  0.00    +0.138 C 
ATOM     18  C   UNL     1      33.960 -21.622 -18.483  0.00  0.00    +0.022 C 
ATOM     19  C   UNL     1      35.196 -21.165 -18.939  0.00  0.00    +0.038 C 
ATOM     20  C   UNL     1      34.100 -20.041 -20.776  0.00  0.00    +0.037 C 
ATOM     21  C   UNL     1      32.794 -21.289 -19.172  0.00  0.00    +0.002 C 
ATOM     22  C   UNL     1      32.864 -20.499 -20.319  0.00  0.00    +0.003 C 
BRANCH  17  23
ATOM     23  O   UNL     1      36.472 -19.928 -20.533  0.00  0.00    -0.478 OA
BRANCH  23  24
ATOM     24  C   UNL     1      36.530 -18.581 -20.984  0.00  0.00    +0.183 C 
BRANCH  24  25
ATOM     25  C   UNL     1      36.134 -18.539 -22.451  0.00  0.00    -0.029 C 
BRANCH  25  26
ATOM     26  N   UNL     1      35.744 -17.185 -22.842  0.00  0.00    +0.389 N 
ATOM     27  C   UNL     1      34.835 -17.223 -23.996  0.00  0.00    -0.077 C 
ATOM     28  C   UNL     1      35.134 -16.477 -21.707  0.00  0.00    -0.077 C 
ATOM     29  C   UNL     1      34.457 -15.812 -24.447  0.00  0.00    -0.023 C 
ATOM     30  C   UNL     1      34.766 -15.042 -22.085  0.00  0.00    -0.023 C 
ATOM     31  C   UNL     1      33.850 -15.006 -23.304  0.00  0.00    -0.004 C 
ATOM     32  H   UNL     1      36.581 -16.670 -23.118  0.00  0.00    -0.080 HD
ENDBRANCH  25  26
ENDBRANCH  24  25
ENDBRANCH  23  24
ENDBRANCH  17  23
ENDBRANCH   4  18
TORSDOF 6
ENDMDL
MODEL 3
REMARK VINA RESULT:     -11.2      1.963      3.402
REMARK  Name = 10430360
REMARK  6 active torsions:
REMARK  status: ('A' for Active; 'I' for Inactive)
REMARK    1  A    between atoms: C_4  and  C_18
REMARK    2  A    between atoms: C_7  and  C_14
REMARK    3  A    between atoms: C_17  and  O_23
REMARK    4  A    between atoms: O_23  and  C_24
REMARK    5  A    between atoms: C_24  and  C_25
REMARK    6  A    between atoms: C_25  and  N_26
REMARK                            x       y       z     vdW  Elec       q    Type
REMARK                         _______ _______ _______ _____ _____    ______ ____
ROOT
ATOM      1  N   UNL     1      36.158 -22.864 -16.029  0.00  0.00    -0.276 N 
ATOM      2  N   UNL     1      36.165 -22.145 -17.165  0.00  0.00    -0.173 NA
ATOM      3  C   UNL     1      34.038 -22.749 -16.578  0.00  0.00    +0.036 A 
ATOM      4  C   UNL     1      34.872 -22.075 -17.500  0.00  0.00    +0.102 A 
ATOM      5  C   UNL     1      34.911 -23.258 -15.623  0.00  0.00    +0.075 A 
ATOM      6  C   UNL     1      32.659 -22.985 -16.443  0.00  0.00    +0.006 C 
ATOM      7  C   UNL     1      32.211 -23.729 -15.345  0.00  0.00    +0.033 C 
ATOM      8  C   UNL     1      34.486 -24.003 -14.521  0.00  0.00    +0.019 C 
ATOM      9  C   UNL     1      33.111 -24.229 -14.402  0.00  0.00    +0.004 C 
ATOM     10  H   UNL     1      36.978 -23.089 -15.534  0.00  0.00    +0.189 HD
ENDROOT
BRANCH   7  14
ATOM     11  N   UNL     1      30.310 -24.948 -14.366  0.00  0.00    -0.218 N 
ATOM     12  N   UNL     1      29.811 -23.362 -15.784  0.00  0.00    -0.206 NA
ATOM     13  N   UNL     1      28.969 -24.979 -14.404  0.00  0.00    -0.157 NA
ATOM     14  C   UNL     1      30.799 -23.985 -15.188  0.00  0.00    +0.149 C 
ATOM     15  C   UNL     1      28.717 -24.002 -15.275  0.00  0.00    +0.218 C 
ATOM     16  H   UNL     1      30.865 -25.544 -13.813  0.00  0.00    +0.176 HD
ENDBRANCH   7  14
BRANCH   4  18
ATOM     17  C   UNL     1      35.026 -20.116 -20.660  0.00  0.00    +0.138 C 
ATOM     18  C   UNL     1      34.467 -21.368 -18.682  0.00  0.00    +0.022 C 
ATOM     19  C   UNL     1      35.427 -20.798 -19.518  0.00  0.00    +0.038 C 
ATOM     20  C   UNL     1      33.678 -19.996 -20.979  0.00  0.00    +0.037 C 
ATOM     21  C   UNL     1      33.113 -21.252 -18.994  0.00  0.00    +0.002 C 
ATOM     22  C   UNL     1      32.718 -20.566 -20.143  0.00  0.00    +0.003 C 
BRANCH  17  23
ATOM     23  O   UNL     1      35.970 -19.557 -21.483  0.00  0.00    -0.478 OA
BRANCH  23  24
ATOM     24  C   UNL     1      35.523 -18.544 -22.375  0.00  0.00    +0.183 C 
BRANCH  24  25
ATOM     25  C   UNL     1      35.611 -17.200 -21.670  0.00  0.00    -0.029 C 
BRANCH  25  26
ATOM     26  N   UNL     1      35.298 -16.111 -22.595  0.00  0.00    +0.389 N 
ATOM     27  C   UNL     1      34.494 -16.607 -23.721  0.00  0.00    -0.077 C 
ATOM     28  C   UNL     1      34.611 -15.019 -21.891  0.00  0.00    -0.077 C 
ATOM     29  C   UNL     1      34.199 -15.489 -24.723  0.00  0.00    -0.023 C 
ATOM     30  C   UNL     1      34.321 -13.850 -22.834  0.00  0.00    -0.023 C 
ATOM     31  C   UNL     1      33.519 -14.303 -24.049  0.00  0.00    -0.004 C 
ATOM     32  H   UNL     1      36.171 -15.740 -22.972  0.00  0.00    -0.080 HD
ENDBRANCH  25  26
ENDBRANCH  24  25
ENDBRANCH  23  24
ENDBRANCH  17  23
ENDBRANCH   4  18
TORSDOF 6
ENDMDL
MODEL 4
REMARK VINA RESULT:     -11.2      2.568      4.046
REMARK  Name = 10430360
REMARK  6 active torsions:
REMARK  status: ('A' for Active; 'I' for Inactive)
REMARK    1  A    between atoms: C_4  and  C_18
REMARK    2  A    between atoms: C_7  and  C_14
REMARK    3  A    between atoms: C_17  and  O_23
REMARK    4  A    between atoms: O_23  and  C_24
REMARK    5  A    between atoms: C_24  and  C_25
REMARK    6  A    between atoms: C_25  and  N_26
REMARK                            x       y       z     vdW  Elec       q    Type
REMARK                         _______ _______ _______ _____ _____    ______ ____
ROOT
ATOM      1  N   UNL     1      37.580 -22.671 -16.149  0.00  0.00    -0.276 N 
ATOM      2  N   UNL     1      37.180 -22.093 -17.295  0.00  0.00    -0.173 NA
ATOM      3  C   UNL     1      35.391 -22.749 -16.028  0.00  0.00    +0.036 A 
ATOM      4  C   UNL     1      35.845 -22.141 -17.221  0.00  0.00    +0.102 A 
ATOM      5  C   UNL     1      36.554 -23.087 -15.344  0.00  0.00    +0.075 A 
ATOM      6  C   UNL     1      34.144 -23.049 -15.454  0.00  0.00    +0.006 C 
ATOM      7  C   UNL     1      34.117 -23.682 -14.205  0.00  0.00    +0.033 C 
ATOM      8  C   UNL     1      36.549 -23.718 -14.099  0.00  0.00    +0.019 C 
ATOM      9  C   UNL     1      35.300 -24.010 -13.541  0.00  0.00    +0.004 C 
ATOM     10  H   UNL     1      38.528 -22.785 -15.911  0.00  0.00    +0.189 HD
ENDROOT
BRANCH   7  14
ATOM     11  N   UNL     1      32.168 -23.130 -12.806  0.00  0.00    -0.218 N 
ATOM     12  N   UNL     1      32.176 -25.121 -13.706  0.00  0.00    -0.206 NA
ATOM     13  N   UNL     1      31.019 -23.670 -12.370  0.00  0.00    -0.157 NA
ATOM     14  C   UNL     1      32.846 -24.000 -13.598  0.00  0.00    +0.149 C 
ATOM     15  C   UNL     1      31.071 -24.874 -12.942  0.00  0.00    +0.218 C 
ATOM     16  H   UNL     1      32.477 -22.223 -12.582  0.00  0.00    +0.176 HD
ENDBRANCH   7  14
BRANCH   4  18
ATOM     17  C   UNL     1      34.834 -20.269 -20.275  0.00  0.00    +0.138 C 
ATOM     18  C   UNL     1      35.041 -21.606 -18.284  0.00  0.00    +0.022 C 
ATOM     19  C   UNL     1      35.619 -20.782 -19.249  0.00  0.00    +0.038 C 
ATOM     20  C   UNL     1      33.478 -20.568 -20.348  0.00  0.00    +0.037 C 
ATOM     21  C   UNL     1      33.682 -21.911 -18.350  0.00  0.00    +0.002 C 
ATOM     22  C   UNL     1      32.900 -21.392 -19.382  0.00  0.00    +0.003 C 
BRANCH  17  23
ATOM     23  O   UNL     1      35.402 -19.461 -21.225  0.00  0.00    -0.478 OA
BRANCH  23  24
ATOM     24  C   UNL     1      34.599 -19.135 -22.353  0.00  0.00    +0.183 C 
BRANCH  24  25
ATOM     25  C   UNL     1      35.301 -18.052 -23.155  0.00  0.00    -0.029 C 
BRANCH  25  26
ATOM     26  N   UNL     1      34.571 -16.788 -23.066  0.00  0.00    +0.389 N 
ATOM     27  C   UNL     1      35.133 -15.942 -22.004  0.00  0.00    -0.077 C 
ATOM     28  C   UNL     1      34.583 -16.094 -24.361  0.00  0.00    -0.077 C 
ATOM     29  C   UNL     1      34.350 -14.637 -21.865  0.00  0.00    -0.023 C 
ATOM     30  C   UNL     1      33.781 -14.793 -24.298  0.00  0.00    -0.023 C 
ATOM     31  C   UNL     1      34.289 -13.881 -23.187  0.00  0.00    -0.004 C 
ATOM     32  H   UNL     1      33.599 -16.988 -22.827  0.00  0.00    -0.080 HD
ENDBRANCH  25  26
ENDBRANCH  24  25
ENDBRANCH  23  24
ENDBRANCH  17  23
ENDBRANCH   4  18
TORSDOF 6
ENDMDL
MODEL 5
REMARK VINA RESULT:     -10.6      3.757      8.856
REMARK  Name = 10430360
REMARK  6 active torsions:
REMARK  status: ('A' for Active; 'I' for Inactive)
REMARK    1  A    between atoms: C_4  and  C_18
REMARK    2  A    between atoms: C_7  and  C_14
REMARK    3  A    between atoms: C_17  and  O_23
REMARK    4  A    between atoms: O_23  and  C_24
REMARK    5  A    between atoms: C_24  and  C_25
REMARK    6  A    between atoms: C_25  and  N_26
REMARK                            x       y       z     vdW  Elec       q    Type
REMARK                         _______ _______ _______ _____ _____    ______ ____
ROOT
ATOM      1  N   UNL     1      32.303 -22.613 -17.615  0.00  0.00    -0.276 N 
ATOM      2  N   UNL     1      33.093 -23.117 -16.652  0.00  0.00    -0.173 NA
ATOM      3  C   UNL     1      34.284 -21.805 -18.100  0.00  0.00    +0.036 A 
ATOM      4  C   UNL     1      34.302 -22.625 -16.948  0.00  0.00    +0.102 A 
ATOM      5  C   UNL     1      32.957 -21.817 -18.517  0.00  0.00    +0.075 A 
ATOM      6  C   UNL     1      35.227 -21.064 -18.832  0.00  0.00    +0.006 C 
ATOM      7  C   UNL     1      34.794 -20.358 -19.961  0.00  0.00    +0.033 C 
ATOM      8  C   UNL     1      32.505 -21.120 -19.639  0.00  0.00    +0.019 C 
ATOM      9  C   UNL     1      33.456 -20.387 -20.356  0.00  0.00    +0.004 C 
ATOM     10  H   UNL     1      31.339 -22.800 -17.667  0.00  0.00    +0.189 HD
ENDROOT
BRANCH   7  14
ATOM     11  N   UNL     1      36.988 -19.285 -20.267  0.00  0.00    -0.218 N 
ATOM     12  N   UNL     1      35.579 -19.089 -21.926  0.00  0.00    -0.206 NA
ATOM     13  N   UNL     1      37.673 -18.565 -21.170  0.00  0.00    -0.157 NA
ATOM     14  C   UNL     1      35.747 -19.590 -20.727  0.00  0.00    +0.149 C 
ATOM     15  C   UNL     1      36.777 -18.474 -22.154  0.00  0.00    +0.218 C 
ATOM     16  H   UNL     1      37.341 -19.556 -19.389  0.00  0.00    +0.176 HD
ENDBRANCH   7  14
BRANCH   4  18
ATOM     17  C   UNL     1      36.418 -24.193 -14.319  0.00  0.00    +0.138 C 
ATOM     18  C   UNL     1      35.436 -22.944 -16.128  0.00  0.00    +0.022 C 
ATOM     19  C   UNL     1      35.315 -23.889 -15.108  0.00  0.00    +0.038 C 
ATOM     20  C   UNL     1      37.639 -23.565 -14.534  0.00  0.00    +0.037 C 
ATOM     21  C   UNL     1      36.658 -22.311 -16.350  0.00  0.00    +0.002 C 
ATOM     22  C   UNL     1      37.760 -22.621 -15.554  0.00  0.00    +0.003 C 
BRANCH  17  23
ATOM     23  O   UNL     1      36.300 -25.121 -13.317  0.00  0.00    -0.478 OA
BRANCH  23  24
ATOM     24  C   UNL     1      37.507 -25.570 -12.714  0.00  0.00    +0.183 C 
BRANCH  24  25
ATOM     25  C   UNL     1      37.478 -27.088 -12.634  0.00  0.00    -0.029 C 
BRANCH  25  26
ATOM     26  N   UNL     1      38.430 -27.672 -13.579  0.00  0.00    +0.389 N 
ATOM     27  C   UNL     1      37.750 -28.056 -14.824  0.00  0.00    -0.077 C 
ATOM     28  C   UNL     1      39.533 -26.737 -13.841  0.00  0.00    -0.077 C 
ATOM     29  C   UNL     1      38.723 -28.713 -15.803  0.00  0.00    -0.023 C 
ATOM     30  C   UNL     1      40.564 -27.352 -14.789  0.00  0.00    -0.023 C 
ATOM     31  C   UNL     1      39.917 -27.810 -16.092  0.00  0.00    -0.004 C 
ATOM     32  H   UNL     1      38.827 -28.516 -13.164  0.00  0.00    -0.080 HD
ENDBRANCH  25  26
ENDBRANCH  24  25
ENDBRANCH  23  24
ENDBRANCH  17  23
ENDBRANCH   4  18
TORSDOF 6
ENDMDL
MODEL 6
REMARK VINA RESULT:     -10.5      3.458      6.117
REMARK  Name = 10430360
REMARK  6 active torsions:
REMARK  status: ('A' for Active; 'I' for Inactive)
REMARK    1  A    between atoms: C_4  and  C_18
REMARK    2  A    between atoms: C_7  and  C_14
REMARK    3  A    between atoms: C_17  and  O_23
REMARK    4  A    between atoms: O_23  and  C_24
REMARK    5  A    between atoms: C_24  and  C_25
REMARK    6  A    between atoms: C_25  and  N_26
REMARK                            x       y       z     vdW  Elec       q    Type
REMARK                         _______ _______ _______ _____ _____    ______ ____
ROOT
ATOM      1  N   UNL     1      32.726 -25.002 -13.349  0.00  0.00    -0.276 N 
ATOM      2  N   UNL     1      33.770 -24.535 -14.055  0.00  0.00    -0.173 NA
ATOM      3  C   UNL     1      31.783 -23.819 -14.937  0.00  0.00    +0.036 A 
ATOM      4  C   UNL     1      33.195 -23.813 -15.023  0.00  0.00    +0.102 A 
ATOM      5  C   UNL     1      31.505 -24.609 -13.827  0.00  0.00    +0.075 A 
ATOM      6  C   UNL     1      30.721 -23.253 -15.662  0.00  0.00    +0.006 C 
ATOM      7  C   UNL     1      29.411 -23.507 -15.238  0.00  0.00    +0.033 C 
ATOM      8  C   UNL     1      30.206 -24.875 -13.388  0.00  0.00    +0.019 C 
ATOM      9  C   UNL     1      29.160 -24.305 -14.120  0.00  0.00    +0.004 C 
ATOM     10  H   UNL     1      32.831 -25.578 -12.558  0.00  0.00    +0.189 HD
ENDROOT
BRANCH   7  14
ATOM     11  N   UNL     1      28.062 -23.216 -17.277  0.00  0.00    -0.218 N 
ATOM     12  N   UNL     1      27.404 -22.100 -15.517  0.00  0.00    -0.206 NA
ATOM     13  N   UNL     1      26.978 -22.558 -17.717  0.00  0.00    -0.157 NA
ATOM     14  C   UNL     1      28.305 -22.936 -15.970  0.00  0.00    +0.149 C 
ATOM     15  C   UNL     1      26.617 -21.898 -16.616  0.00  0.00    +0.218 C 
ATOM     16  H   UNL     1      28.608 -23.821 -17.828  0.00  0.00    +0.176 HD
ENDBRANCH   7  14
BRANCH   4  18
ATOM     17  C   UNL     1      36.063 -22.059 -16.619  0.00  0.00    +0.138 C 
ATOM     18  C   UNL     1      34.002 -23.138 -16.000  0.00  0.00    +0.022 C 
ATOM     19  C   UNL     1      35.288 -22.712 -15.668  0.00  0.00    +0.038 C 
ATOM     20  C   UNL     1      35.570 -21.826 -17.898  0.00  0.00    +0.037 C 
ATOM     21  C   UNL     1      33.500 -22.908 -17.280  0.00  0.00    +0.002 C 
ATOM     22  C   UNL     1      34.284 -22.252 -18.230  0.00  0.00    +0.003 C 
BRANCH  17  23
ATOM     23  O   UNL     1      37.327 -21.641 -16.294  0.00  0.00    -0.478 OA
BRANCH  23  24
ATOM     24  C   UNL     1      38.305 -22.654 -16.090  0.00  0.00    +0.183 C 
BRANCH  24  25
ATOM     25  C   UNL     1      38.011 -23.357 -14.775  0.00  0.00    -0.029 C 
BRANCH  25  26
ATOM     26  N   UNL     1      38.340 -24.780 -14.866  0.00  0.00    +0.389 N 
ATOM     27  C   UNL     1      39.749 -25.006 -14.516  0.00  0.00    -0.077 C 
ATOM     28  C   UNL     1      37.446 -25.570 -14.009  0.00  0.00    -0.077 C 
ATOM     29  C   UNL     1      40.121 -26.483 -14.654  0.00  0.00    -0.023 C 
ATOM     30  C   UNL     1      37.743 -27.066 -14.130  0.00  0.00    -0.023 C 
ATOM     31  C   UNL     1      39.204 -27.368 -13.817  0.00  0.00    -0.004 C 
ATOM     32  H   UNL     1      38.202 -25.086 -15.830  0.00  0.00    -0.080 HD
ENDBRANCH  25  26
ENDBRANCH  24  25
ENDBRANCH  23  24
ENDBRANCH  17  23
ENDBRANCH   4  18
TORSDOF 6
ENDMDL
MODEL 7
REMARK VINA RESULT:     -10.5      7.031     12.699
REMARK  Name = 10430360
REMARK  6 active torsions:
REMARK  status: ('A' for Active; 'I' for Inactive)
REMARK    1  A    between atoms: C_4  and  C_18
REMARK    2  A    between atoms: C_7  and  C_14
REMARK    3  A    between atoms: C_17  and  O_23
REMARK    4  A    between atoms: O_23  and  C_24
REMARK    5  A    between atoms: C_24  and  C_25
REMARK    6  A    between atoms: C_25  and  N_26
REMARK                            x       y       z     vdW  Elec       q    Type
REMARK                         _______ _______ _______ _____ _____    ______ ____
ROOT
ATOM      1  N   UNL     1      32.085 -12.503 -19.877  0.00  0.00    -0.276 N 
ATOM      2  N   UNL     1      32.469 -13.193 -20.964  0.00  0.00    -0.173 NA
ATOM      3  C   UNL     1      32.334 -10.952 -21.408  0.00  0.00    +0.036 A 
ATOM      4  C   UNL     1      32.621 -12.247 -21.899  0.00  0.00    +0.102 A 
ATOM      5  C   UNL     1      31.985 -11.152 -20.078  0.00  0.00    +0.075 A 
ATOM      6  C   UNL     1      32.330  -9.648 -21.932  0.00  0.00    +0.006 C 
ATOM      7  C   UNL     1      31.971  -8.590 -21.089  0.00  0.00    +0.033 C 
ATOM      8  C   UNL     1      31.624 -10.111 -19.220  0.00  0.00    +0.019 C 
ATOM      9  C   UNL     1      31.624  -8.819 -19.757  0.00  0.00    +0.004 C 
ATOM     10  H   UNL     1      31.893 -12.931 -19.013  0.00  0.00    +0.189 HD
ENDROOT
BRANCH   7  14
ATOM     11  N   UNL     1      31.143  -6.848 -22.619  0.00  0.00    -0.218 N 
ATOM     12  N   UNL     1      32.694  -6.234 -21.208  0.00  0.00    -0.206 NA
ATOM     13  N   UNL     1      31.328  -5.552 -22.911  0.00  0.00    -0.157 NA
ATOM     14  C   UNL     1      31.959  -7.242 -21.607  0.00  0.00    +0.149 C 
ATOM     15  C   UNL     1      32.276  -5.226 -22.030  0.00  0.00    +0.218 C 
ATOM     16  H   UNL     1      30.500  -7.436 -23.078  0.00  0.00    +0.176 HD
ENDBRANCH   7  14
BRANCH   4  18
ATOM     17  C   UNL     1      33.680 -14.270 -24.838  0.00  0.00    +0.138 C 
ATOM     18  C   UNL     1      33.036 -12.601 -23.227  0.00  0.00    +0.022 C 
ATOM     19  C   UNL     1      33.279 -13.936 -23.550  0.00  0.00    +0.038 C 
ATOM     20  C   UNL     1      33.842 -13.287 -25.808  0.00  0.00    +0.037 C 
ATOM     21  C   UNL     1      33.196 -11.609 -24.194  0.00  0.00    +0.002 C 
ATOM     22  C   UNL     1      33.598 -11.952 -25.485  0.00  0.00    +0.003 C 
BRANCH  17  23
ATOM     23  O   UNL     1      33.918 -15.582 -25.156  0.00  0.00    -0.478 OA
BRANCH  23  24
ATOM     24  C   UNL     1      34.895 -16.263 -24.379  0.00  0.00    +0.183 C 
BRANCH  24  25
ATOM     25  C   UNL     1      34.394 -17.668 -24.088  0.00  0.00    -0.029 C 
BRANCH  25  26
ATOM     26  N   UNL     1      34.657 -18.032 -22.696  0.00  0.00    +0.389 N 
ATOM     27  C   UNL     1      34.124 -19.370 -22.404  0.00  0.00    -0.077 C 
ATOM     28  C   UNL     1      36.096 -17.958 -22.408  0.00  0.00    -0.077 C 
ATOM     29  C   UNL     1      34.348 -19.745 -20.938  0.00  0.00    -0.023 C 
ATOM     30  C   UNL     1      36.383 -18.287 -20.942  0.00  0.00    -0.023 C 
ATOM     31  C   UNL     1      35.822 -19.652 -20.559  0.00  0.00    -0.004 C 
ATOM     32  H   UNL     1      34.181 -17.365 -22.088  0.00  0.00    -0.080 HD
ENDBRANCH  25  26
ENDBRANCH  24  25
ENDBRANCH  23  24
ENDBRANCH  17  23
ENDBRANCH   4  18
TORSDOF 6
ENDMDL
MODEL 8
REMARK VINA RESULT:     -10.5      3.612      7.693
REMARK  Name = 10430360
REMARK  6 active torsions:
REMARK  status: ('A' for Active; 'I' for Inactive)
REMARK    1  A    between atoms: C_4  and  C_18
REMARK    2  A    between atoms: C_7  and  C_14
REMARK    3  A    between atoms: C_17  and  O_23
REMARK    4  A    between atoms: O_23  and  C_24
REMARK    5  A    between atoms: C_24  and  C_25
REMARK    6  A    between atoms: C_25  and  N_26
REMARK                            x       y       z     vdW  Elec       q    Type
REMARK                         _______ _______ _______ _____ _____    ______ ____
ROOT
ATOM      1  N   UNL     1      37.859 -18.852 -21.021  0.00  0.00    -0.276 N 
ATOM      2  N   UNL     1      37.231 -18.306 -22.077  0.00  0.00    -0.173 NA
ATOM      3  C   UNL     1      35.801 -19.587 -20.831  0.00  0.00    +0.036 A 
ATOM      4  C   UNL     1      35.976 -18.754 -21.961  0.00  0.00    +0.102 A 
ATOM      5  C   UNL     1      37.056 -19.633 -20.234  0.00  0.00    +0.075 A 
ATOM      6  C   UNL     1      34.738 -20.300 -20.252  0.00  0.00    +0.006 C 
ATOM      7  C   UNL     1      34.982 -21.035 -19.086  0.00  0.00    +0.033 C 
ATOM      8  C   UNL     1      37.321 -20.360 -19.072  0.00  0.00    +0.019 C 
ATOM      9  C   UNL     1      36.252 -21.064 -18.508  0.00  0.00    +0.004 C 
ATOM     10  H   UNL     1      38.813 -18.703 -20.832  0.00  0.00    +0.189 HD
ENDROOT
BRANCH   7  14
ATOM     11  N   UNL     1      32.601 -21.403 -18.578  0.00  0.00    -0.218 N 
ATOM     12  N   UNL     1      33.999 -22.869 -17.759  0.00  0.00    -0.206 NA
ATOM     13  N   UNL     1      31.802 -22.258 -17.922  0.00  0.00    -0.157 NA
ATOM     14  C   UNL     1      33.903 -21.776 -18.475  0.00  0.00    +0.149 C 
ATOM     15  C   UNL     1      32.695 -23.125 -17.444  0.00  0.00    +0.218 C 
ATOM     16  H   UNL     1      32.285 -20.612 -19.071  0.00  0.00    +0.176 HD
ENDBRANCH   7  14
BRANCH   4  18
ATOM     17  C   UNL     1      33.810 -16.674 -24.158  0.00  0.00    +0.138 C 
ATOM     18  C   UNL     1      34.980 -18.377 -22.924  0.00  0.00    +0.022 C 
ATOM     19  C   UNL     1      34.775 -17.030 -23.225  0.00  0.00    +0.038 C 
ATOM     20  C   UNL     1      33.045 -17.645 -24.795  0.00  0.00    +0.037 C 
ATOM     21  C   UNL     1      34.218 -19.357 -23.558  0.00  0.00    +0.002 C 
ATOM     22  C   UNL     1      33.251 -18.992 -24.494  0.00  0.00    +0.003 C 
BRANCH  17  23
ATOM     23  O   UNL     1      33.608 -15.351 -24.455  0.00  0.00    -0.478 OA
BRANCH  23  24
ATOM     24  C   UNL     1      34.297 -14.401 -23.651  0.00  0.00    +0.183 C 
BRANCH  24  25
ATOM     25  C   UNL     1      33.604 -13.055 -23.785  0.00  0.00    -0.029 C 
BRANCH  25  26
ATOM     26  N   UNL     1      32.706 -12.823 -22.653  0.00  0.00    +0.389 N 
ATOM     27  C   UNL     1      33.221 -13.482 -21.444  0.00  0.00    -0.077 C 
ATOM     28  C   UNL     1      32.518 -11.382 -22.434  0.00  0.00    -0.077 C 
ATOM     29  C   UNL     1      32.270 -13.289 -20.263  0.00  0.00    -0.023 C 
ATOM     30  C   UNL     1      31.543 -11.121 -21.284  0.00  0.00    -0.023 C 
ATOM     31  C   UNL     1      31.998 -11.811 -20.003  0.00  0.00    -0.004 C 
ATOM     32  H   UNL     1      31.795 -13.229 -22.869  0.00  0.00    -0.080 HD
ENDBRANCH  25  26
ENDBRANCH  24  25
ENDBRANCH  23  24
ENDBRANCH  17  23
ENDBRANCH   4  18
TORSDOF 6
ENDMDL
MODEL 9
REMARK VINA RESULT:     -10.5      3.561      6.243
REMARK  Name = 10430360
REMARK  6 active torsions:
REMARK  status: ('A' for Active; 'I' for Inactive)
REMARK    1  A    between atoms: C_4  and  C_18
REMARK    2  A    between atoms: C_7  and  C_14
REMARK    3  A    between atoms: C_17  and  O_23
REMARK    4  A    between atoms: O_23  and  C_24
REMARK    5  A    between atoms: C_24  and  C_25
REMARK    6  A    between atoms: C_25  and  N_26
REMARK                            x       y       z     vdW  Elec       q    Type
REMARK                         _______ _______ _______ _____ _____    ______ ____
ROOT
ATOM      1  N   UNL     1      37.145 -23.157 -12.472  0.00  0.00    -0.276 N 
ATOM      2  N   UNL     1      36.026 -22.677 -13.041  0.00  0.00    -0.173 NA
ATOM      3  C   UNL     1      36.628 -24.686 -13.957  0.00  0.00    +0.036 A 
ATOM      4  C   UNL     1      35.711 -23.610 -13.947  0.00  0.00    +0.102 A 
ATOM      5  C   UNL     1      37.560 -24.360 -12.977  0.00  0.00    +0.075 A 
ATOM      6  C   UNL     1      36.777 -25.885 -14.675  0.00  0.00    +0.006 C 
ATOM      7  C   UNL     1      37.865 -26.714 -14.375  0.00  0.00    +0.033 C 
ATOM      8  C   UNL     1      38.651 -25.171 -12.663  0.00  0.00    +0.019 C 
ATOM      9  C   UNL     1      38.785 -26.361 -13.386  0.00  0.00    +0.004 C 
ATOM     10  H   UNL     1      37.624 -22.683 -11.755  0.00  0.00    +0.189 HD
ENDROOT
BRANCH   7  14
ATOM     11  N   UNL     1      37.852 -28.049 -16.442  0.00  0.00    -0.218 N 
ATOM     12  N   UNL     1      38.380 -29.115 -14.610  0.00  0.00    -0.206 NA
ATOM     13  N   UNL     1      38.073 -29.303 -16.868  0.00  0.00    -0.157 NA
ATOM     14  C   UNL     1      38.037 -27.950 -15.101  0.00  0.00    +0.149 C 
ATOM     15  C   UNL     1      38.390 -29.908 -15.722  0.00  0.00    +0.218 C 
ATOM     16  H   UNL     1      37.591 -27.301 -17.027  0.00  0.00    +0.176 HD
ENDBRANCH   7  14
BRANCH   4  18
ATOM     17  C   UNL     1      33.558 -23.111 -16.942  0.00  0.00    +0.138 C 
ATOM     18  C   UNL     1      34.548 -23.454 -14.774  0.00  0.00    +0.022 C 
ATOM     19  C   UNL     1      34.689 -23.261 -16.149  0.00  0.00    +0.038 C 
ATOM     20  C   UNL     1      32.287 -23.150 -16.380  0.00  0.00    +0.037 C 
ATOM     21  C   UNL     1      33.276 -23.494 -14.203  0.00  0.00    +0.002 C 
ATOM     22  C   UNL     1      32.145 -23.342 -15.006  0.00  0.00    +0.003 C 
BRANCH  17  23
ATOM     23  O   UNL     1      33.696 -22.923 -18.292  0.00  0.00    -0.478 OA
BRANCH  23  24
ATOM     24  C   UNL     1      33.852 -21.582 -18.741  0.00  0.00    +0.183 C 
BRANCH  24  25
ATOM     25  C   UNL     1      35.296 -21.375 -19.168  0.00  0.00    -0.029 C 
BRANCH  25  26
ATOM     26  N   UNL     1      35.444 -20.114 -19.894  0.00  0.00    +0.389 N 
ATOM     27  C   UNL     1      36.859 -19.852 -20.190  0.00  0.00    -0.077 C 
ATOM     28  C   UNL     1      34.638 -20.130 -21.122  0.00  0.00    -0.077 C 
ATOM     29  C   UNL     1      37.035 -18.513 -20.906  0.00  0.00    -0.023 C 
ATOM     30  C   UNL     1      34.741 -18.799 -21.869  0.00  0.00    -0.023 C 
ATOM     31  C   UNL     1      36.193 -18.446 -22.175  0.00  0.00    -0.004 C 
ATOM     32  H   UNL     1      35.101 -19.355 -19.304  0.00  0.00    -0.080 HD
ENDBRANCH  25  26
ENDBRANCH  24  25
ENDBRANCH  23  24
ENDBRANCH  17  23
ENDBRANCH   4  18
TORSDOF 6
ENDMDL
