MODEL 1
REMARK VINA RESULT:     -11.6      0.000      0.000
REMARK  Name = 54726191
REMARK  4 active torsions:
REMARK  status: ('A' for Active; 'I' for Inactive)
REMARK    1  A    between atoms: C_15  and  O_31
REMARK    2  A    between atoms: C_16  and  C_20
REMARK    3  A    between atoms: N_19  and  C_22
REMARK    4  A    between atoms: C_22  and  C_25
REMARK                            x       y       z     vdW  Elec       q    Type
REMARK                         _______ _______ _______ _____ _____    ______ ____
ROOT
ATOM      1  O   UNL     1      37.132 -22.570 -15.651  0.00  0.00    -0.336 OA
ATOM      2  O   UNL     1      33.154 -23.325 -18.032  0.00  0.00    -0.268 OA
ATOM      3  O   UNL     1      33.352 -19.662 -21.561  0.00  0.00    -0.283 OA
ATOM      4  N   UNL     1      34.980 -22.802 -16.709  0.00  0.00    -0.253 N 
ATOM      5  N   UNL     1      35.899 -21.094 -18.752  0.00  0.00    -0.275 N 
ATOM      6  C   UNL     1      36.149 -21.944 -16.484  0.00  0.00    +0.215 C 
ATOM      7  C   UNL     1      34.461 -23.578 -15.569  0.00  0.00    +0.080 C 
ATOM      8  C   UNL     1      35.594 -24.120 -14.696  0.00  0.00    +0.052 C 
ATOM      9  C   UNL     1      36.850 -21.648 -17.800  0.00  0.00    +0.147 C 
ATOM     10  C   UNL     1      36.617 -23.038 -14.412  0.00  0.00    +0.146 C 
ATOM     11  C   UNL     1      34.168 -22.654 -17.842  0.00  0.00    +0.267 C 
ATOM     12  C   UNL     1      34.596 -21.594 -18.831  0.00  0.00    +0.143 C 
ATOM     13  C   UNL     1      33.471 -22.738 -14.753  0.00  0.00    +0.022 C 
ATOM     14  C   UNL     1      36.304 -20.128 -19.663  0.00  0.00    +0.074 C 
ATOM     15  C   UNL     1      33.702 -21.155 -19.744  0.00  0.00    +0.191 C 
ATOM     16  C   UNL     1      35.527 -19.604 -20.620  0.00  0.00    +0.110 C 
ATOM     17  C   UNL     1      34.129 -20.098 -20.717  0.00  0.00    +0.236 C 
ENDROOT
BRANCH  16  20
ATOM     18  O   UNL     1      37.280 -18.624 -21.837  0.00  0.00    -0.270 OA
ATOM     19  N   UNL     1      35.169 -17.636 -21.901  0.00  0.00    -0.297 N 
ATOM     20  C   UNL     1      36.094 -18.589 -21.506  0.00  0.00    +0.251 C 
ATOM     21  H   UNL     1      34.246 -17.716 -21.567  0.00  0.00    +0.150 HD
BRANCH  19  22
ATOM     22  C   UNL     1      35.488 -16.530 -22.775  0.00  0.00    +0.119 C 
BRANCH  22  25
ATOM     23  F   UNL     1      34.189 -15.048 -24.806  0.00  0.00    -0.204 F 
ATOM     24  F   UNL     1      32.302 -12.012 -21.706  0.00  0.00    -0.204 F 
ATOM     25  C   UNL     1      34.638 -15.325 -22.491  0.00  0.00    +0.025 C 
ATOM     26  C   UNL     1      34.026 -14.639 -23.541  0.00  0.00    +0.140 C 
ATOM     27  C   UNL     1      34.461 -14.893 -21.177  0.00  0.00    +0.002 C 
ATOM     28  C   UNL     1      33.236 -13.520 -23.275  0.00  0.00    +0.059 C 
ATOM     29  C   UNL     1      33.672 -13.773 -20.912  0.00  0.00    +0.030 C 
ATOM     30  C   UNL     1      33.060 -13.086 -21.960  0.00  0.00    +0.142 C 
ENDBRANCH  22  25
ENDBRANCH  19  22
ENDBRANCH  16  20
BRANCH  15  31
ATOM     31  O   UNL     1      32.404 -21.605 -19.834  0.00  0.00    -0.502 OA
ATOM     32  H   UNL     1      32.183 -22.463 -19.528  0.00  0.00    +0.292 HD
ENDBRANCH  15  31
TORSDOF 4
ENDMDL
MODEL 2
REMARK VINA RESULT:     -11.1      5.821     11.598
REMARK  Name = 54726191
REMARK  4 active torsions:
REMARK  status: ('A' for Active; 'I' for Inactive)
REMARK    1  A    between atoms: C_15  and  O_31
REMARK    2  A    between atoms: C_16  and  C_20
REMARK    3  A    between atoms: N_19  and  C_22
REMARK    4  A    between atoms: C_22  and  C_25
REMARK                            x       y       z     vdW  Elec       q    Type
REMARK                         _______ _______ _______ _____ _____    ______ ____
ROOT
ATOM      1  O   UNL     1      34.007  -6.694 -24.044  0.00  0.00    -0.336 OA
ATOM      2  O   UNL     1      32.116  -8.823 -20.307  0.00  0.00    -0.268 OA
ATOM      3  O   UNL     1      32.003 -13.678 -21.834  0.00  0.00    -0.283 OA
ATOM      4  N   UNL     1      32.813  -7.742 -22.232  0.00  0.00    -0.253 N 
ATOM      5  N   UNL     1      33.576 -10.239 -23.291  0.00  0.00    -0.275 N 
ATOM      6  C   UNL     1      33.266  -7.847 -23.624  0.00  0.00    +0.215 C 
ATOM      7  C   UNL     1      32.301  -6.440 -21.766  0.00  0.00    +0.080 C 
ATOM      8  C   UNL     1      33.107  -5.279 -22.350  0.00  0.00    +0.052 C 
ATOM      9  C   UNL     1      34.211  -9.026 -23.786  0.00  0.00    +0.147 C 
ATOM     10  C   UNL     1      33.319  -5.468 -23.839  0.00  0.00    +0.146 C 
ATOM     11  C   UNL     1      32.545  -8.880 -21.460  0.00  0.00    +0.267 C 
ATOM     12  C   UNL     1      32.796 -10.211 -22.131  0.00  0.00    +0.143 C 
ATOM     13  C   UNL     1      30.807  -6.306 -22.083  0.00  0.00    +0.022 C 
ATOM     14  C   UNL     1      33.820 -11.458 -23.907  0.00  0.00    +0.074 C 
ATOM     15  C   UNL     1      32.243 -11.324 -21.600  0.00  0.00    +0.191 C 
ATOM     16  C   UNL     1      33.340 -12.636 -23.491  0.00  0.00    +0.110 C 
ATOM     17  C   UNL     1      32.487 -12.640 -22.274  0.00  0.00    +0.236 C 
ENDROOT
BRANCH  16  20
ATOM     18  O   UNL     1      33.315 -13.980 -25.417  0.00  0.00    -0.270 OA
ATOM     19  N   UNL     1      34.427 -14.749 -23.517  0.00  0.00    -0.297 N 
ATOM     20  C   UNL     1      33.680 -13.840 -24.249  0.00  0.00    +0.251 C 
ATOM     21  H   UNL     1      34.657 -14.521 -22.587  0.00  0.00    +0.150 HD
BRANCH  19  22
ATOM     22  C   UNL     1      34.884 -16.014 -24.046  0.00  0.00    +0.119 C 
BRANCH  22  25
ATOM     23  F   UNL     1      34.125 -18.704 -24.483  0.00  0.00    -0.204 F 
ATOM     24  F   UNL     1      35.209 -19.972 -20.055  0.00  0.00    -0.204 F 
ATOM     25  C   UNL     1      34.970 -17.070 -22.983  0.00  0.00    +0.025 C 
ATOM     26  C   UNL     1      34.579 -18.379 -23.265  0.00  0.00    +0.140 C 
ATOM     27  C   UNL     1      35.442 -16.741 -21.712  0.00  0.00    +0.002 C 
ATOM     28  C   UNL     1      34.660 -19.359 -22.276  0.00  0.00    +0.059 C 
ATOM     29  C   UNL     1      35.523 -17.722 -20.723  0.00  0.00    +0.030 C 
ATOM     30  C   UNL     1      35.131 -19.031 -21.004  0.00  0.00    +0.142 C 
ENDBRANCH  22  25
ENDBRANCH  19  22
ENDBRANCH  16  20
BRANCH  15  31
ATOM     31  O   UNL     1      31.448 -11.332 -20.476  0.00  0.00    -0.502 OA
ATOM     32  H   UNL     1      30.741 -11.943 -20.406  0.00  0.00    +0.292 HD
ENDBRANCH  15  31
TORSDOF 4
ENDMDL
MODEL 3
REMARK VINA RESULT:     -10.4      3.590      5.373
REMARK  Name = 54726191
REMARK  4 active torsions:
REMARK  status: ('A' for Active; 'I' for Inactive)
REMARK    1  A    between atoms: C_15  and  O_31
REMARK    2  A    between atoms: C_16  and  C_20
REMARK    3  A    between atoms: N_19  and  C_22
REMARK    4  A    between atoms: C_22  and  C_25
REMARK                            x       y       z     vdW  Elec       q    Type
REMARK                         _______ _______ _______ _____ _____    ______ ____
ROOT
ATOM      1  O   UNL     1      37.907 -24.590 -13.233  0.00  0.00    -0.336 OA
ATOM      2  O   UNL     1      33.304 -24.581 -12.291  0.00  0.00    -0.268 OA
ATOM      3  O   UNL     1      31.384 -22.558 -16.549  0.00  0.00    -0.283 OA
ATOM      4  N   UNL     1      35.581 -24.357 -12.650  0.00  0.00    -0.253 N 
ATOM      5  N   UNL     1      35.043 -23.837 -15.366  0.00  0.00    -0.275 N 
ATOM      6  C   UNL     1      36.664 -23.952 -13.552  0.00  0.00    +0.215 C 
ATOM      7  C   UNL     1      35.888 -24.490 -11.215  0.00  0.00    +0.080 C 
ATOM      8  C   UNL     1      37.274 -25.095 -10.991  0.00  0.00    +0.052 C 
ATOM      9  C   UNL     1      36.345 -24.363 -14.981  0.00  0.00    +0.147 C 
ATOM     10  C   UNL     1      38.303 -24.423 -11.879  0.00  0.00    +0.146 C 
ATOM     11  C   UNL     1      34.236 -24.296 -13.043  0.00  0.00    +0.267 C 
ATOM     12  C   UNL     1      33.980 -23.834 -14.459  0.00  0.00    +0.143 C 
ATOM     13  C   UNL     1      35.741 -23.138 -10.506  0.00  0.00    +0.022 C 
ATOM     14  C   UNL     1      34.814 -23.425 -16.671  0.00  0.00    +0.074 C 
ATOM     15  C   UNL     1      32.739 -23.417 -14.794  0.00  0.00    +0.191 C 
ATOM     16  C   UNL     1      33.639 -22.990 -17.142  0.00  0.00    +0.110 C 
ATOM     17  C   UNL     1      32.492 -22.952 -16.197  0.00  0.00    +0.236 C 
ENDROOT
BRANCH  16  20
ATOM     18  O   UNL     1      33.747 -23.390 -19.454  0.00  0.00    -0.270 OA
ATOM     19  N   UNL     1      33.233 -21.243 -18.701  0.00  0.00    -0.297 N 
ATOM     20  C   UNL     1      33.551 -22.583 -18.544  0.00  0.00    +0.251 C 
ATOM     21  H   UNL     1      33.099 -20.698 -17.892  0.00  0.00    +0.150 HD
BRANCH  19  22
ATOM     22  C   UNL     1      33.090 -20.605 -19.990  0.00  0.00    +0.119 C 
BRANCH  22  25
ATOM     23  F   UNL     1      33.353 -19.312 -22.493  0.00  0.00    -0.204 F 
ATOM     24  F   UNL     1      37.978 -18.534 -21.866  0.00  0.00    -0.204 F 
ATOM     25  C   UNL     1      34.393 -20.052 -20.491  0.00  0.00    +0.025 C 
ATOM     26  C   UNL     1      34.453 -19.426 -21.737  0.00  0.00    +0.140 C 
ATOM     27  C   UNL     1      35.543 -20.166 -19.710  0.00  0.00    +0.002 C 
ATOM     28  C   UNL     1      35.665 -18.913 -22.201  0.00  0.00    +0.059 C 
ATOM     29  C   UNL     1      36.755 -19.653 -20.175  0.00  0.00    +0.030 C 
ATOM     30  C   UNL     1      36.816 -19.027 -21.420  0.00  0.00    +0.142 C 
ENDBRANCH  22  25
ENDBRANCH  19  22
ENDBRANCH  16  20
BRANCH  15  31
ATOM     31  O   UNL     1      31.675 -23.375 -13.921  0.00  0.00    -0.502 OA
ATOM     32  H   UNL     1      30.966 -22.781 -14.075  0.00  0.00    +0.292 HD
ENDBRANCH  15  31
TORSDOF 4
ENDMDL
MODEL 4
REMARK VINA RESULT:     -10.3      4.743      8.147
REMARK  Name = 54726191
REMARK  4 active torsions:
REMARK  status: ('A' for Active; 'I' for Inactive)
REMARK    1  A    between atoms: C_15  and  O_31
REMARK    2  A    between atoms: C_16  and  C_20
REMARK    3  A    between atoms: N_19  and  C_22
REMARK    4  A    between atoms: C_22  and  C_25
REMARK                            x       y       z     vdW  Elec       q    Type
REMARK                         _______ _______ _______ _____ _____    ______ ____
ROOT
ATOM      1  O   UNL     1      35.590 -17.608 -20.331  0.00  0.00    -0.336 OA
ATOM      2  O   UNL     1      35.318 -16.383 -24.858  0.00  0.00    -0.268 OA
ATOM      3  O   UNL     1      32.417 -12.207 -24.624  0.00  0.00    -0.283 OA
ATOM      4  N   UNL     1      35.247 -17.128 -22.667  0.00  0.00    -0.253 N 
ATOM      5  N   UNL     1      34.215 -14.619 -21.908  0.00  0.00    -0.275 N 
ATOM      6  C   UNL     1      34.794 -16.902 -21.290  0.00  0.00    +0.215 C 
ATOM      7  C   UNL     1      35.656 -18.492 -23.046  0.00  0.00    +0.080 C 
ATOM      8  C   UNL     1      36.416 -19.186 -21.916  0.00  0.00    +0.052 C 
ATOM      9  C   UNL     1      34.918 -15.431 -20.926  0.00  0.00    +0.147 C 
ATOM     10  C   UNL     1      35.698 -19.001 -20.594  0.00  0.00    +0.146 C 
ATOM     11  C   UNL     1      34.995 -16.198 -23.685  0.00  0.00    +0.267 C 
ATOM     12  C   UNL     1      34.271 -14.938 -23.267  0.00  0.00    +0.143 C 
ATOM     13  C   UNL     1      34.440 -19.311 -23.495  0.00  0.00    +0.022 C 
ATOM     14  C   UNL     1      33.563 -13.458 -21.517  0.00  0.00    +0.074 C 
ATOM     15  C   UNL     1      33.690 -14.174 -24.219  0.00  0.00    +0.191 C 
ATOM     16  C   UNL     1      32.946 -12.609 -22.348  0.00  0.00    +0.110 C 
ATOM     17  C   UNL     1      32.967 -12.930 -23.799  0.00  0.00    +0.236 C 
ENDROOT
BRANCH  16  20
ATOM     18  O   UNL     1      31.610 -11.500 -20.766  0.00  0.00    -0.270 OA
ATOM     19  N   UNL     1      32.540 -10.274 -22.519  0.00  0.00    -0.297 N 
ATOM     20  C   UNL     1      32.295 -11.425 -21.788  0.00  0.00    +0.251 C 
ATOM     21  H   UNL     1      33.107 -10.343 -23.321  0.00  0.00    +0.150 HD
BRANCH  19  22
ATOM     22  C   UNL     1      32.007  -8.978 -22.166  0.00  0.00    +0.119 C 
BRANCH  22  25
ATOM     23  F   UNL     1      30.776  -6.992 -23.762  0.00  0.00    -0.204 F 
ATOM     24  F   UNL     1      34.879  -4.785 -24.589  0.00  0.00    -0.204 F 
ATOM     25  C   UNL     1      32.771  -7.860 -22.813  0.00  0.00    +0.025 C 
ATOM     26  C   UNL     1      32.102  -6.912 -23.588  0.00  0.00    +0.140 C 
ATOM     27  C   UNL     1      34.152  -7.769 -22.637  0.00  0.00    +0.002 C 
ATOM     28  C   UNL     1      32.815  -5.874 -24.188  0.00  0.00    +0.059 C 
ATOM     29  C   UNL     1      34.864  -6.729 -23.237  0.00  0.00    +0.030 C 
ATOM     30  C   UNL     1      34.196  -5.782 -24.013  0.00  0.00    +0.142 C 
ENDBRANCH  22  25
ENDBRANCH  19  22
ENDBRANCH  16  20
BRANCH  15  31
ATOM     31  O   UNL     1      33.701 -14.471 -25.563  0.00  0.00    -0.502 OA
ATOM     32  H   UNL     1      33.555 -13.794 -26.194  0.00  0.00    +0.292 HD
ENDBRANCH  15  31
TORSDOF 4
ENDMDL
MODEL 5
REMARK VINA RESULT:      -9.8      8.248     10.065
REMARK  Name = 54726191
REMARK  4 active torsions:
REMARK  status: ('A' for Active; 'I' for Inactive)
REMARK    1  A    between atoms: C_15  and  O_31
REMARK    2  A    between atoms: C_16  and  C_20
REMARK    3  A    between atoms: N_19  and  C_22
REMARK    4  A    between atoms: C_22  and  C_25
REMARK                            x       y       z     vdW  Elec       q    Type
REMARK                         _______ _______ _______ _____ _____    ______ ____
ROOT
ATOM      1  O   UNL     1      39.077 -29.091 -13.048  0.00  0.00    -0.336 OA
ATOM      2  O   UNL     1      40.274 -25.071 -15.162  0.00  0.00    -0.268 OA
ATOM      3  O   UNL     1      36.078 -22.266 -14.496  0.00  0.00    -0.283 OA
ATOM      4  N   UNL     1      39.598 -27.129 -14.344  0.00  0.00    -0.253 N 
ATOM      5  N   UNL     1      37.379 -25.863 -13.156  0.00  0.00    -0.275 N 
ATOM      6  C   UNL     1      38.551 -27.928 -13.698  0.00  0.00    +0.215 C 
ATOM      7  C   UNL     1      40.669 -27.841 -15.063  0.00  0.00    +0.080 C 
ATOM      8  C   UNL     1      41.087 -29.115 -14.329  0.00  0.00    +0.052 C 
ATOM      9  C   UNL     1      37.866 -27.121 -12.607  0.00  0.00    +0.147 C 
ATOM     10  C   UNL     1      39.870 -29.910 -13.897  0.00  0.00    +0.146 C 
ATOM     11  C   UNL     1      39.435 -25.756 -14.577  0.00  0.00    +0.267 C 
ATOM     12  C   UNL     1      38.142 -25.149 -14.084  0.00  0.00    +0.143 C 
ATOM     13  C   UNL     1      40.243 -28.135 -16.507  0.00  0.00    +0.022 C 
ATOM     14  C   UNL     1      36.195 -25.308 -12.689  0.00  0.00    +0.074 C 
ATOM     15  C   UNL     1      37.759 -23.946 -14.568  0.00  0.00    +0.191 C 
ATOM     16  C   UNL     1      35.697 -24.128 -13.079  0.00  0.00    +0.110 C 
ATOM     17  C   UNL     1      36.472 -23.352 -14.082  0.00  0.00    +0.236 C 
ENDROOT
BRANCH  16  20
ATOM     18  O   UNL     1      34.246 -23.698 -11.283  0.00  0.00    -0.270 OA
ATOM     19  N   UNL     1      33.526 -23.239 -13.453  0.00  0.00    -0.297 N 
ATOM     20  C   UNL     1      34.433 -23.675 -12.500  0.00  0.00    +0.251 C 
ATOM     21  H   UNL     1      33.794 -23.269 -14.399  0.00  0.00    +0.150 HD
BRANCH  19  22
ATOM     22  C   UNL     1      32.207 -22.744 -13.129  0.00  0.00    +0.119 C 
BRANCH  22  25
ATOM     23  F   UNL     1      31.183 -25.351 -12.734  0.00  0.00    -0.204 F 
ATOM     24  F   UNL     1      28.236 -25.003 -16.419  0.00  0.00    -0.204 F 
ATOM     25  C   UNL     1      31.149 -23.347 -14.005  0.00  0.00    +0.025 C 
ATOM     26  C   UNL     1      30.687 -24.640 -13.755  0.00  0.00    +0.140 C 
ATOM     27  C   UNL     1      30.626 -22.613 -15.070  0.00  0.00    +0.002 C 
ATOM     28  C   UNL     1      29.703 -25.199 -14.571  0.00  0.00    +0.059 C 
ATOM     29  C   UNL     1      29.642 -23.173 -15.886  0.00  0.00    +0.030 C 
ATOM     30  C   UNL     1      29.180 -24.466 -15.637  0.00  0.00    +0.142 C 
ENDBRANCH  22  25
ENDBRANCH  19  22
ENDBRANCH  16  20
BRANCH  15  31
ATOM     31  O   UNL     1      38.471 -23.227 -15.502  0.00  0.00    -0.502 OA
ATOM     32  H   UNL     1      38.020 -22.678 -16.113  0.00  0.00    +0.292 HD
ENDBRANCH  15  31
TORSDOF 4
ENDMDL
MODEL 6
REMARK VINA RESULT:      -9.6      4.005      9.659
REMARK  Name = 54726191
REMARK  4 active torsions:
REMARK  status: ('A' for Active; 'I' for Inactive)
REMARK    1  A    between atoms: C_15  and  O_31
REMARK    2  A    between atoms: C_16  and  C_20
REMARK    3  A    between atoms: N_19  and  C_22
REMARK    4  A    between atoms: C_22  and  C_25
REMARK                            x       y       z     vdW  Elec       q    Type
REMARK                         _______ _______ _______ _____ _____    ______ ____
ROOT
ATOM      1  O   UNL     1      33.808 -11.163 -22.008  0.00  0.00    -0.336 OA
ATOM      2  O   UNL     1      32.984 -14.181 -25.512  0.00  0.00    -0.268 OA
ATOM      3  O   UNL     1      35.209 -18.415 -23.771  0.00  0.00    -0.283 OA
ATOM      4  N   UNL     1      33.602 -12.631 -23.906  0.00  0.00    -0.253 N 
ATOM      5  N   UNL     1      34.373 -14.761 -22.231  0.00  0.00    -0.275 N 
ATOM      6  C   UNL     1      34.281 -12.361 -22.635  0.00  0.00    +0.215 C 
ATOM      7  C   UNL     1      33.337 -11.494 -24.806  0.00  0.00    +0.080 C 
ATOM      8  C   UNL     1      32.930 -10.244 -24.025  0.00  0.00    +0.052 C 
ATOM      9  C   UNL     1      34.011 -13.480 -21.642  0.00  0.00    +0.147 C 
ATOM     10  C   UNL     1      33.862 -10.019 -22.850  0.00  0.00    +0.146 C 
ATOM     11  C   UNL     1      33.503 -13.930 -24.425  0.00  0.00    +0.267 C 
ATOM     12  C   UNL     1      34.096 -15.030 -23.574  0.00  0.00    +0.143 C 
ATOM     13  C   UNL     1      34.549 -11.229 -25.707  0.00  0.00    +0.022 C 
ATOM     14  C   UNL     1      34.907 -15.769 -21.440  0.00  0.00    +0.074 C 
ATOM     15  C   UNL     1      34.354 -16.228 -24.144  0.00  0.00    +0.191 C 
ATOM     16  C   UNL     1      35.211 -17.000 -21.870  0.00  0.00    +0.110 C 
ATOM     17  C   UNL     1      34.950 -17.313 -23.299  0.00  0.00    +0.236 C 
ENDROOT
BRANCH  16  20
ATOM     18  O   UNL     1      36.408 -17.576 -19.933  0.00  0.00    -0.270 OA
ATOM     19  N   UNL     1      35.511 -19.275 -21.255  0.00  0.00    -0.297 N 
ATOM     20  C   UNL     1      35.774 -17.957 -20.918  0.00  0.00    +0.251 C 
ATOM     21  H   UNL     1      34.991 -19.452 -22.071  0.00  0.00    +0.150 HD
BRANCH  19  22
ATOM     22  C   UNL     1      35.963 -20.402 -20.471  0.00  0.00    +0.119 C 
BRANCH  22  25
ATOM     23  F   UNL     1      36.461 -22.092 -18.257  0.00  0.00    -0.204 F 
ATOM     24  F   UNL     1      31.859 -22.495 -17.233  0.00  0.00    -0.204 F 
ATOM     25  C   UNL     1      34.870 -20.961 -19.607  0.00  0.00    +0.025 C 
ATOM     26  C   UNL     1      35.185 -21.789 -18.529  0.00  0.00    +0.140 C 
ATOM     27  C   UNL     1      33.538 -20.650 -19.883  0.00  0.00    +0.002 C 
ATOM     28  C   UNL     1      34.168 -22.307 -17.728  0.00  0.00    +0.059 C 
ATOM     29  C   UNL     1      32.521 -21.169 -19.080  0.00  0.00    +0.030 C 
ATOM     30  C   UNL     1      32.835 -21.997 -18.003  0.00  0.00    +0.142 C 
ENDBRANCH  22  25
ENDBRANCH  19  22
ENDBRANCH  16  20
BRANCH  15  31
ATOM     31  O   UNL     1      34.120 -16.521 -25.469  0.00  0.00    -0.502 OA
ATOM     32  H   UNL     1      33.806 -17.369 -25.713  0.00  0.00    +0.292 HD
ENDBRANCH  15  31
TORSDOF 4
ENDMDL
MODEL 7
REMARK VINA RESULT:      -9.5      9.582     15.679
REMARK  Name = 54726191
REMARK  4 active torsions:
REMARK  status: ('A' for Active; 'I' for Inactive)
REMARK    1  A    between atoms: C_15  and  O_31
REMARK    2  A    between atoms: C_16  and  C_20
REMARK    3  A    between atoms: N_19  and  C_22
REMARK    4  A    between atoms: C_22  and  C_25
REMARK                            x       y       z     vdW  Elec       q    Type
REMARK                         _______ _______ _______ _____ _____    ______ ____
ROOT
ATOM      1  O   UNL     1      34.916  -4.637 -26.457  0.00  0.00    -0.336 OA
ATOM      2  O   UNL     1      32.149  -2.057 -23.672  0.00  0.00    -0.268 OA
ATOM      3  O   UNL     1      30.530  -5.531 -20.323  0.00  0.00    -0.283 OA
ATOM      4  N   UNL     1      33.309  -3.370 -25.187  0.00  0.00    -0.253 N 
ATOM      5  N   UNL     1      33.268  -5.470 -23.310  0.00  0.00    -0.275 N 
ATOM      6  C   UNL     1      33.803  -4.700 -25.557  0.00  0.00    +0.215 C 
ATOM      7  C   UNL     1      33.230  -2.342 -26.240  0.00  0.00    +0.080 C 
ATOM      8  C   UNL     1      34.419  -2.426 -27.197  0.00  0.00    +0.052 C 
ATOM      9  C   UNL     1      34.308  -5.439 -24.328  0.00  0.00    +0.147 C 
ATOM     10  C   UNL     1      34.665  -3.861 -27.621  0.00  0.00    +0.146 C 
ATOM     11  C   UNL     1      32.619  -3.151 -23.986  0.00  0.00    +0.267 C 
ATOM     12  C   UNL     1      32.458  -4.354 -23.085  0.00  0.00    +0.143 C 
ATOM     13  C   UNL     1      31.894  -2.441 -26.987  0.00  0.00    +0.022 C 
ATOM     14  C   UNL     1      33.135  -6.575 -22.480  0.00  0.00    +0.074 C 
ATOM     15  C   UNL     1      31.527  -4.316 -22.107  0.00  0.00    +0.191 C 
ATOM     16  C   UNL     1      32.258  -6.675 -21.473  0.00  0.00    +0.110 C 
ATOM     17  C   UNL     1      31.366  -5.514 -21.221  0.00  0.00    +0.236 C 
ENDROOT
BRANCH  16  20
ATOM     18  O   UNL     1      32.680  -7.940 -19.539  0.00  0.00    -0.270 OA
ATOM     19  N   UNL     1      31.664  -8.973 -21.367  0.00  0.00    -0.297 N 
ATOM     20  C   UNL     1      32.231  -7.907 -20.686  0.00  0.00    +0.251 C 
ATOM     21  H   UNL     1      31.340  -8.821 -22.284  0.00  0.00    +0.150 HD
BRANCH  19  22
ATOM     22  C   UNL     1      31.524 -10.296 -20.800  0.00  0.00    +0.119 C 
BRANCH  22  25
ATOM     23  F   UNL     1      31.889 -12.947 -19.883  0.00  0.00    -0.204 F 
ATOM     24  F   UNL     1      34.548 -14.120 -23.616  0.00  0.00    -0.204 F 
ATOM     25  C   UNL     1      32.330 -11.316 -21.550  0.00  0.00    +0.025 C 
ATOM     26  C   UNL     1      32.470 -12.608 -21.041  0.00  0.00    +0.140 C 
ATOM     27  C   UNL     1      32.939 -10.972 -22.757  0.00  0.00    +0.002 C 
ATOM     28  C   UNL     1      33.220 -13.555 -21.739  0.00  0.00    +0.059 C 
ATOM     29  C   UNL     1      33.688 -11.920 -23.455  0.00  0.00    +0.030 C 
ATOM     30  C   UNL     1      33.829 -13.211 -22.946  0.00  0.00    +0.142 C 
ENDBRANCH  22  25
ENDBRANCH  19  22
ENDBRANCH  16  20
BRANCH  15  31
ATOM     31  O   UNL     1      30.694  -3.245 -21.873  0.00  0.00    -0.502 OA
ATOM     32  H   UNL     1      30.047  -3.007 -22.508  0.00  0.00    +0.292 HD
ENDBRANCH  15  31
TORSDOF 4
ENDMDL
MODEL 8
REMARK VINA RESULT:      -8.9      3.523      6.227
REMARK  Name = 54726191
REMARK  4 active torsions:
REMARK  status: ('A' for Active; 'I' for Inactive)
REMARK    1  A    between atoms: C_15  and  O_31
REMARK    2  A    between atoms: C_16  and  C_20
REMARK    3  A    between atoms: N_19  and  C_22
REMARK    4  A    between atoms: C_22  and  C_25
REMARK                            x       y       z     vdW  Elec       q    Type
REMARK                         _______ _______ _______ _____ _____    ______ ____
ROOT
ATOM      1  O   UNL     1      29.310 -22.962 -16.713  0.00  0.00    -0.336 OA
ATOM      2  O   UNL     1      31.660 -24.291 -12.869  0.00  0.00    -0.268 OA
ATOM      3  O   UNL     1      36.492 -23.746 -14.375  0.00  0.00    -0.283 OA
ATOM      4  N   UNL     1      30.506 -23.877 -14.833  0.00  0.00    -0.253 N 
ATOM      5  N   UNL     1      32.869 -22.802 -15.927  0.00  0.00    -0.275 N 
ATOM      6  C   UNL     1      30.556 -23.492 -16.248  0.00  0.00    +0.215 C 
ATOM      7  C   UNL     1      29.293 -24.555 -14.342  0.00  0.00    +0.080 C 
ATOM      8  C   UNL     1      28.029 -23.971 -14.973  0.00  0.00    +0.052 C 
ATOM      9  C   UNL     1      31.579 -22.389 -16.461  0.00  0.00    +0.147 C 
ATOM     10  C   UNL     1      28.200 -23.817 -16.471  0.00  0.00    +0.146 C 
ATOM     11  C   UNL     1      31.664 -23.923 -14.044  0.00  0.00    +0.267 C 
ATOM     12  C   UNL     1      32.948 -23.511 -14.725  0.00  0.00    +0.143 C 
ATOM     13  C   UNL     1      29.392 -26.068 -14.572  0.00  0.00    +0.022 C 
ATOM     14  C   UNL     1      34.044 -22.409 -16.554  0.00  0.00    +0.074 C 
ATOM     15  C   UNL     1      34.126 -23.856 -14.160  0.00  0.00    +0.191 C 
ATOM     16  C   UNL     1      35.277 -22.679 -16.108  0.00  0.00    +0.110 C 
ATOM     17  C   UNL     1      35.397 -23.451 -14.844  0.00  0.00    +0.236 C 
ENDROOT
BRANCH  16  20
ATOM     18  O   UNL     1      37.573 -22.329 -16.458  0.00  0.00    -0.270 OA
ATOM     19  N   UNL     1      36.060 -21.621 -18.086  0.00  0.00    -0.297 N 
ATOM     20  C   UNL     1      36.423 -22.202 -16.881  0.00  0.00    +0.251 C 
ATOM     21  H   UNL     1      35.103 -21.578 -18.313  0.00  0.00    +0.150 HD
BRANCH  19  22
ATOM     22  C   UNL     1      37.013 -21.073 -19.025  0.00  0.00    +0.119 C 
BRANCH  22  25
ATOM     23  F   UNL     1      34.303 -21.335 -19.795  0.00  0.00    -0.204 F 
ATOM     24  F   UNL     1      34.562 -17.684 -22.793  0.00  0.00    -0.204 F 
ATOM     25  C   UNL     1      36.358 -20.171 -20.029  0.00  0.00    +0.025 C 
ATOM     26  C   UNL     1      35.016 -20.355 -20.365  0.00  0.00    +0.140 C 
ATOM     27  C   UNL     1      37.093 -19.146 -20.627  0.00  0.00    +0.002 C 
ATOM     28  C   UNL     1      34.410 -19.514 -21.299  0.00  0.00    +0.059 C 
ATOM     29  C   UNL     1      36.485 -18.306 -21.561  0.00  0.00    +0.030 C 
ATOM     30  C   UNL     1      35.144 -18.490 -21.897  0.00  0.00    +0.142 C 
ENDBRANCH  22  25
ENDBRANCH  19  22
ENDBRANCH  16  20
BRANCH  15  31
ATOM     31  O   UNL     1      34.243 -24.576 -12.993  0.00  0.00    -0.502 OA
ATOM     32  H   UNL     1      35.063 -24.609 -12.542  0.00  0.00    +0.292 HD
ENDBRANCH  15  31
TORSDOF 4
ENDMDL
MODEL 9
REMARK VINA RESULT:      -8.8      4.129      9.614
REMARK  Name = 54726191
REMARK  4 active torsions:
REMARK  status: ('A' for Active; 'I' for Inactive)
REMARK    1  A    between atoms: C_15  and  O_31
REMARK    2  A    between atoms: C_16  and  C_20
REMARK    3  A    between atoms: N_19  and  C_22
REMARK    4  A    between atoms: C_22  and  C_25
REMARK                            x       y       z     vdW  Elec       q    Type
REMARK                         _______ _______ _______ _____ _____    ______ ____
ROOT
ATOM      1  O   UNL     1      32.048 -11.150 -19.791  0.00  0.00    -0.336 OA
ATOM      2  O   UNL     1      32.617 -12.328 -24.303  0.00  0.00    -0.268 OA
ATOM      3  O   UNL     1      35.484 -16.517 -23.922  0.00  0.00    -0.283 OA
ATOM      4  N   UNL     1      32.544 -11.607 -22.104  0.00  0.00    -0.253 N 
ATOM      5  N   UNL     1      33.516 -14.128 -21.305  0.00  0.00    -0.275 N 
ATOM      6  C   UNL     1      32.904 -11.849 -20.703  0.00  0.00    +0.215 C 
ATOM      7  C   UNL     1      32.166 -10.237 -22.496  0.00  0.00    +0.080 C 
ATOM      8  C   UNL     1      31.334  -9.553 -21.411  0.00  0.00    +0.052 C 
ATOM      9  C   UNL     1      32.751 -13.323 -20.364  0.00  0.00    +0.147 C 
ATOM     10  C   UNL     1      31.962  -9.754 -20.046  0.00  0.00    +0.146 C 
ATOM     11  C   UNL     1      32.861 -12.527 -23.113  0.00  0.00    +0.267 C 
ATOM     12  C   UNL     1      33.551 -13.794 -22.662  0.00  0.00    +0.143 C 
ATOM     13  C   UNL     1      33.412  -9.418 -22.854  0.00  0.00    +0.022 C 
ATOM     14  C   UNL     1      34.137 -15.295 -20.884  0.00  0.00    +0.074 C 
ATOM     15  C   UNL     1      34.192 -14.550 -23.581  0.00  0.00    +0.191 C 
ATOM     16  C   UNL     1      34.806 -16.137 -21.682  0.00  0.00    +0.110 C 
ATOM     17  C   UNL     1      34.882 -15.801 -23.127  0.00  0.00    +0.236 C 
ENDROOT
BRANCH  16  20
ATOM     18  O   UNL     1      36.048 -17.264 -20.037  0.00  0.00    -0.270 OA
ATOM     19  N   UNL     1      35.193 -18.477 -21.837  0.00  0.00    -0.297 N 
ATOM     20  C   UNL     1      35.414 -17.329 -21.092  0.00  0.00    +0.251 C 
ATOM     21  H   UNL     1      34.668 -18.400 -22.666  0.00  0.00    +0.150 HD
BRANCH  19  22
ATOM     22  C   UNL     1      35.693 -19.779 -21.461  0.00  0.00    +0.119 C 
BRANCH  22  25
ATOM     23  F   UNL     1      36.701 -21.552 -19.500  0.00  0.00    -0.204 F 
ATOM     24  F   UNL     1      32.422 -22.262 -17.609  0.00  0.00    -0.204 F 
ATOM     25  C   UNL     1      34.823 -20.442 -20.434  0.00  0.00    +0.025 C 
ATOM     26  C   UNL     1      35.384 -21.307 -19.494  0.00  0.00    +0.140 C 
ATOM     27  C   UNL     1      33.450 -20.191 -20.419  0.00  0.00    +0.002 C 
ATOM     28  C   UNL     1      34.573 -21.921 -18.540  0.00  0.00    +0.059 C 
ATOM     29  C   UNL     1      32.639 -20.806 -19.465  0.00  0.00    +0.030 C 
ATOM     30  C   UNL     1      33.200 -21.672 -18.525  0.00  0.00    +0.142 C 
ENDBRANCH  22  25
ENDBRANCH  19  22
ENDBRANCH  16  20
BRANCH  15  31
ATOM     31  O   UNL     1      34.271 -14.239 -24.920  0.00  0.00    -0.502 OA
ATOM     32  H   UNL     1      34.844 -13.556 -25.210  0.00  0.00    +0.292 HD
ENDBRANCH  15  31
TORSDOF 4
ENDMDL
