MODEL 1
REMARK VINA RESULT:     -12.5      0.000      0.000
REMARK  Name = 10074640
REMARK  6 active torsions:
REMARK  status: ('A' for Active; 'I' for Inactive)
REMARK    1  A    between atoms: N_2  and  C_5
REMARK    2  A    between atoms: C_3  and  C_30
REMARK    3  A    between atoms: C_6  and  N_13
REMARK    4  A    between atoms: C_16  and  C_20
REMARK    5  A    between atoms: C_25  and  C_31
REMARK    6  A    between atoms: C_31  and  N_32
REMARK                            x       y       z     vdW  Elec       q    Type
REMARK                         _______ _______ _______ _____ _____    ______ ____
ROOT
ATOM      1  O   UNL     1      33.532 -23.637 -18.850  0.00  0.00    -0.270 OA
ATOM      2  N   UNL     1      33.506 -22.074 -17.100  0.00  0.00    -0.280 N 
ATOM      3  C   UNL     1      33.755 -22.496 -18.413  0.00  0.00    +0.249 C 
ATOM      4  H   UNL     1      33.735 -21.137 -16.901  0.00  0.00    +0.155 HD
ENDROOT
BRANCH   2   5
ATOM      5  C   UNL     1      32.969 -22.819 -16.021  0.00  0.00    +0.052 C 
ATOM      6  C   UNL     1      33.169 -23.671 -13.790  0.00  0.00    +0.048 C 
ATOM      7  C   UNL     1      33.699 -22.939 -14.852  0.00  0.00    +0.029 C 
ATOM      8  C   UNL     1      31.917 -24.273 -13.913  0.00  0.00    -0.008 C 
ATOM      9  C   UNL     1      31.725 -23.409 -16.161  0.00  0.00    +0.014 C 
ATOM     10  C   UNL     1      31.194 -24.142 -15.100  0.00  0.00    -0.002 C 
ATOM     11  C   UNL     1      31.326 -25.063 -12.793  0.00  0.00    +0.032 C 
BRANCH   6  13
ATOM     12  S   UNL     1      35.706 -24.522 -10.770  0.00  0.00    -0.059 S 
ATOM     13  N   UNL     1      33.913 -23.793 -12.596  0.00  0.00    -0.283 N 
ATOM     14  N   UNL     1      35.908 -24.829 -13.330  0.00  0.00    -0.384 NA
ATOM     15  C   UNL     1      35.133 -24.372 -12.377  0.00  0.00    +0.211 C 
ATOM     16  C   UNL     1      37.055 -25.344 -12.755  0.00  0.00    +0.124 C 
ATOM     17  C   UNL     1      37.126 -25.267 -11.380  0.00  0.00    +0.125 C 
ATOM     18  H   UNL     1      33.490 -23.401 -11.798  0.00  0.00    +0.155 HD
BRANCH  16  20
ATOM     19  N   UNL     1      38.754 -27.446 -15.305  0.00  0.00    -0.242 NA
ATOM     20  C   UNL     1      38.100 -25.920 -13.550  0.00  0.00    +0.046 C 
ATOM     21  C   UNL     1      39.426 -25.549 -13.366  0.00  0.00    +0.005 C 
ATOM     22  C   UNL     1      37.817 -26.865 -14.523  0.00  0.00    +0.101 C 
ATOM     23  C   UNL     1      40.418 -26.125 -14.152  0.00  0.00    +0.021 C 
ATOM     24  C   UNL     1      40.033 -27.061 -15.099  0.00  0.00    +0.099 C 
ENDBRANCH  16  20
ENDBRANCH   6  13
ENDBRANCH   2   5
BRANCH   3  30
ATOM     25  C   UNL     1      35.463 -19.606 -20.987  0.00  0.00    -0.043 C 
ATOM     26  C   UNL     1      36.289 -20.368 -20.171  0.00  0.00    -0.006 C 
ATOM     27  C   UNL     1      34.086 -19.780 -20.972  0.00  0.00    -0.006 C 
ATOM     28  C   UNL     1      35.724 -21.321 -19.322  0.00  0.00    +0.004 C 
ATOM     29  C   UNL     1      33.523 -20.733 -20.124  0.00  0.00    +0.004 C 
ATOM     30  C   UNL     1      34.342 -21.503 -19.300  0.00  0.00    +0.054 C 
BRANCH  25  31
ATOM     31  C   UNL     1      36.072 -18.579 -21.904  0.00  0.00    -0.050 C 
BRANCH  31  32
ATOM     32  N   UNL     1      35.117 -17.527 -22.251  0.00  0.00    +0.387 N 
ATOM     33  N   UNL     1      34.413 -14.948 -23.351  0.00  0.00    +0.383 N 
ATOM     34  C   UNL     1      35.428 -16.284 -21.536  0.00  0.00    -0.100 C 
ATOM     35  C   UNL     1      35.103 -17.294 -23.701  0.00  0.00    -0.100 C 
ATOM     36  C   UNL     1      34.429 -15.180 -21.902  0.00  0.00    -0.101 C 
ATOM     37  C   UNL     1      34.103 -16.192 -24.066  0.00  0.00    -0.101 C 
ATOM     38  C   UNL     1      33.457 -13.898 -23.698  0.00  0.00    -0.101 C 
ATOM     39  H   UNL     1      34.189 -17.839 -21.966  0.00  0.00    -0.079 HD
ATOM     40  H   UNL     1      35.341 -14.635 -23.637  0.00  0.00    -0.080 HD
ENDBRANCH  31  32
ENDBRANCH  25  31
ENDBRANCH   3  30
TORSDOF 6
ENDMDL
MODEL 2
REMARK VINA RESULT:     -11.7      1.215      1.576
REMARK  Name = 10074640
REMARK  6 active torsions:
REMARK  status: ('A' for Active; 'I' for Inactive)
REMARK    1  A    between atoms: N_2  and  C_5
REMARK    2  A    between atoms: C_3  and  C_30
REMARK    3  A    between atoms: C_6  and  N_13
REMARK    4  A    between atoms: C_16  and  C_20
REMARK    5  A    between atoms: C_25  and  C_31
REMARK    6  A    between atoms: C_31  and  N_32
REMARK                            x       y       z     vdW  Elec       q    Type
REMARK                         _______ _______ _______ _____ _____    ______ ____
ROOT
ATOM      1  O   UNL     1      36.009 -22.169 -17.735  0.00  0.00    -0.270 OA
ATOM      2  N   UNL     1      33.681 -21.893 -17.805  0.00  0.00    -0.280 N 
ATOM      3  C   UNL     1      34.989 -21.708 -18.272  0.00  0.00    +0.249 C 
ATOM      4  H   UNL     1      32.972 -21.465 -18.339  0.00  0.00    +0.155 HD
ENDROOT
BRANCH   2   5
ATOM      5  C   UNL     1      33.244 -22.614 -16.667  0.00  0.00    +0.052 C 
ATOM      6  C   UNL     1      33.680 -23.496 -14.481  0.00  0.00    +0.048 C 
ATOM      7  C   UNL     1      34.111 -22.787 -15.602  0.00  0.00    +0.029 C 
ATOM      8  C   UNL     1      32.389 -24.021 -14.441  0.00  0.00    -0.008 C 
ATOM      9  C   UNL     1      31.959 -23.128 -16.644  0.00  0.00    +0.014 C 
ATOM     10  C   UNL     1      31.527 -23.837 -15.524  0.00  0.00    -0.002 C 
ATOM     11  C   UNL     1      31.902 -24.785 -13.254  0.00  0.00    +0.032 C 
BRANCH   6  13
ATOM     12  S   UNL     1      36.344 -24.676 -11.690  0.00  0.00    -0.059 S 
ATOM     13  N   UNL     1      34.564 -23.672 -13.394  0.00  0.00    -0.283 N 
ATOM     14  N   UNL     1      35.923 -25.468 -14.114  0.00  0.00    -0.384 NA
ATOM     15  C   UNL     1      35.545 -24.606 -13.203  0.00  0.00    +0.211 C 
ATOM     16  C   UNL     1      36.928 -26.256 -13.585  0.00  0.00    +0.124 C 
ATOM     17  C   UNL     1      37.291 -25.975 -12.285  0.00  0.00    +0.125 C 
ATOM     18  H   UNL     1      34.459 -23.023 -12.661  0.00  0.00    +0.155 HD
BRANCH  16  20
ATOM     19  N   UNL     1      37.687 -28.530 -16.425  0.00  0.00    -0.242 NA
ATOM     20  C   UNL     1      37.548 -27.297 -14.351  0.00  0.00    +0.046 C 
ATOM     21  C   UNL     1      38.570 -28.071 -13.813  0.00  0.00    +0.005 C 
ATOM     22  C   UNL     1      37.145 -27.564 -15.650  0.00  0.00    +0.101 C 
ATOM     23  C   UNL     1      39.152 -29.074 -14.580  0.00  0.00    +0.021 C 
ATOM     24  C   UNL     1      38.678 -29.262 -15.869  0.00  0.00    +0.099 C 
ENDBRANCH  16  20
ENDBRANCH   6  13
ENDBRANCH   2   5
BRANCH   3  30
ATOM     25  C   UNL     1      35.393 -19.328 -21.745  0.00  0.00    -0.043 C 
ATOM     26  C   UNL     1      34.129 -19.735 -21.339  0.00  0.00    -0.006 C 
ATOM     27  C   UNL     1      36.525 -19.689 -21.029  0.00  0.00    -0.006 C 
ATOM     28  C   UNL     1      33.997 -20.520 -20.192  0.00  0.00    +0.004 C 
ATOM     29  C   UNL     1      36.393 -20.473 -19.883  0.00  0.00    +0.004 C 
ATOM     30  C   UNL     1      35.129 -20.888 -19.466  0.00  0.00    +0.054 C 
BRANCH  25  31
ATOM     31  C   UNL     1      35.536 -18.479 -22.981  0.00  0.00    -0.050 C 
BRANCH  31  32
ATOM     32  N   UNL     1      34.760 -17.244 -22.885  0.00  0.00    +0.387 N 
ATOM     33  N   UNL     1      34.439 -14.379 -23.104  0.00  0.00    +0.383 N 
ATOM     34  C   UNL     1      35.348 -16.334 -21.895  0.00  0.00    -0.100 C 
ATOM     35  C   UNL     1      34.664 -16.585 -24.193  0.00  0.00    -0.100 C 
ATOM     36  C   UNL     1      34.536 -15.037 -21.795  0.00  0.00    -0.101 C 
ATOM     37  C   UNL     1      33.851 -15.290 -24.093  0.00  0.00    -0.101 C 
ATOM     38  C   UNL     1      33.661 -13.145 -23.008  0.00  0.00    -0.101 C 
ATOM     39  H   UNL     1      33.818 -17.488 -22.578  0.00  0.00    -0.079 HD
ATOM     40  H   UNL     1      35.380 -14.134 -23.411  0.00  0.00    -0.080 HD
ENDBRANCH  31  32
ENDBRANCH  25  31
ENDBRANCH   3  30
TORSDOF 6
ENDMDL
MODEL 3
REMARK VINA RESULT:     -10.1      5.850     11.299
REMARK  Name = 10074640
REMARK  6 active torsions:
REMARK  status: ('A' for Active; 'I' for Inactive)
REMARK    1  A    between atoms: N_2  and  C_5
REMARK    2  A    between atoms: C_3  and  C_30
REMARK    3  A    between atoms: C_6  and  N_13
REMARK    4  A    between atoms: C_16  and  C_20
REMARK    5  A    between atoms: C_25  and  C_31
REMARK    6  A    between atoms: C_31  and  N_32
REMARK                            x       y       z     vdW  Elec       q    Type
REMARK                         _______ _______ _______ _____ _____    ______ ____
ROOT
ATOM      1  O   UNL     1      33.939 -12.092 -25.176  0.00  0.00    -0.270 OA
ATOM      2  N   UNL     1      33.689 -13.172 -23.108  0.00  0.00    -0.280 N 
ATOM      3  C   UNL     1      33.702 -12.057 -23.957  0.00  0.00    +0.249 C 
ATOM      4  H   UNL     1      33.484 -12.987 -22.163  0.00  0.00    +0.155 HD
ENDROOT
BRANCH   2   5
ATOM      5  C   UNL     1      33.931 -14.529 -23.432  0.00  0.00    +0.052 C 
ATOM      6  C   UNL     1      35.224 -16.528 -23.148  0.00  0.00    +0.048 C 
ATOM      7  C   UNL     1      34.987 -15.191 -22.829  0.00  0.00    +0.029 C 
ATOM      8  C   UNL     1      34.402 -17.184 -24.063  0.00  0.00    -0.008 C 
ATOM      9  C   UNL     1      33.104 -15.165 -24.343  0.00  0.00    +0.014 C 
ATOM     10  C   UNL     1      33.341 -16.501 -24.662  0.00  0.00    -0.002 C 
ATOM     11  C   UNL     1      34.634 -18.614 -24.423  0.00  0.00    +0.032 C 
BRANCH   6  13
ATOM     12  S   UNL     1      37.776 -18.706 -20.907  0.00  0.00    -0.059 S 
ATOM     13  N   UNL     1      36.302 -17.203 -22.533  0.00  0.00    -0.283 N 
ATOM     14  N   UNL     1      35.209 -18.820 -21.197  0.00  0.00    -0.384 NA
ATOM     15  C   UNL     1      36.293 -18.205 -21.603  0.00  0.00    +0.211 C 
ATOM     16  C   UNL     1      35.566 -19.769 -20.259  0.00  0.00    +0.124 C 
ATOM     17  C   UNL     1      36.912 -19.855 -19.972  0.00  0.00    +0.125 C 
ATOM     18  H   UNL     1      37.196 -16.907 -22.819  0.00  0.00    +0.155 HD
BRANCH  16  20
ATOM     19  N   UNL     1      32.265 -21.200 -19.329  0.00  0.00    -0.242 NA
ATOM     20  C   UNL     1      34.588 -20.607 -19.629  0.00  0.00    +0.046 C 
ATOM     21  C   UNL     1      34.966 -21.606 -18.740  0.00  0.00    +0.005 C 
ATOM     22  C   UNL     1      33.237 -20.445 -19.888  0.00  0.00    +0.101 C 
ATOM     23  C   UNL     1      33.995 -22.404 -18.145  0.00  0.00    +0.021 C 
ATOM     24  C   UNL     1      32.670 -22.162 -18.470  0.00  0.00    +0.099 C 
ENDBRANCH  16  20
ENDBRANCH   6  13
ENDBRANCH   2   5
BRANCH   3  30
ATOM     25  C   UNL     1      32.932  -8.325 -22.121  0.00  0.00    -0.043 C 
ATOM     26  C   UNL     1      32.131  -9.416 -21.813  0.00  0.00    -0.006 C 
ATOM     27  C   UNL     1      33.982  -8.440 -23.021  0.00  0.00    -0.006 C 
ATOM     28  C   UNL     1      32.386 -10.647 -22.419  0.00  0.00    +0.004 C 
ATOM     29  C   UNL     1      34.237  -9.670 -23.626  0.00  0.00    +0.004 C 
ATOM     30  C   UNL     1      33.438 -10.773 -23.325  0.00  0.00    +0.054 C 
BRANCH  25  31
ATOM     31  C   UNL     1      32.658  -6.997 -21.466  0.00  0.00    -0.050 C 
BRANCH  31  32
ATOM     32  N   UNL     1      32.514  -5.925 -22.450  0.00  0.00    +0.387 N 
ATOM     33  N   UNL     1      31.034  -3.819 -23.767  0.00  0.00    +0.383 N 
ATOM     34  C   UNL     1      31.435  -6.230 -23.398  0.00  0.00    -0.100 C 
ATOM     35  C   UNL     1      32.265  -4.639 -21.788  0.00  0.00    -0.100 C 
ATOM     36  C   UNL     1      31.281  -5.106 -24.429  0.00  0.00    -0.101 C 
ATOM     37  C   UNL     1      32.113  -3.515 -22.818  0.00  0.00    -0.101 C 
ATOM     38  C   UNL     1      30.892  -2.747 -24.751  0.00  0.00    -0.101 C 
ATOM     39  H   UNL     1      33.389  -5.855 -22.970  0.00  0.00    -0.079 HD
ATOM     40  H   UNL     1      30.159  -3.887 -23.248  0.00  0.00    -0.080 HD
ENDBRANCH  31  32
ENDBRANCH  25  31
ENDBRANCH   3  30
TORSDOF 6
ENDMDL
