MODEL 1
REMARK VINA RESULT:     -12.3      0.000      0.000
REMARK  Name = 23629645
REMARK  6 active torsions:
REMARK  status: ('A' for Active; 'I' for Inactive)
REMARK    1  A    between atoms: N_1  and  C_6
REMARK    2  A    between atoms: N_1  and  C_21
REMARK    3  A    between atoms: C_3  and  C_16
REMARK    4  A    between atoms: C_11  and  C_18
REMARK    5  A    between atoms: C_18  and  O_19
REMARK    6  A    between atoms: C_21  and  C_28
REMARK                            x       y       z     vdW  Elec       q    Type
REMARK                         _______ _______ _______ _____ _____    ______ ____
ROOT
ATOM      1  N   UNL     1      35.707 -19.088 -21.739  0.00  0.00    -0.300 N 
ATOM      2  C   UNL     1      36.952 -18.406 -21.450  0.00  0.00    +0.113 C 
ENDROOT
BRANCH   1   6
ATOM      3  C   UNL     1      33.846 -21.444 -18.808  0.00  0.00    +0.054 C 
ATOM      4  C   UNL     1      33.072 -20.670 -19.669  0.00  0.00    +0.006 C 
ATOM      5  C   UNL     1      35.234 -21.439 -18.914  0.00  0.00    +0.006 C 
ATOM      6  C   UNL     1      35.081 -19.880 -20.753  0.00  0.00    +0.048 C 
ATOM      7  C   UNL     1      33.691 -19.887 -20.644  0.00  0.00    +0.015 C 
ATOM      8  C   UNL     1      35.853 -20.656 -19.888  0.00  0.00    +0.015 C 
BRANCH   3  16
ATOM      9  O   UNL     1      31.970 -22.354 -17.851  0.00  0.00    -0.270 OA
ATOM     10  N   UNL     1      33.999 -22.873 -16.813  0.00  0.00    -0.276 N 
ATOM     11  C   UNL     1      35.245 -23.005 -14.197  0.00  0.00    +0.102 C 
ATOM     12  C   UNL     1      33.739 -23.209 -14.394  0.00  0.00    +0.033 C 
ATOM     13  C   UNL     1      35.884 -22.237 -15.360  0.00  0.00    +0.033 C 
ATOM     14  C   UNL     1      33.391 -23.720 -15.792  0.00  0.00    +0.094 C 
ATOM     15  C   UNL     1      35.461 -22.771 -16.728  0.00  0.00    +0.094 C 
ATOM     16  C   UNL     1      33.194 -22.268 -17.781  0.00  0.00    +0.249 C 
BRANCH  11  18
ATOM     17  O   UNL     1      36.448 -24.980 -14.877  0.00  0.00    -0.250 OA
ATOM     18  C   UNL     1      35.923 -24.328 -13.985  0.00  0.00    +0.317 C 
BRANCH  18  19
ATOM     19  O   UNL     1      35.855 -24.668 -12.667  0.00  0.00    -0.444 OA
ATOM     20  C   UNL     1      36.292 -23.661 -11.748  0.00  0.00    +0.256 C 
ENDBRANCH  18  19
ENDBRANCH  11  18
ENDBRANCH   3  16
ENDBRANCH   1   6
BRANCH   1  21
ATOM     21  C   UNL     1      35.118 -18.956 -23.057  0.00  0.00    +0.148 C 
BRANCH  21  28
ATOM     22  N   UNL     1      34.720 -16.670 -22.354  0.00  0.00    -0.392 NA
ATOM     23  N   UNL     1      34.197 -15.876 -24.954  0.00  0.00    -0.200 NA
ATOM     24  N   UNL     1      33.827 -13.707 -24.232  0.00  0.00    -0.271 NA
ATOM     25  N   UNL     1      34.017 -13.130 -21.912  0.00  0.00    -0.310 NA
ATOM     26  N   UNL     1      34.590 -14.795 -20.337  0.00  0.00    -0.329 N 
ATOM     27  N   UNL     1      33.452 -11.507 -23.504  0.00  0.00    -0.283 N 
ATOM     28  C   UNL     1      34.767 -17.527 -23.375  0.00  0.00    +0.133 C 
ATOM     29  C   UNL     1      34.512 -17.152 -24.655  0.00  0.00    +0.193 C 
ATOM     30  C   UNL     1      34.405 -15.395 -22.654  0.00  0.00    +0.248 C 
ATOM     31  C   UNL     1      34.138 -14.980 -23.960  0.00  0.00    +0.131 C 
ATOM     32  C   UNL     1      34.327 -14.418 -21.680  0.00  0.00    +0.231 C 
ATOM     33  C   UNL     1      33.781 -12.846 -23.198  0.00  0.00    +0.207 C 
ATOM     34  H   UNL     1      34.543 -14.123 -19.619  0.00  0.00    +0.145 HD
ATOM     35  H   UNL     1      34.821 -15.728 -20.124  0.00  0.00    +0.145 HD
ATOM     36  H   UNL     1      33.269 -11.247 -24.436  0.00  0.00    +0.156 HD
ATOM     37  H   UNL     1      33.404 -10.837 -22.786  0.00  0.00    +0.156 HD
ENDBRANCH  21  28
ENDBRANCH   1  21
TORSDOF 6
ENDMDL
MODEL 2
REMARK VINA RESULT:     -11.8      4.815      8.911
REMARK  Name = 23629645
REMARK  6 active torsions:
REMARK  status: ('A' for Active; 'I' for Inactive)
REMARK    1  A    between atoms: N_1  and  C_6
REMARK    2  A    between atoms: N_1  and  C_21
REMARK    3  A    between atoms: C_3  and  C_16
REMARK    4  A    between atoms: C_11  and  C_18
REMARK    5  A    between atoms: C_18  and  O_19
REMARK    6  A    between atoms: C_21  and  C_28
REMARK                            x       y       z     vdW  Elec       q    Type
REMARK                         _______ _______ _______ _____ _____    ______ ____
ROOT
ATOM      1  N   UNL     1      33.148 -10.776 -22.952  0.00  0.00    -0.300 N 
ATOM      2  C   UNL     1      33.976  -9.732 -23.522  0.00  0.00    +0.113 C 
ENDROOT
BRANCH   1   6
ATOM      3  C   UNL     1      33.953 -14.811 -23.771  0.00  0.00    +0.054 C 
ATOM      4  C   UNL     1      33.914 -14.366 -22.452  0.00  0.00    +0.006 C 
ATOM      5  C   UNL     1      33.726 -13.924 -24.820  0.00  0.00    +0.006 C 
ATOM      6  C   UNL     1      33.418 -12.133 -23.228  0.00  0.00    +0.048 C 
ATOM      7  C   UNL     1      33.646 -13.025 -22.180  0.00  0.00    +0.015 C 
ATOM      8  C   UNL     1      33.458 -12.582 -24.548  0.00  0.00    +0.015 C 
BRANCH   3  16
ATOM      9  O   UNL     1      33.765 -16.670 -25.102  0.00  0.00    -0.270 OA
ATOM     10  N   UNL     1      34.995 -16.944 -23.133  0.00  0.00    -0.276 N 
ATOM     11  C   UNL     1      35.307 -18.744 -20.879  0.00  0.00    +0.102 C 
ATOM     12  C   UNL     1      34.829 -19.231 -22.252  0.00  0.00    +0.033 C 
ATOM     13  C   UNL     1      35.086 -17.238 -20.689  0.00  0.00    +0.033 C 
ATOM     14  C   UNL     1      35.319 -18.344 -23.396  0.00  0.00    +0.094 C 
ATOM     15  C   UNL     1      35.558 -16.413 -21.886  0.00  0.00    +0.094 C 
ATOM     16  C   UNL     1      34.236 -16.224 -24.058  0.00  0.00    +0.249 C 
BRANCH  11  18
ATOM     17  O   UNL     1      37.651 -18.794 -21.433  0.00  0.00    -0.250 OA
ATOM     18  C   UNL     1      36.747 -19.110 -20.672  0.00  0.00    +0.317 C 
BRANCH  18  19
ATOM     19  O   UNL     1      36.873 -19.835 -19.524  0.00  0.00    -0.444 OA
ATOM     20  C   UNL     1      36.138 -21.063 -19.488  0.00  0.00    +0.256 C 
ENDBRANCH  18  19
ENDBRANCH  11  18
ENDBRANCH   3  16
ENDBRANCH   1   6
BRANCH   1  21
ATOM     21  C   UNL     1      32.029 -10.408 -22.107  0.00  0.00    +0.148 C 
BRANCH  21  28
ATOM     22  N   UNL     1      31.624  -8.135 -22.847  0.00  0.00    -0.392 NA
ATOM     23  N   UNL     1      32.294  -7.120 -20.360  0.00  0.00    -0.200 NA
ATOM     24  N   UNL     1      31.894  -4.967 -21.116  0.00  0.00    -0.271 NA
ATOM     25  N   UNL     1      31.180  -4.564 -23.369  0.00  0.00    -0.310 NA
ATOM     26  N   UNL     1      30.880  -6.385 -24.843  0.00  0.00    -0.329 N 
ATOM     27  N   UNL     1      31.488  -2.784 -21.878  0.00  0.00    -0.283 N 
ATOM     28  C   UNL     1      31.991  -8.927 -21.839  0.00  0.00    +0.133 C 
ATOM     29  C   UNL     1      32.324  -8.442 -20.614  0.00  0.00    +0.193 C 
ATOM     30  C   UNL     1      31.594  -6.812 -22.592  0.00  0.00    +0.248 C 
ATOM     31  C   UNL     1      31.931  -6.286 -21.343  0.00  0.00    +0.131 C 
ATOM     32  C   UNL     1      31.229  -5.894 -23.558  0.00  0.00    +0.231 C 
ATOM     33  C   UNL     1      31.522  -4.172 -22.136  0.00  0.00    +0.207 C 
ATOM     34  H   UNL     1      30.614  -5.758 -25.554  0.00  0.00    +0.145 HD
ATOM     35  H   UNL     1      30.902  -7.353 -25.023  0.00  0.00    +0.145 HD
ATOM     36  H   UNL     1      31.731  -2.445 -20.986  0.00  0.00    +0.156 HD
ATOM     37  H   UNL     1      31.224  -2.158 -22.589  0.00  0.00    +0.156 HD
ENDBRANCH  21  28
ENDBRANCH   1  21
TORSDOF 6
ENDMDL
MODEL 3
REMARK VINA RESULT:     -11.5      4.784      8.630
REMARK  Name = 23629645
REMARK  6 active torsions:
REMARK  status: ('A' for Active; 'I' for Inactive)
REMARK    1  A    between atoms: N_1  and  C_6
REMARK    2  A    between atoms: N_1  and  C_21
REMARK    3  A    between atoms: C_3  and  C_16
REMARK    4  A    between atoms: C_11  and  C_18
REMARK    5  A    between atoms: C_18  and  O_19
REMARK    6  A    between atoms: C_21  and  C_28
REMARK                            x       y       z     vdW  Elec       q    Type
REMARK                         _______ _______ _______ _____ _____    ______ ____
ROOT
ATOM      1  N   UNL     1      33.339 -10.912 -22.993  0.00  0.00    -0.300 N 
ATOM      2  C   UNL     1      34.114  -9.887 -23.662  0.00  0.00    +0.113 C 
ENDROOT
BRANCH   1   6
ATOM      3  C   UNL     1      34.074 -14.971 -23.758  0.00  0.00    +0.054 C 
ATOM      4  C   UNL     1      33.702 -14.126 -24.800  0.00  0.00    +0.006 C 
ATOM      5  C   UNL     1      34.203 -14.476 -22.463  0.00  0.00    +0.006 C 
ATOM      6  C   UNL     1      33.587 -12.277 -23.251  0.00  0.00    +0.048 C 
ATOM      7  C   UNL     1      33.458 -12.776 -24.546  0.00  0.00    +0.015 C 
ATOM      8  C   UNL     1      33.959 -13.126 -22.209  0.00  0.00    +0.015 C 
BRANCH   3  16
ATOM      9  O   UNL     1      33.871 -16.837 -25.076  0.00  0.00    -0.270 OA
ATOM     10  N   UNL     1      35.053 -17.121 -23.080  0.00  0.00    -0.276 N 
ATOM     11  C   UNL     1      35.275 -18.906 -20.803  0.00  0.00    +0.102 C 
ATOM     12  C   UNL     1      34.816 -19.395 -22.181  0.00  0.00    +0.033 C 
ATOM     13  C   UNL     1      35.086 -17.394 -20.632  0.00  0.00    +0.033 C 
ATOM     14  C   UNL     1      35.350 -18.530 -23.323  0.00  0.00    +0.094 C 
ATOM     15  C   UNL     1      35.601 -16.592 -21.826  0.00  0.00    +0.094 C 
ATOM     16  C   UNL     1      34.330 -16.392 -24.026  0.00  0.00    +0.249 C 
BRANCH  11  18
ATOM     17  O   UNL     1      37.632 -18.993 -21.293  0.00  0.00    -0.250 OA
ATOM     18  C   UNL     1      36.702 -19.303 -20.562  0.00  0.00    +0.317 C 
BRANCH  18  19
ATOM     19  O   UNL     1      36.781 -20.047 -19.422  0.00  0.00    -0.444 OA
ATOM     20  C   UNL     1      35.964 -21.222 -19.397  0.00  0.00    +0.256 C 
ENDBRANCH  18  19
ENDBRANCH  11  18
ENDBRANCH   3  16
ENDBRANCH   1   6
BRANCH   1  21
ATOM     21  C   UNL     1      32.298 -10.517 -22.065  0.00  0.00    +0.148 C 
BRANCH  21  28
ATOM     22  N   UNL     1      32.159  -8.260 -21.191  0.00  0.00    -0.392 NA
ATOM     23  N   UNL     1      31.024  -7.334 -23.539  0.00  0.00    -0.200 NA
ATOM     24  N   UNL     1      30.913  -5.195 -22.658  0.00  0.00    -0.271 NA
ATOM     25  N   UNL     1      31.698  -4.733 -20.440  0.00  0.00    -0.310 NA
ATOM     26  N   UNL     1      32.598  -6.481 -19.131  0.00  0.00    -0.329 N 
ATOM     27  N   UNL     1      30.801  -3.025 -21.769  0.00  0.00    -0.283 N 
ATOM     28  C   UNL     1      31.922  -9.068 -22.225  0.00  0.00    +0.133 C 
ATOM     29  C   UNL     1      31.364  -8.628 -23.383  0.00  0.00    +0.193 C 
ATOM     30  C   UNL     1      31.818  -6.966 -21.348  0.00  0.00    +0.248 C 
ATOM     31  C   UNL     1      31.244  -6.485 -22.527  0.00  0.00    +0.131 C 
ATOM     32  C   UNL     1      32.017  -6.036 -20.347  0.00  0.00    +0.231 C 
ATOM     33  C   UNL     1      31.156  -4.383 -21.612  0.00  0.00    +0.207 C 
ATOM     34  H   UNL     1      32.753  -5.843 -18.397  0.00  0.00    +0.145 HD
ATOM     35  H   UNL     1      32.846  -7.427 -19.022  0.00  0.00    +0.145 HD
ATOM     36  H   UNL     1      30.398  -2.717 -22.613  0.00  0.00    +0.156 HD
ATOM     37  H   UNL     1      30.955  -2.389 -21.035  0.00  0.00    +0.156 HD
ENDBRANCH  21  28
ENDBRANCH   1  21
TORSDOF 6
ENDMDL
MODEL 4
REMARK VINA RESULT:     -11.4      1.282      2.347
REMARK  Name = 23629645
REMARK  6 active torsions:
REMARK  status: ('A' for Active; 'I' for Inactive)
REMARK    1  A    between atoms: N_1  and  C_6
REMARK    2  A    between atoms: N_1  and  C_21
REMARK    3  A    between atoms: C_3  and  C_16
REMARK    4  A    between atoms: C_11  and  C_18
REMARK    5  A    between atoms: C_18  and  O_19
REMARK    6  A    between atoms: C_21  and  C_28
REMARK                            x       y       z     vdW  Elec       q    Type
REMARK                         _______ _______ _______ _____ _____    ______ ____
ROOT
ATOM      1  N   UNL     1      34.853 -18.660 -22.434  0.00  0.00    -0.300 N 
ATOM      2  C   UNL     1      34.205 -18.876 -23.711  0.00  0.00    +0.113 C 
ENDROOT
BRANCH   1   6
ATOM      3  C   UNL     1      34.076 -21.214 -19.197  0.00  0.00    +0.054 C 
ATOM      4  C   UNL     1      35.391 -20.934 -19.559  0.00  0.00    +0.006 C 
ATOM      5  C   UNL     1      33.017 -20.650 -19.904  0.00  0.00    +0.006 C 
ATOM      6  C   UNL     1      34.592 -19.519 -21.345  0.00  0.00    +0.048 C 
ATOM      7  C   UNL     1      35.650 -20.085 -20.635  0.00  0.00    +0.015 C 
ATOM      8  C   UNL     1      33.275 -19.801 -20.980  0.00  0.00    +0.015 C 
BRANCH   3  16
ATOM      9  O   UNL     1      32.636 -22.465 -17.923  0.00  0.00    -0.270 OA
ATOM     10  N   UNL     1      34.872 -22.473 -17.242  0.00  0.00    -0.276 N 
ATOM     11  C   UNL     1      36.528 -22.200 -14.876  0.00  0.00    +0.102 C 
ATOM     12  C   UNL     1      35.095 -22.739 -14.810  0.00  0.00    +0.033 C 
ATOM     13  C   UNL     1      36.778 -21.369 -16.140  0.00  0.00    +0.033 C 
ATOM     14  C   UNL     1      34.645 -23.382 -16.121  0.00  0.00    +0.094 C 
ATOM     15  C   UNL     1      36.267 -22.049 -17.409  0.00  0.00    +0.094 C 
ATOM     16  C   UNL     1      33.804 -22.109 -18.065  0.00  0.00    +0.249 C 
BRANCH  11  18
ATOM     17  O   UNL     1      38.619 -23.325 -15.286  0.00  0.00    -0.250 OA
ATOM     18  C   UNL     1      37.511 -23.329 -14.768  0.00  0.00    +0.317 C 
BRANCH  18  19
ATOM     19  O   UNL     1      36.973 -24.331 -14.016  0.00  0.00    -0.444 OA
ATOM     20  C   UNL     1      37.713 -24.685 -12.843  0.00  0.00    +0.256 C 
ENDBRANCH  18  19
ENDBRANCH  11  18
ENDBRANCH   3  16
ENDBRANCH   1   6
BRANCH   1  21
ATOM     21  C   UNL     1      35.764 -17.542 -22.284  0.00  0.00    +0.148 C 
BRANCH  21  28
ATOM     22  N   UNL     1      34.608 -15.529 -22.984  0.00  0.00    -0.392 NA
ATOM     23  N   UNL     1      34.189 -14.759 -20.359  0.00  0.00    -0.200 NA
ATOM     24  N   UNL     1      33.093 -12.850 -21.079  0.00  0.00    -0.271 NA
ATOM     25  N   UNL     1      32.814 -12.396 -23.417  0.00  0.00    -0.310 NA
ATOM     26  N   UNL     1      33.668 -13.915 -25.012  0.00  0.00    -0.329 N 
ATOM     27  N   UNL     1      31.980 -10.915 -21.805  0.00  0.00    -0.283 N 
ATOM     28  C   UNL     1      35.036 -16.265 -21.958  0.00  0.00    +0.133 C 
ATOM     29  C   UNL     1      34.838 -15.899 -20.664  0.00  0.00    +0.193 C 
ATOM     30  C   UNL     1      33.958 -14.389 -22.677  0.00  0.00    +0.248 C 
ATOM     31  C   UNL     1      33.740 -13.988 -21.358  0.00  0.00    +0.131 C 
ATOM     32  C   UNL     1      33.468 -13.546 -23.656  0.00  0.00    +0.231 C 
ATOM     33  C   UNL     1      32.662 -12.111 -22.118  0.00  0.00    +0.207 C 
ATOM     34  H   UNL     1      33.331 -13.336 -25.734  0.00  0.00    +0.145 HD
ATOM     35  H   UNL     1      34.142 -14.749 -25.230  0.00  0.00    +0.145 HD
ATOM     36  H   UNL     1      31.842 -10.660 -20.864  0.00  0.00    +0.156 HD
ATOM     37  H   UNL     1      31.645 -10.337 -22.527  0.00  0.00    +0.156 HD
ENDBRANCH  21  28
ENDBRANCH   1  21
TORSDOF 6
ENDMDL
MODEL 5
REMARK VINA RESULT:     -11.1      2.523      4.609
REMARK  Name = 23629645
REMARK  6 active torsions:
REMARK  status: ('A' for Active; 'I' for Inactive)
REMARK    1  A    between atoms: N_1  and  C_6
REMARK    2  A    between atoms: N_1  and  C_21
REMARK    3  A    between atoms: C_3  and  C_16
REMARK    4  A    between atoms: C_11  and  C_18
REMARK    5  A    between atoms: C_18  and  O_19
REMARK    6  A    between atoms: C_21  and  C_28
REMARK                            x       y       z     vdW  Elec       q    Type
REMARK                         _______ _______ _______ _____ _____    ______ ____
ROOT
ATOM      1  N   UNL     1      34.936 -21.488 -18.952  0.00  0.00    -0.300 N 
ATOM      2  C   UNL     1      33.551 -21.208 -19.273  0.00  0.00    +0.113 C 
ENDROOT
BRANCH   1   6
ATOM      3  C   UNL     1      35.975 -23.023 -15.187  0.00  0.00    +0.054 C 
ATOM      4  C   UNL     1      34.673 -23.169 -15.660  0.00  0.00    +0.006 C 
ATOM      5  C   UNL     1      36.933 -22.369 -15.958  0.00  0.00    +0.006 C 
ATOM      6  C   UNL     1      35.285 -22.005 -17.686  0.00  0.00    +0.048 C 
ATOM      7  C   UNL     1      34.327 -22.659 -16.912  0.00  0.00    +0.015 C 
ATOM      8  C   UNL     1      36.588 -21.859 -17.209  0.00  0.00    +0.015 C 
BRANCH   3  16
ATOM      9  O   UNL     1      36.510 -22.731 -12.976  0.00  0.00    -0.270 OA
ATOM     10  N   UNL     1      36.470 -24.942 -13.734  0.00  0.00    -0.276 N 
ATOM     11  C   UNL     1      38.007 -27.401 -13.653  0.00  0.00    +0.102 C 
ATOM     12  C   UNL     1      38.074 -26.360 -12.530  0.00  0.00    +0.033 C 
ATOM     13  C   UNL     1      37.511 -26.799 -14.973  0.00  0.00    +0.033 C 
ATOM     14  C   UNL     1      36.805 -25.514 -12.433  0.00  0.00    +0.094 C 
ATOM     15  C   UNL     1      36.266 -25.931 -14.799  0.00  0.00    +0.094 C 
ATOM     16  C   UNL     1      36.338 -23.559 -13.869  0.00  0.00    +0.249 C 
BRANCH  11  18
ATOM     17  O   UNL     1      36.565 -29.297 -14.013  0.00  0.00    -0.250 OA
ATOM     18  C   UNL     1      37.153 -28.562 -13.233  0.00  0.00    +0.317 C 
BRANCH  18  19
ATOM     19  O   UNL     1      37.146 -28.653 -11.873  0.00  0.00    -0.444 OA
ATOM     20  C   UNL     1      37.572 -29.910 -11.338  0.00  0.00    +0.256 C 
ENDBRANCH  18  19
ENDBRANCH  11  18
ENDBRANCH   3  16
ENDBRANCH   1   6
BRANCH   1  21
ATOM     21  C   UNL     1      35.960 -21.219 -19.942  0.00  0.00    +0.148 C 
BRANCH  21  28
ATOM     22  N   UNL     1      35.222 -19.938 -21.864  0.00  0.00    -0.392 NA
ATOM     23  N   UNL     1      35.865 -17.550 -20.622  0.00  0.00    -0.200 NA
ATOM     24  N   UNL     1      35.148 -16.373 -22.483  0.00  0.00    -0.271 NA
ATOM     25  N   UNL     1      34.285 -17.514 -24.407  0.00  0.00    -0.310 NA
ATOM     26  N   UNL     1      34.162 -19.873 -24.408  0.00  0.00    -0.329 N 
ATOM     27  N   UNL     1      34.422 -15.176 -24.367  0.00  0.00    -0.283 N 
ATOM     28  C   UNL     1      35.737 -19.900 -20.635  0.00  0.00    +0.133 C 
ATOM     29  C   UNL     1      36.058 -18.736 -20.013  0.00  0.00    +0.193 C 
ATOM     30  C   UNL     1      35.029 -18.751 -22.472  0.00  0.00    +0.248 C 
ATOM     31  C   UNL     1      35.349 -17.539 -21.858  0.00  0.00    +0.131 C 
ATOM     32  C   UNL     1      34.501 -18.665 -23.745  0.00  0.00    +0.231 C 
ATOM     33  C   UNL     1      34.627 -16.416 -23.723  0.00  0.00    +0.207 C 
ATOM     34  H   UNL     1      33.783 -19.847 -25.317  0.00  0.00    +0.145 HD
ATOM     35  H   UNL     1      34.304 -20.737 -23.959  0.00  0.00    +0.145 HD
ATOM     36  H   UNL     1      34.657 -14.338 -23.907  0.00  0.00    +0.156 HD
ATOM     37  H   UNL     1      34.044 -15.150 -25.276  0.00  0.00    +0.156 HD
ENDBRANCH  21  28
ENDBRANCH   1  21
TORSDOF 6
ENDMDL
MODEL 6
REMARK VINA RESULT:     -10.7      1.977      3.656
REMARK  Name = 23629645
REMARK  6 active torsions:
REMARK  status: ('A' for Active; 'I' for Inactive)
REMARK    1  A    between atoms: N_1  and  C_6
REMARK    2  A    between atoms: N_1  and  C_21
REMARK    3  A    between atoms: C_3  and  C_16
REMARK    4  A    between atoms: C_11  and  C_18
REMARK    5  A    between atoms: C_18  and  O_19
REMARK    6  A    between atoms: C_21  and  C_28
REMARK                            x       y       z     vdW  Elec       q    Type
REMARK                         _______ _______ _______ _____ _____    ______ ____
ROOT
ATOM      1  N   UNL     1      34.058 -20.972 -19.643  0.00  0.00    -0.300 N 
ATOM      2  C   UNL     1      32.802 -20.529 -20.213  0.00  0.00    +0.113 C 
ENDROOT
BRANCH   1   6
ATOM      3  C   UNL     1      34.117 -23.117 -16.038  0.00  0.00    +0.054 C 
ATOM      4  C   UNL     1      32.914 -22.931 -16.714  0.00  0.00    +0.006 C 
ATOM      5  C   UNL     1      35.301 -22.595 -16.552  0.00  0.00    +0.006 C 
ATOM      6  C   UNL     1      34.078 -21.694 -18.431  0.00  0.00    +0.048 C 
ATOM      7  C   UNL     1      32.894 -22.218 -17.913  0.00  0.00    +0.015 C 
ATOM      8  C   UNL     1      35.282 -21.881 -17.751  0.00  0.00    +0.015 C 
BRANCH   3  16
ATOM      9  O   UNL     1      33.047 -24.065 -14.244  0.00  0.00    -0.270 OA
ATOM     10  N   UNL     1      35.374 -24.283 -14.276  0.00  0.00    -0.276 N 
ATOM     11  C   UNL     1      37.707 -24.001 -12.575  0.00  0.00    +0.102 C 
ATOM     12  C   UNL     1      36.325 -24.354 -12.012  0.00  0.00    +0.033 C 
ATOM     13  C   UNL     1      37.619 -23.323 -13.948  0.00  0.00    +0.033 C 
ATOM     14  C   UNL     1      35.433 -25.054 -13.037  0.00  0.00    +0.094 C 
ATOM     15  C   UNL     1      36.677 -24.048 -14.908  0.00  0.00    +0.094 C 
ATOM     16  C   UNL     1      34.138 -23.867 -14.775  0.00  0.00    +0.249 C 
BRANCH  11  18
ATOM     17  O   UNL     1      38.183 -26.352 -12.353  0.00  0.00    -0.250 OA
ATOM     18  C   UNL     1      38.572 -25.226 -12.631  0.00  0.00    +0.317 C 
BRANCH  18  19
ATOM     19  O   UNL     1      39.827 -24.880 -13.033  0.00  0.00    -0.444 OA
ATOM     20  C   UNL     1      40.393 -25.702 -14.059  0.00  0.00    +0.256 C 
ENDBRANCH  18  19
ENDBRANCH  11  18
ENDBRANCH   3  16
ENDBRANCH   1   6
BRANCH   1  21
ATOM     21  C   UNL     1      35.296 -20.653 -20.327  0.00  0.00    +0.148 C 
BRANCH  21  28
ATOM     22  N   UNL     1      34.640 -19.363 -22.272  0.00  0.00    -0.392 NA
ATOM     23  N   UNL     1      35.625 -17.029 -21.157  0.00  0.00    -0.200 NA
ATOM     24  N   UNL     1      34.979 -15.841 -23.037  0.00  0.00    -0.271 NA
ATOM     25  N   UNL     1      33.899 -16.936 -24.877  0.00  0.00    -0.310 NA
ATOM     26  N   UNL     1      33.486 -19.260 -24.774  0.00  0.00    -0.329 N 
ATOM     27  N   UNL     1      34.324 -14.634 -24.941  0.00  0.00    -0.283 N 
ATOM     28  C   UNL     1      35.208 -19.344 -21.066  0.00  0.00    +0.133 C 
ATOM     29  C   UNL     1      35.697 -18.206 -20.507  0.00  0.00    +0.193 C 
ATOM     30  C   UNL     1      34.568 -18.184 -22.921  0.00  0.00    +0.248 C 
ATOM     31  C   UNL     1      35.061 -16.999 -22.371  0.00  0.00    +0.131 C 
ATOM     32  C   UNL     1      34.000 -18.080 -24.176  0.00  0.00    +0.231 C 
ATOM     33  C   UNL     1      34.403 -15.865 -24.254  0.00  0.00    +0.207 C 
ATOM     34  H   UNL     1      33.075 -19.220 -25.668  0.00  0.00    +0.145 HD
ATOM     35  H   UNL     1      33.540 -20.118 -24.295  0.00  0.00    +0.145 HD
ATOM     36  H   UNL     1      34.681 -13.816 -24.525  0.00  0.00    +0.156 HD
ATOM     37  H   UNL     1      33.914 -14.595 -25.834  0.00  0.00    +0.156 HD
ENDBRANCH  21  28
ENDBRANCH   1  21
TORSDOF 6
ENDMDL
MODEL 7
REMARK VINA RESULT:     -10.4      2.738      5.735
REMARK  Name = 23629645
REMARK  6 active torsions:
REMARK  status: ('A' for Active; 'I' for Inactive)
REMARK    1  A    between atoms: N_1  and  C_6
REMARK    2  A    between atoms: N_1  and  C_21
REMARK    3  A    between atoms: C_3  and  C_16
REMARK    4  A    between atoms: C_11  and  C_18
REMARK    5  A    between atoms: C_18  and  O_19
REMARK    6  A    between atoms: C_21  and  C_28
REMARK                            x       y       z     vdW  Elec       q    Type
REMARK                         _______ _______ _______ _____ _____    ______ ____
ROOT
ATOM      1  N   UNL     1      33.568 -14.383 -23.657  0.00  0.00    -0.300 N 
ATOM      2  C   UNL     1      33.523 -14.275 -25.101  0.00  0.00    +0.113 C 
ENDROOT
BRANCH   1   6
ATOM      3  C   UNL     1      35.597 -17.566 -21.826  0.00  0.00    +0.054 C 
ATOM      4  C   UNL     1      35.225 -17.660 -23.164  0.00  0.00    +0.006 C 
ATOM      5  C   UNL     1      35.299 -16.420 -21.092  0.00  0.00    +0.006 C 
ATOM      6  C   UNL     1      34.250 -15.453 -23.041  0.00  0.00    +0.048 C 
ATOM      7  C   UNL     1      34.550 -16.602 -23.774  0.00  0.00    +0.015 C 
ATOM      8  C   UNL     1      34.625 -15.362 -21.701  0.00  0.00    +0.015 C 
BRANCH   3  16
ATOM      9  O   UNL     1      37.501 -18.790 -21.455  0.00  0.00    -0.270 OA
ATOM     10  N   UNL     1      35.582 -19.523 -20.339  0.00  0.00    -0.276 N 
ATOM     11  C   UNL     1      34.071 -21.930 -19.757  0.00  0.00    +0.102 C 
ATOM     12  C   UNL     1      35.584 -21.956 -20.000  0.00  0.00    +0.033 C 
ATOM     13  C   UNL     1      33.409 -20.682 -20.353  0.00  0.00    +0.033 C 
ATOM     14  C   UNL     1      36.259 -20.626 -19.662  0.00  0.00    +0.094 C 
ATOM     15  C   UNL     1      34.157 -19.393 -20.015  0.00  0.00    +0.094 C 
ATOM     16  C   UNL     1      36.307 -18.680 -21.184  0.00  0.00    +0.249 C 
BRANCH  11  18
ATOM     17  O   UNL     1      34.641 -22.167 -17.428  0.00  0.00    -0.250 OA
ATOM     18  C   UNL     1      33.780 -22.047 -18.289  0.00  0.00    +0.317 C 
BRANCH  18  19
ATOM     19  O   UNL     1      32.433 -21.998 -18.085  0.00  0.00    -0.444 OA
ATOM     20  C   UNL     1      31.963 -22.673 -16.914  0.00  0.00    +0.256 C 
ENDBRANCH  18  19
ENDBRANCH  11  18
ENDBRANCH   3  16
ENDBRANCH   1   6
BRANCH   1  21
ATOM     21  C   UNL     1      32.890 -13.385 -22.853  0.00  0.00    +0.148 C 
BRANCH  21  28
ATOM     22  N   UNL     1      32.830 -10.992 -22.469  0.00  0.00    -0.392 NA
ATOM     23  N   UNL     1      34.669 -10.540 -24.487  0.00  0.00    -0.200 NA
ATOM     24  N   UNL     1      34.576  -8.262 -24.081  0.00  0.00    -0.271 NA
ATOM     25  N   UNL     1      33.159  -7.373 -22.363  0.00  0.00    -0.310 NA
ATOM     26  N   UNL     1      31.838  -8.838 -21.063  0.00  0.00    -0.329 N 
ATOM     27  N   UNL     1      34.484  -5.952 -23.671  0.00  0.00    -0.283 N 
ATOM     28  C   UNL     1      33.348 -11.990 -23.185  0.00  0.00    +0.133 C 
ATOM     29  C   UNL     1      34.251 -11.783 -24.179  0.00  0.00    +0.193 C 
ATOM     30  C   UNL     1      33.249  -9.749 -22.777  0.00  0.00    +0.248 C 
ATOM     31  C   UNL     1      34.176  -9.506 -23.793  0.00  0.00    +0.131 C 
ATOM     32  C   UNL     1      32.783  -8.637 -22.103  0.00  0.00    +0.231 C 
ATOM     33  C   UNL     1      34.050  -7.258 -23.354  0.00  0.00    +0.207 C 
ATOM     34  H   UNL     1      31.485  -8.066 -20.563  0.00  0.00    +0.145 HD
ATOM     35  H   UNL     1      31.536  -9.748 -20.841  0.00  0.00    +0.145 HD
ATOM     36  H   UNL     1      35.139  -5.814 -24.393  0.00  0.00    +0.156 HD
ATOM     37  H   UNL     1      34.131  -5.182 -23.172  0.00  0.00    +0.156 HD
ENDBRANCH  21  28
ENDBRANCH   1  21
TORSDOF 6
ENDMDL
MODEL 8
REMARK VINA RESULT:     -10.3      1.649      2.630
REMARK  Name = 23629645
REMARK  6 active torsions:
REMARK  status: ('A' for Active; 'I' for Inactive)
REMARK    1  A    between atoms: N_1  and  C_6
REMARK    2  A    between atoms: N_1  and  C_21
REMARK    3  A    between atoms: C_3  and  C_16
REMARK    4  A    between atoms: C_11  and  C_18
REMARK    5  A    between atoms: C_18  and  O_19
REMARK    6  A    between atoms: C_21  and  C_28
REMARK                            x       y       z     vdW  Elec       q    Type
REMARK                         _______ _______ _______ _____ _____    ______ ____
ROOT
ATOM      1  N   UNL     1      35.269 -19.659 -21.054  0.00  0.00    -0.300 N 
ATOM      2  C   UNL     1      33.896 -19.749 -21.508  0.00  0.00    +0.113 C 
ENDROOT
BRANCH   1   6
ATOM      3  C   UNL     1      36.481 -21.621 -17.549  0.00  0.00    +0.054 C 
ATOM      4  C   UNL     1      35.281 -21.974 -18.161  0.00  0.00    +0.006 C 
ATOM      5  C   UNL     1      37.280 -20.619 -18.093  0.00  0.00    +0.006 C 
ATOM      6  C   UNL     1      35.676 -20.319 -19.875  0.00  0.00    +0.048 C 
ATOM      7  C   UNL     1      34.878 -21.322 -19.327  0.00  0.00    +0.015 C 
ATOM      8  C   UNL     1      36.877 -19.967 -19.259  0.00  0.00    +0.015 C 
BRANCH   3  16
ATOM      9  O   UNL     1      38.115 -22.474 -16.183  0.00  0.00    -0.270 OA
ATOM     10  N   UNL     1      35.918 -22.721 -15.423  0.00  0.00    -0.276 N 
ATOM     11  C   UNL     1      34.114 -24.686 -14.284  0.00  0.00    +0.102 C 
ATOM     12  C   UNL     1      35.631 -24.752 -14.073  0.00  0.00    +0.033 C 
ATOM     13  C   UNL     1      33.735 -23.859 -15.518  0.00  0.00    +0.033 C 
ATOM     14  C   UNL     1      36.302 -23.383 -14.180  0.00  0.00    +0.094 C 
ATOM     15  C   UNL     1      34.473 -22.523 -15.587  0.00  0.00    +0.094 C 
ATOM     16  C   UNL     1      36.904 -22.307 -16.321  0.00  0.00    +0.249 C 
BRANCH  11  18
ATOM     17  O   UNL     1      33.984 -24.076 -11.956  0.00  0.00    -0.250 OA
ATOM     18  C   UNL     1      33.443 -24.156 -13.050  0.00  0.00    +0.317 C 
BRANCH  18  19
ATOM     19  O   UNL     1      32.163 -23.791 -13.349  0.00  0.00    -0.444 OA
ATOM     20  C   UNL     1      31.149 -24.718 -12.947  0.00  0.00    +0.256 C 
ENDBRANCH  18  19
ENDBRANCH  11  18
ENDBRANCH   3  16
ENDBRANCH   1   6
BRANCH   1  21
ATOM     21  C   UNL     1      36.216 -18.871 -21.818  0.00  0.00    +0.148 C 
BRANCH  21  28
ATOM     22  N   UNL     1      35.279 -16.660 -22.156  0.00  0.00    -0.392 NA
ATOM     23  N   UNL     1      34.563 -17.273 -24.758  0.00  0.00    -0.200 NA
ATOM     24  N   UNL     1      33.682 -15.149 -25.031  0.00  0.00    -0.271 NA
ATOM     25  N   UNL     1      33.740 -13.551 -23.244  0.00  0.00    -0.310 NA
ATOM     26  N   UNL     1      34.709 -14.148 -21.174  0.00  0.00    -0.329 N 
ATOM     27  N   UNL     1      32.788 -12.996 -25.311  0.00  0.00    -0.283 N 
ATOM     28  C   UNL     1      35.526 -17.856 -22.691  0.00  0.00    +0.133 C 
ATOM     29  C   UNL     1      35.180 -18.171 -23.966  0.00  0.00    +0.193 C 
ATOM     30  C   UNL     1      34.662 -15.763 -22.949  0.00  0.00    +0.248 C 
ATOM     31  C   UNL     1      34.295 -16.058 -24.263  0.00  0.00    +0.131 C 
ATOM     32  C   UNL     1      34.355 -14.491 -22.505  0.00  0.00    +0.231 C 
ATOM     33  C   UNL     1      33.435 -13.943 -24.486  0.00  0.00    +0.207 C 
ATOM     34  H   UNL     1      34.505 -13.250 -20.826  0.00  0.00    +0.145 HD
ATOM     35  H   UNL     1      35.161 -14.807 -20.599  0.00  0.00    +0.145 HD
ATOM     36  H   UNL     1      32.542 -13.235 -26.234  0.00  0.00    +0.156 HD
ATOM     37  H   UNL     1      32.583 -12.099 -24.962  0.00  0.00    +0.156 HD
ENDBRANCH  21  28
ENDBRANCH   1  21
TORSDOF 6
ENDMDL
MODEL 9
REMARK VINA RESULT:      -9.6      5.264      9.447
REMARK  Name = 23629645
REMARK  6 active torsions:
REMARK  status: ('A' for Active; 'I' for Inactive)
REMARK    1  A    between atoms: N_1  and  C_6
REMARK    2  A    between atoms: N_1  and  C_21
REMARK    3  A    between atoms: C_3  and  C_16
REMARK    4  A    between atoms: C_11  and  C_18
REMARK    5  A    between atoms: C_18  and  O_19
REMARK    6  A    between atoms: C_21  and  C_28
REMARK                            x       y       z     vdW  Elec       q    Type
REMARK                         _______ _______ _______ _____ _____    ______ ____
ROOT
ATOM      1  N   UNL     1      32.606 -10.144 -22.219  0.00  0.00    -0.300 N 
ATOM      2  C   UNL     1      31.209  -9.795 -22.057  0.00  0.00    +0.113 C 
ENDROOT
BRANCH   1   6
ATOM      3  C   UNL     1      33.699 -13.961 -23.574  0.00  0.00    +0.054 C 
ATOM      4  C   UNL     1      34.014 -12.839 -24.336  0.00  0.00    +0.006 C 
ATOM      5  C   UNL     1      33.023 -13.823 -22.365  0.00  0.00    +0.006 C 
ATOM      6  C   UNL     1      32.974 -11.428 -22.675  0.00  0.00    +0.048 C 
ATOM      7  C   UNL     1      33.651 -11.569 -23.886  0.00  0.00    +0.015 C 
ATOM      8  C   UNL     1      32.660 -12.554 -21.914  0.00  0.00    +0.015 C 
BRANCH   3  16
ATOM      9  O   UNL     1      33.688 -15.606 -25.172  0.00  0.00    -0.270 OA
ATOM     10  N   UNL     1      34.840 -16.107 -23.201  0.00  0.00    -0.276 N 
ATOM     11  C   UNL     1      35.155 -18.204 -21.222  0.00  0.00    +0.102 C 
ATOM     12  C   UNL     1      34.773 -18.505 -22.676  0.00  0.00    +0.033 C 
ATOM     13  C   UNL     1      34.834 -16.758 -20.825  0.00  0.00    +0.033 C 
ATOM     14  C   UNL     1      35.260 -17.431 -23.648  0.00  0.00    +0.094 C 
ATOM     15  C   UNL     1      35.310 -15.739 -21.860  0.00  0.00    +0.094 C 
ATOM     16  C   UNL     1      34.081 -15.297 -24.049  0.00  0.00    +0.249 C 
BRANCH  11  18
ATOM     17  O   UNL     1      37.507 -18.177 -21.741  0.00  0.00    -0.250 OA
ATOM     18  C   UNL     1      36.604 -18.520 -20.992  0.00  0.00    +0.317 C 
BRANCH  18  19
ATOM     19  O   UNL     1      36.737 -19.235 -19.838  0.00  0.00    -0.444 OA
ATOM     20  C   UNL     1      36.011 -20.468 -19.791  0.00  0.00    +0.256 C 
ENDBRANCH  18  19
ENDBRANCH  11  18
ENDBRANCH   3  16
ENDBRANCH   1   6
BRANCH   1  21
ATOM     21  C   UNL     1      33.622  -9.162 -21.894  0.00  0.00    +0.148 C 
BRANCH  21  28
ATOM     22  N   UNL     1      32.553  -6.987 -21.807  0.00  0.00    -0.392 NA
ATOM     23  N   UNL     1      33.567  -6.300 -24.289  0.00  0.00    -0.200 NA
ATOM     24  N   UNL     1      32.526  -4.235 -24.158  0.00  0.00    -0.271 NA
ATOM     25  N   UNL     1      31.213  -3.636 -22.244  0.00  0.00    -0.310 NA
ATOM     26  N   UNL     1      30.976  -5.170 -20.462  0.00  0.00    -0.329 N 
ATOM     27  N   UNL     1      31.473  -2.141 -24.028  0.00  0.00    -0.283 N 
ATOM     28  C   UNL     1      33.323  -7.820 -22.509  0.00  0.00    +0.133 C 
ATOM     29  C   UNL     1      33.827  -7.496 -23.728  0.00  0.00    +0.193 C 
ATOM     30  C   UNL     1      32.294  -5.791 -22.369  0.00  0.00    +0.248 C 
ATOM     31  C   UNL     1      32.798  -5.430 -23.621  0.00  0.00    +0.131 C 
ATOM     32  C   UNL     1      31.510  -4.845 -21.737  0.00  0.00    +0.231 C 
ATOM     33  C   UNL     1      31.749  -3.398 -23.446  0.00  0.00    +0.207 C 
ATOM     34  H   UNL     1      30.413  -4.518 -19.985  0.00  0.00    +0.145 HD
ATOM     35  H   UNL     1      31.169  -6.045 -20.056  0.00  0.00    +0.145 HD
ATOM     36  H   UNL     1      31.844  -1.917 -24.913  0.00  0.00    +0.156 HD
ATOM     37  H   UNL     1      30.909  -1.491 -23.551  0.00  0.00    +0.156 HD
ENDBRANCH  21  28
ENDBRANCH   1  21
TORSDOF 6
ENDMDL
