MODEL 1
REMARK VINA RESULT:     -11.9      0.000      0.000
REMARK  Name = 11952989
REMARK  5 active torsions:
REMARK  status: ('A' for Active; 'I' for Inactive)
REMARK    1  A    between atoms: C_4  and  C_21
REMARK    2  A    between atoms: C_6  and  C_11
REMARK    3  A    between atoms: C_24  and  C_27
REMARK    4  A    between atoms: C_27  and  C_29
REMARK    5  A    between atoms: C_29  and  O_30
REMARK                            x       y       z     vdW  Elec       q    Type
REMARK                         _______ _______ _______ _____ _____    ______ ____
ROOT
ATOM      1  N   UNL     1      32.776 -24.989 -13.502  0.00  0.00    -0.297 N 
ATOM      2  N   UNL     1      34.768 -24.326 -14.683  0.00  0.00    -0.229 NA
ATOM      3  C   UNL     1      32.490 -23.600 -15.226  0.00  0.00    +0.033 C 
ATOM      4  C   UNL     1      31.223 -23.883 -14.650  0.00  0.00    +0.017 C 
ATOM      5  C   UNL     1      33.437 -24.304 -14.487  0.00  0.00    +0.132 C 
ATOM      6  C   UNL     1      34.327 -22.808 -16.543  0.00  0.00    +0.019 C 
ATOM      7  C   UNL     1      32.956 -22.820 -16.297  0.00  0.00    +0.004 C 
ATOM      8  C   UNL     1      31.431 -24.741 -13.591  0.00  0.00    +0.063 C 
ATOM      9  C   UNL     1      35.161 -23.559 -15.726  0.00  0.00    +0.100 C 
ATOM     10  H   UNL     1      33.203 -25.571 -12.831  0.00  0.00    +0.154 HD
ENDROOT
BRANCH   6  11
ATOM     11  C   UNL     1      34.871 -22.027 -17.632  0.00  0.00    +0.001 C 
ATOM     12  C   UNL     1      34.531 -20.741 -19.670  0.00  0.00    +0.000 C 
ATOM     13  C   UNL     1      34.020 -21.502 -18.606  0.00  0.00    +0.000 C 
ATOM     14  C   UNL     1      35.926 -20.509 -19.747  0.00  0.00    +0.000 C 
ATOM     15  C   UNL     1      36.241 -21.799 -17.708  0.00  0.00    +0.000 C 
ATOM     16  C   UNL     1      36.767 -21.045 -18.758  0.00  0.00    +0.000 C 
ATOM     17  C   UNL     1      33.690 -20.206 -20.659  0.00  0.00    +0.000 C 
ATOM     18  C   UNL     1      36.437 -19.749 -20.811  0.00  0.00    +0.000 C 
ATOM     19  C   UNL     1      34.217 -19.453 -21.709  0.00  0.00    +0.000 C 
ATOM     20  C   UNL     1      35.588 -19.224 -21.785  0.00  0.00    +0.000 C 
ENDBRANCH   6  11
BRANCH   4  21
ATOM     21  C   UNL     1      29.917 -23.421 -15.021  0.00  0.00    +0.001 C 
ATOM     22  C   UNL     1      29.281 -22.440 -14.259  0.00  0.00    -0.000 C 
ATOM     23  C   UNL     1      29.281 -23.951 -16.144  0.00  0.00    -0.000 C 
ATOM     24  C   UNL     1      27.377 -22.521 -15.744  0.00  0.00    -0.011 C 
ATOM     25  C   UNL     1      28.011 -21.991 -14.621  0.00  0.00    -0.004 C 
ATOM     26  C   UNL     1      28.012 -23.502 -16.506  0.00  0.00    -0.004 C 
BRANCH  24  27
ATOM     27  C   UNL     1      26.019 -22.038 -16.131  0.00  0.00    +0.136 C 
BRANCH  27  29
ATOM     28  O   UNL     1      25.951 -21.834 -18.556  0.00  0.00    -0.250 OA
ATOM     29  C   UNL     1      25.995 -21.301 -17.455  0.00  0.00    +0.318 C 
BRANCH  29  30
ATOM     30  O   UNL     1      26.028 -19.953 -17.286  0.00  0.00    -0.480 OA
ATOM     31  H   UNL     1      25.314 -19.516 -16.865  0.00  0.00    +0.295 HD
ENDBRANCH  29  30
ENDBRANCH  27  29
ENDBRANCH  24  27
ENDBRANCH   4  21
TORSDOF 5
ENDMDL
MODEL 2
REMARK VINA RESULT:     -11.6      4.740      7.182
REMARK  Name = 11952989
REMARK  5 active torsions:
REMARK  status: ('A' for Active; 'I' for Inactive)
REMARK    1  A    between atoms: C_4  and  C_21
REMARK    2  A    between atoms: C_6  and  C_11
REMARK    3  A    between atoms: C_24  and  C_27
REMARK    4  A    between atoms: C_27  and  C_29
REMARK    5  A    between atoms: C_29  and  O_30
REMARK                            x       y       z     vdW  Elec       q    Type
REMARK                         _______ _______ _______ _____ _____    ______ ____
ROOT
ATOM      1  N   UNL     1      31.768 -24.184 -14.589  0.00  0.00    -0.297 N 
ATOM      2  N   UNL     1      31.162 -22.797 -16.463  0.00  0.00    -0.229 NA
ATOM      3  C   UNL     1      33.451 -23.424 -15.844  0.00  0.00    +0.033 C 
ATOM      4  C   UNL     1      33.983 -24.218 -14.793  0.00  0.00    +0.017 C 
ATOM      5  C   UNL     1      32.067 -23.423 -15.688  0.00  0.00    +0.132 C 
ATOM      6  C   UNL     1      33.086 -22.030 -17.756  0.00  0.00    +0.019 C 
ATOM      7  C   UNL     1      33.980 -22.697 -16.922  0.00  0.00    +0.004 C 
ATOM      8  C   UNL     1      32.924 -24.672 -14.037  0.00  0.00    +0.063 C 
ATOM      9  C   UNL     1      31.727 -22.114 -17.486  0.00  0.00    +0.100 C 
ATOM     10  H   UNL     1      30.860 -24.355 -14.247  0.00  0.00    +0.154 HD
ENDROOT
BRANCH   6  11
ATOM     11  C   UNL     1      33.566 -21.263 -18.885  0.00  0.00    +0.001 C 
ATOM     12  C   UNL     1      35.406 -20.207 -20.077  0.00  0.00    +0.000 C 
ATOM     13  C   UNL     1      34.923 -20.951 -18.988  0.00  0.00    +0.000 C 
ATOM     14  C   UNL     1      34.500 -19.773 -21.075  0.00  0.00    +0.000 C 
ATOM     15  C   UNL     1      32.676 -20.836 -19.865  0.00  0.00    +0.000 C 
ATOM     16  C   UNL     1      33.139 -20.096 -20.954  0.00  0.00    +0.000 C 
ATOM     17  C   UNL     1      36.768 -19.884 -20.197  0.00  0.00    +0.000 C 
ATOM     18  C   UNL     1      34.984 -19.029 -22.163  0.00  0.00    +0.000 C 
ATOM     19  C   UNL     1      37.229 -19.143 -21.286  0.00  0.00    +0.000 C 
ATOM     20  C   UNL     1      36.339 -18.717 -22.267  0.00  0.00    +0.000 C 
ENDBRANCH   6  11
BRANCH   4  21
ATOM     21  C   UNL     1      35.345 -24.547 -14.485  0.00  0.00    +0.001 C 
ATOM     22  C   UNL     1      36.207 -23.565 -13.994  0.00  0.00    -0.000 C 
ATOM     23  C   UNL     1      35.810 -25.849 -14.675  0.00  0.00    -0.000 C 
ATOM     24  C   UNL     1      37.994 -25.187 -13.885  0.00  0.00    -0.011 C 
ATOM     25  C   UNL     1      37.530 -23.885 -13.694  0.00  0.00    -0.004 C 
ATOM     26  C   UNL     1      37.133 -26.169 -14.376  0.00  0.00    -0.004 C 
BRANCH  24  27
ATOM     27  C   UNL     1      39.410 -25.529 -13.561  0.00  0.00    +0.136 C 
BRANCH  27  29
ATOM     28  O   UNL     1      41.234 -24.285 -14.588  0.00  0.00    -0.250 OA
ATOM     29  C   UNL     1      40.386 -25.164 -14.662  0.00  0.00    +0.318 C 
BRANCH  29  30
ATOM     30  O   UNL     1      40.216 -25.938 -15.767  0.00  0.00    -0.480 OA
ATOM     31  H   UNL     1      39.452 -25.831 -16.300  0.00  0.00    +0.295 HD
ENDBRANCH  29  30
ENDBRANCH  27  29
ENDBRANCH  24  27
ENDBRANCH   4  21
TORSDOF 5
ENDMDL
MODEL 3
REMARK VINA RESULT:     -11.2      1.421      2.601
REMARK  Name = 11952989
REMARK  5 active torsions:
REMARK  status: ('A' for Active; 'I' for Inactive)
REMARK    1  A    between atoms: C_4  and  C_21
REMARK    2  A    between atoms: C_6  and  C_11
REMARK    3  A    between atoms: C_24  and  C_27
REMARK    4  A    between atoms: C_27  and  C_29
REMARK    5  A    between atoms: C_29  and  O_30
REMARK                            x       y       z     vdW  Elec       q    Type
REMARK                         _______ _______ _______ _____ _____    ______ ____
ROOT
ATOM      1  N   UNL     1      36.087 -23.909 -14.156  0.00  0.00    -0.297 N 
ATOM      2  N   UNL     1      37.446 -22.774 -15.790  0.00  0.00    -0.229 NA
ATOM      3  C   UNL     1      34.995 -22.852 -15.792  0.00  0.00    +0.033 C 
ATOM      4  C   UNL     1      34.048 -23.461 -14.925  0.00  0.00    +0.017 C 
ATOM      5  C   UNL     1      36.256 -23.150 -15.284  0.00  0.00    +0.132 C 
ATOM      6  C   UNL     1      36.139 -21.658 -17.523  0.00  0.00    +0.019 C 
ATOM      7  C   UNL     1      34.935 -22.073 -16.959  0.00  0.00    +0.004 C 
ATOM      8  C   UNL     1      34.749 -24.104 -13.928  0.00  0.00    +0.063 C 
ATOM      9  C   UNL     1      37.329 -22.027 -16.912  0.00  0.00    +0.100 C 
ATOM     10  H   UNL     1      36.815 -24.261 -13.594  0.00  0.00    +0.154 HD
ENDROOT
BRANCH   6  11
ATOM     11  C   UNL     1      36.147 -20.854 -18.726  0.00  0.00    +0.001 C 
ATOM     12  C   UNL     1      35.005 -20.032 -20.711  0.00  0.00    +0.000 C 
ATOM     13  C   UNL     1      35.014 -20.806 -19.540  0.00  0.00    +0.000 C 
ATOM     14  C   UNL     1      36.162 -19.294 -21.062  0.00  0.00    +0.000 C 
ATOM     15  C   UNL     1      37.284 -20.129 -19.071  0.00  0.00    +0.000 C 
ATOM     16  C   UNL     1      37.293 -19.354 -20.231  0.00  0.00    +0.000 C 
ATOM     17  C   UNL     1      33.874 -19.972 -21.542  0.00  0.00    +0.000 C 
ATOM     18  C   UNL     1      36.153 -18.520 -22.233  0.00  0.00    +0.000 C 
ATOM     19  C   UNL     1      33.885 -19.197 -22.702  0.00  0.00    +0.000 C 
ATOM     20  C   UNL     1      35.021 -18.472 -23.047  0.00  0.00    +0.000 C 
ENDBRANCH   6  11
BRANCH   4  21
ATOM     21  C   UNL     1      32.615 -23.468 -14.985  0.00  0.00    +0.001 C 
ATOM     22  C   UNL     1      31.870 -23.790 -13.850  0.00  0.00    -0.000 C 
ATOM     23  C   UNL     1      31.964 -23.151 -16.178  0.00  0.00    -0.000 C 
ATOM     24  C   UNL     1      29.826 -23.480 -15.102  0.00  0.00    -0.011 C 
ATOM     25  C   UNL     1      30.476 -23.797 -13.909  0.00  0.00    -0.004 C 
ATOM     26  C   UNL     1      30.570 -23.157 -16.237  0.00  0.00    -0.004 C 
BRANCH  24  27
ATOM     27  C   UNL     1      28.336 -23.485 -15.163  0.00  0.00    +0.136 C 
BRANCH  27  29
ATOM     28  O   UNL     1      27.602 -21.659 -16.597  0.00  0.00    -0.250 OA
ATOM     29  C   UNL     1      27.781 -22.857 -16.426  0.00  0.00    +0.318 C 
BRANCH  29  30
ATOM     30  O   UNL     1      27.495 -23.791 -17.372  0.00  0.00    -0.480 OA
ATOM     31  H   UNL     1      26.612 -24.084 -17.488  0.00  0.00    +0.295 HD
ENDBRANCH  29  30
ENDBRANCH  27  29
ENDBRANCH  24  27
ENDBRANCH   4  21
TORSDOF 5
ENDMDL
MODEL 4
REMARK VINA RESULT:     -10.8      7.146     10.786
REMARK  Name = 11952989
REMARK  5 active torsions:
REMARK  status: ('A' for Active; 'I' for Inactive)
REMARK    1  A    between atoms: C_4  and  C_21
REMARK    2  A    between atoms: C_6  and  C_11
REMARK    3  A    between atoms: C_24  and  C_27
REMARK    4  A    between atoms: C_27  and  C_29
REMARK    5  A    between atoms: C_29  and  O_30
REMARK                            x       y       z     vdW  Elec       q    Type
REMARK                         _______ _______ _______ _____ _____    ______ ____
ROOT
ATOM      1  N   UNL     1      33.821 -14.363 -25.489  0.00  0.00    -0.297 N 
ATOM      2  N   UNL     1      34.778 -16.542 -25.116  0.00  0.00    -0.229 NA
ATOM      3  C   UNL     1      33.971 -15.029 -23.363  0.00  0.00    +0.033 C 
ATOM      4  C   UNL     1      33.388 -13.734 -23.399  0.00  0.00    +0.017 C 
ATOM      5  C   UNL     1      34.229 -15.392 -24.682  0.00  0.00    +0.132 C 
ATOM      6  C   UNL     1      34.888 -17.155 -22.755  0.00  0.00    +0.019 C 
ATOM      7  C   UNL     1      34.315 -15.949 -22.360  0.00  0.00    +0.004 C 
ATOM      8  C   UNL     1      33.309 -13.351 -24.721  0.00  0.00    +0.063 C 
ATOM      9  C   UNL     1      35.090 -17.390 -24.108  0.00  0.00    +0.100 C 
ATOM     10  H   UNL     1      33.885 -14.353 -26.472  0.00  0.00    +0.154 HD
ENDROOT
BRANCH   6  11
ATOM     11  C   UNL     1      35.267 -18.146 -21.771  0.00  0.00    +0.001 C 
ATOM     12  C   UNL     1      34.653 -19.975 -20.288  0.00  0.00    +0.000 C 
ATOM     13  C   UNL     1      34.303 -19.008 -21.244  0.00  0.00    +0.000 C 
ATOM     14  C   UNL     1      35.999 -20.070 -19.860  0.00  0.00    +0.000 C 
ATOM     15  C   UNL     1      36.590 -18.239 -21.350  0.00  0.00    +0.000 C 
ATOM     16  C   UNL     1      36.955 -19.194 -20.401  0.00  0.00    +0.000 C 
ATOM     17  C   UNL     1      33.697 -20.850 -19.747  0.00  0.00    +0.000 C 
ATOM     18  C   UNL     1      36.349 -21.037 -18.904  0.00  0.00    +0.000 C 
ATOM     19  C   UNL     1      34.064 -21.804 -18.797  0.00  0.00    +0.000 C 
ATOM     20  C   UNL     1      35.386 -21.898 -18.376  0.00  0.00    +0.000 C 
ENDBRANCH   6  11
BRANCH   4  21
ATOM     21  C   UNL     1      32.935 -12.897 -22.327  0.00  0.00    +0.001 C 
ATOM     22  C   UNL     1      32.642 -11.553 -22.565  0.00  0.00    -0.000 C 
ATOM     23  C   UNL     1      32.786 -13.424 -21.043  0.00  0.00    -0.000 C 
ATOM     24  C   UNL     1      32.052 -11.268 -20.239  0.00  0.00    -0.011 C 
ATOM     25  C   UNL     1      32.201 -10.740 -21.522  0.00  0.00    -0.004 C 
ATOM     26  C   UNL     1      32.345 -12.611 -20.000  0.00  0.00    -0.004 C 
BRANCH  24  27
ATOM     27  C   UNL     1      31.578 -10.397 -19.125  0.00  0.00    +0.136 C 
BRANCH  27  29
ATOM     28  O   UNL     1      31.559  -8.125 -19.999  0.00  0.00    -0.250 OA
ATOM     29  C   UNL     1      32.039  -8.959 -19.243  0.00  0.00    +0.318 C 
BRANCH  29  30
ATOM     30  O   UNL     1      33.070  -8.686 -18.400  0.00  0.00    -0.480 OA
ATOM     31  H   UNL     1      33.619  -9.380 -18.091  0.00  0.00    +0.295 HD
ENDBRANCH  29  30
ENDBRANCH  27  29
ENDBRANCH  24  27
ENDBRANCH   4  21
TORSDOF 5
ENDMDL
MODEL 5
REMARK VINA RESULT:     -10.5      1.894      3.285
REMARK  Name = 11952989
REMARK  5 active torsions:
REMARK  status: ('A' for Active; 'I' for Inactive)
REMARK    1  A    between atoms: C_4  and  C_21
REMARK    2  A    between atoms: C_6  and  C_11
REMARK    3  A    between atoms: C_24  and  C_27
REMARK    4  A    between atoms: C_27  and  C_29
REMARK    5  A    between atoms: C_29  and  O_30
REMARK                            x       y       z     vdW  Elec       q    Type
REMARK                         _______ _______ _______ _____ _____    ______ ____
ROOT
ATOM      1  N   UNL     1      36.543 -23.791 -14.129  0.00  0.00    -0.297 N 
ATOM      2  N   UNL     1      37.504 -22.539 -15.948  0.00  0.00    -0.229 NA
ATOM      3  C   UNL     1      35.119 -23.034 -15.673  0.00  0.00    +0.033 C 
ATOM      4  C   UNL     1      34.388 -23.743 -14.682  0.00  0.00    +0.017 C 
ATOM      5  C   UNL     1      36.458 -23.082 -15.298  0.00  0.00    +0.132 C 
ATOM      6  C   UNL     1      35.849 -21.766 -17.568  0.00  0.00    +0.019 C 
ATOM      7  C   UNL     1      34.803 -22.347 -16.856  0.00  0.00    +0.004 C 
ATOM      8  C   UNL     1      35.291 -24.197 -13.745  0.00  0.00    +0.063 C 
ATOM      9  C   UNL     1      37.143 -21.891 -17.080  0.00  0.00    +0.100 C 
ATOM     10  H   UNL     1      37.376 -23.980 -13.638  0.00  0.00    +0.154 HD
ENDROOT
BRANCH   6  11
ATOM     11  C   UNL     1      35.592 -21.045 -18.795  0.00  0.00    +0.001 C 
ATOM     12  C   UNL     1      36.371 -19.578 -20.573  0.00  0.00    +0.000 C 
ATOM     13  C   UNL     1      36.604 -20.284 -19.382  0.00  0.00    +0.000 C 
ATOM     14  C   UNL     1      35.092 -19.644 -21.178  0.00  0.00    +0.000 C 
ATOM     15  C   UNL     1      34.335 -21.109 -19.389  0.00  0.00    +0.000 C 
ATOM     16  C   UNL     1      34.086 -20.414 -20.573  0.00  0.00    +0.000 C 
ATOM     17  C   UNL     1      37.378 -18.807 -21.177  0.00  0.00    +0.000 C 
ATOM     18  C   UNL     1      34.859 -18.937 -22.368  0.00  0.00    +0.000 C 
ATOM     19  C   UNL     1      37.127 -18.111 -22.361  0.00  0.00    +0.000 C 
ATOM     20  C   UNL     1      35.871 -18.176 -22.955  0.00  0.00    +0.000 C 
ENDBRANCH   6  11
BRANCH   4  21
ATOM     21  C   UNL     1      32.980 -23.997 -14.581  0.00  0.00    +0.001 C 
ATOM     22  C   UNL     1      32.105 -23.477 -15.535  0.00  0.00    -0.000 C 
ATOM     23  C   UNL     1      32.483 -24.767 -13.528  0.00  0.00    -0.000 C 
ATOM     24  C   UNL     1      30.241 -24.494 -14.384  0.00  0.00    -0.011 C 
ATOM     25  C   UNL     1      30.737 -23.725 -15.436  0.00  0.00    -0.004 C 
ATOM     26  C   UNL     1      31.114 -25.015 -13.429  0.00  0.00    -0.004 C 
BRANCH  24  27
ATOM     27  C   UNL     1      28.777 -24.761 -14.281  0.00  0.00    +0.136 C 
BRANCH  27  29
ATOM     28  O   UNL     1      27.829 -24.565 -16.515  0.00  0.00    -0.250 OA
ATOM     29  C   UNL     1      27.965 -24.115 -15.385  0.00  0.00    +0.318 C 
BRANCH  29  30
ATOM     30  O   UNL     1      27.391 -22.952 -14.978  0.00  0.00    -0.480 OA
ATOM     31  H   UNL     1      27.206 -22.277 -15.602  0.00  0.00    +0.295 HD
ENDBRANCH  29  30
ENDBRANCH  27  29
ENDBRANCH  24  27
ENDBRANCH   4  21
TORSDOF 5
ENDMDL
MODEL 6
REMARK VINA RESULT:     -10.3      6.473      9.252
REMARK  Name = 11952989
REMARK  5 active torsions:
REMARK  status: ('A' for Active; 'I' for Inactive)
REMARK    1  A    between atoms: C_4  and  C_21
REMARK    2  A    between atoms: C_6  and  C_11
REMARK    3  A    between atoms: C_24  and  C_27
REMARK    4  A    between atoms: C_27  and  C_29
REMARK    5  A    between atoms: C_29  and  O_30
REMARK                            x       y       z     vdW  Elec       q    Type
REMARK                         _______ _______ _______ _____ _____    ______ ____
ROOT
ATOM      1  N   UNL     1      36.703 -25.474 -11.211  0.00  0.00    -0.297 N 
ATOM      2  N   UNL     1      35.237 -23.810 -12.150  0.00  0.00    -0.229 NA
ATOM      3  C   UNL     1      36.640 -25.353 -13.439  0.00  0.00    +0.033 C 
ATOM      4  C   UNL     1      37.547 -26.379 -13.060  0.00  0.00    +0.017 C 
ATOM      5  C   UNL     1      36.131 -24.809 -12.263  0.00  0.00    +0.132 C 
ATOM      6  C   UNL     1      35.255 -23.775 -14.591  0.00  0.00    +0.019 C 
ATOM      7  C   UNL     1      36.182 -24.813 -14.652  0.00  0.00    +0.004 C 
ATOM      8  C   UNL     1      37.565 -26.430 -11.683  0.00  0.00    +0.063 C 
ATOM      9  C   UNL     1      34.830 -23.328 -13.348  0.00  0.00    +0.100 C 
ATOM     10  H   UNL     1      36.522 -25.294 -10.259  0.00  0.00    +0.154 HD
ENDROOT
BRANCH   6  11
ATOM     11  C   UNL     1      34.744 -23.175 -15.804  0.00  0.00    +0.001 C 
ATOM     12  C   UNL     1      35.133 -21.925 -17.855  0.00  0.00    +0.000 C 
ATOM     13  C   UNL     1      35.612 -22.514 -16.674  0.00  0.00    +0.000 C 
ATOM     14  C   UNL     1      33.752 -22.008 -18.159  0.00  0.00    +0.000 C 
ATOM     15  C   UNL     1      33.387 -23.256 -16.102  0.00  0.00    +0.000 C 
ATOM     16  C   UNL     1      32.893 -22.678 -17.272  0.00  0.00    +0.000 C 
ATOM     17  C   UNL     1      35.992 -21.256 -18.742  0.00  0.00    +0.000 C 
ATOM     18  C   UNL     1      33.273 -21.419 -19.340  0.00  0.00    +0.000 C 
ATOM     19  C   UNL     1      35.497 -20.677 -19.911  0.00  0.00    +0.000 C 
ATOM     20  C   UNL     1      34.141 -20.758 -20.210  0.00  0.00    +0.000 C 
ENDBRANCH   6  11
BRANCH   4  21
ATOM     21  C   UNL     1      38.343 -27.252 -13.873  0.00  0.00    +0.001 C 
ATOM     22  C   UNL     1      38.057 -28.617 -13.920  0.00  0.00    -0.000 C 
ATOM     23  C   UNL     1      39.404 -26.737 -14.619  0.00  0.00    -0.000 C 
ATOM     24  C   UNL     1      39.892 -28.950 -15.456  0.00  0.00    -0.011 C 
ATOM     25  C   UNL     1      38.832 -29.465 -14.711  0.00  0.00    -0.004 C 
ATOM     26  C   UNL     1      40.179 -27.585 -15.410  0.00  0.00    -0.004 C 
BRANCH  24  27
ATOM     27  C   UNL     1      40.718 -29.858 -16.304  0.00  0.00    +0.136 C 
BRANCH  27  29
ATOM     28  O   UNL     1      42.746 -29.862 -14.955  0.00  0.00    -0.250 OA
ATOM     29  C   UNL     1      42.207 -29.736 -16.047  0.00  0.00    +0.318 C 
BRANCH  29  30
ATOM     30  O   UNL     1      42.898 -29.467 -17.186  0.00  0.00    -0.480 OA
ATOM     31  H   UNL     1      43.663 -29.965 -17.399  0.00  0.00    +0.295 HD
ENDBRANCH  29  30
ENDBRANCH  27  29
ENDBRANCH  24  27
ENDBRANCH   4  21
TORSDOF 5
ENDMDL
MODEL 7
REMARK VINA RESULT:     -10.3     12.717     16.061
REMARK  Name = 11952989
REMARK  5 active torsions:
REMARK  status: ('A' for Active; 'I' for Inactive)
REMARK    1  A    between atoms: C_4  and  C_21
REMARK    2  A    between atoms: C_6  and  C_11
REMARK    3  A    between atoms: C_24  and  C_27
REMARK    4  A    between atoms: C_27  and  C_29
REMARK    5  A    between atoms: C_29  and  O_30
REMARK                            x       y       z     vdW  Elec       q    Type
REMARK                         _______ _______ _______ _____ _____    ______ ____
ROOT
ATOM      1  N   UNL     1      31.715  -9.089 -19.226  0.00  0.00    -0.297 N 
ATOM      2  N   UNL     1      31.867  -6.755 -19.802  0.00  0.00    -0.229 NA
ATOM      3  C   UNL     1      32.393  -8.622 -21.301  0.00  0.00    +0.033 C 
ATOM      4  C   UNL     1      32.360 -10.033 -21.135  0.00  0.00    +0.017 C 
ATOM      5  C   UNL     1      31.985  -8.063 -20.094  0.00  0.00    +0.132 C 
ATOM      6  C   UNL     1      32.617  -6.374 -22.094  0.00  0.00    +0.019 C 
ATOM      7  C   UNL     1      32.721  -7.740 -22.344  0.00  0.00    +0.004 C 
ATOM      8  C   UNL     1      31.939 -10.289 -19.848  0.00  0.00    +0.063 C 
ATOM      9  C   UNL     1      32.196  -5.952 -20.841  0.00  0.00    +0.100 C 
ATOM     10  H   UNL     1      31.406  -8.980 -18.297  0.00  0.00    +0.154 HD
ENDROOT
BRANCH   6  11
ATOM     11  C   UNL     1      32.941  -5.412 -23.125  0.00  0.00    +0.001 C 
ATOM     12  C   UNL     1      34.345  -4.724 -24.989  0.00  0.00    +0.000 C 
ATOM     13  C   UNL     1      34.015  -5.647 -23.984  0.00  0.00    +0.000 C 
ATOM     14  C   UNL     1      33.573  -3.545 -25.126  0.00  0.00    +0.000 C 
ATOM     15  C   UNL     1      32.183  -4.253 -23.259  0.00  0.00    +0.000 C 
ATOM     16  C   UNL     1      32.495  -3.325 -24.252  0.00  0.00    +0.000 C 
ATOM     17  C   UNL     1      35.422  -4.944 -25.863  0.00  0.00    +0.000 C 
ATOM     18  C   UNL     1      33.902  -2.622 -26.131  0.00  0.00    +0.000 C 
ATOM     19  C   UNL     1      35.734  -4.015 -26.856  0.00  0.00    +0.000 C 
ATOM     20  C   UNL     1      34.976  -2.856 -26.990  0.00  0.00    +0.000 C 
ENDBRANCH   6  11
BRANCH   4  21
ATOM     21  C   UNL     1      32.684 -11.078 -22.062  0.00  0.00    +0.001 C 
ATOM     22  C   UNL     1      33.349 -10.776 -23.251  0.00  0.00    -0.000 C 
ATOM     23  C   UNL     1      32.336 -12.399 -21.775  0.00  0.00    -0.000 C 
ATOM     24  C   UNL     1      33.316 -13.113 -23.864  0.00  0.00    -0.011 C 
ATOM     25  C   UNL     1      33.664 -11.793 -24.151  0.00  0.00    -0.004 C 
ATOM     26  C   UNL     1      32.651 -13.416 -22.675  0.00  0.00    -0.004 C 
BRANCH  24  27
ATOM     27  C   UNL     1      33.656 -14.201 -24.827  0.00  0.00    +0.136 C 
BRANCH  27  29
ATOM     28  O   UNL     1      35.183 -15.252 -23.248  0.00  0.00    -0.250 OA
ATOM     29  C   UNL     1      34.415 -15.351 -24.196  0.00  0.00    +0.318 C 
BRANCH  29  30
ATOM     30  O   UNL     1      34.146 -16.533 -24.811  0.00  0.00    -0.480 OA
ATOM     31  H   UNL     1      33.428 -17.060 -24.518  0.00  0.00    +0.295 HD
ENDBRANCH  29  30
ENDBRANCH  27  29
ENDBRANCH  24  27
ENDBRANCH   4  21
TORSDOF 5
ENDMDL
MODEL 8
REMARK VINA RESULT:     -10.2     11.407     14.807
REMARK  Name = 11952989
REMARK  5 active torsions:
REMARK  status: ('A' for Active; 'I' for Inactive)
REMARK    1  A    between atoms: C_4  and  C_21
REMARK    2  A    between atoms: C_6  and  C_11
REMARK    3  A    between atoms: C_24  and  C_27
REMARK    4  A    between atoms: C_27  and  C_29
REMARK    5  A    between atoms: C_29  and  O_30
REMARK                            x       y       z     vdW  Elec       q    Type
REMARK                         _______ _______ _______ _____ _____    ______ ____
ROOT
ATOM      1  N   UNL     1      31.429 -10.896 -19.616  0.00  0.00    -0.297 N 
ATOM      2  N   UNL     1      31.556  -8.562 -20.197  0.00  0.00    -0.229 NA
ATOM      3  C   UNL     1      32.507 -10.403 -21.508  0.00  0.00    +0.033 C 
ATOM      4  C   UNL     1      32.527 -11.811 -21.321  0.00  0.00    +0.017 C 
ATOM      5  C   UNL     1      31.815  -9.862 -20.428  0.00  0.00    +0.132 C 
ATOM      6  C   UNL     1      32.756  -8.151 -22.283  0.00  0.00    +0.019 C 
ATOM      7  C   UNL     1      32.996  -9.510 -22.475  0.00  0.00    +0.004 C 
ATOM      8  C   UNL     1      31.856 -12.084 -20.148  0.00  0.00    +0.063 C 
ATOM      9  C   UNL     1      32.050  -7.747 -21.159  0.00  0.00    +0.100 C 
ATOM     10  H   UNL     1      30.922 -10.800 -18.776  0.00  0.00    +0.154 HD
ENDROOT
BRANCH   6  11
ATOM     11  C   UNL     1      33.234  -7.179 -23.242  0.00  0.00    +0.001 C 
ATOM     12  C   UNL     1      32.791  -5.319 -24.747  0.00  0.00    +0.000 C 
ATOM     13  C   UNL     1      32.344  -6.270 -23.815  0.00  0.00    +0.000 C 
ATOM     14  C   UNL     1      34.161  -5.291 -25.103  0.00  0.00    +0.000 C 
ATOM     15  C   UNL     1      34.580  -7.151 -23.592  0.00  0.00    +0.000 C 
ATOM     16  C   UNL     1      35.042  -6.214 -24.517  0.00  0.00    +0.000 C 
ATOM     17  C   UNL     1      31.909  -4.396 -25.334  0.00  0.00    +0.000 C 
ATOM     18  C   UNL     1      34.607  -4.341 -26.036  0.00  0.00    +0.000 C 
ATOM     19  C   UNL     1      32.372  -3.460 -26.258  0.00  0.00    +0.000 C 
ATOM     20  C   UNL     1      33.718  -3.431 -26.609  0.00  0.00    +0.000 C 
ENDBRANCH   6  11
BRANCH   4  21
ATOM     21  C   UNL     1      33.107 -12.841 -22.134  0.00  0.00    +0.001 C 
ATOM     22  C   UNL     1      33.923 -13.813 -21.553  0.00  0.00    -0.000 C 
ATOM     23  C   UNL     1      32.855 -12.873 -23.506  0.00  0.00    -0.000 C 
ATOM     24  C   UNL     1      34.234 -14.845 -23.715  0.00  0.00    -0.011 C 
ATOM     25  C   UNL     1      34.486 -14.814 -22.344  0.00  0.00    -0.004 C 
ATOM     26  C   UNL     1      33.418 -13.874 -24.296  0.00  0.00    -0.004 C 
BRANCH  24  27
ATOM     27  C   UNL     1      34.835 -15.918 -24.559  0.00  0.00    +0.136 C 
BRANCH  27  29
ATOM     28  O   UNL     1      34.855 -18.038 -23.361  0.00  0.00    -0.250 OA
ATOM     29  C   UNL     1      34.349 -17.309 -24.204  0.00  0.00    +0.318 C 
BRANCH  29  30
ATOM     30  O   UNL     1      33.265 -17.671 -24.940  0.00  0.00    -0.480 OA
ATOM     31  H   UNL     1      32.986 -17.136 -25.657  0.00  0.00    +0.295 HD
ENDBRANCH  29  30
ENDBRANCH  27  29
ENDBRANCH  24  27
ENDBRANCH   4  21
TORSDOF 5
ENDMDL
MODEL 9
REMARK VINA RESULT:     -10.1     12.982     16.423
REMARK  Name = 11952989
REMARK  5 active torsions:
REMARK  status: ('A' for Active; 'I' for Inactive)
REMARK    1  A    between atoms: C_4  and  C_21
REMARK    2  A    between atoms: C_6  and  C_11
REMARK    3  A    between atoms: C_24  and  C_27
REMARK    4  A    between atoms: C_27  and  C_29
REMARK    5  A    between atoms: C_29  and  O_30
REMARK                            x       y       z     vdW  Elec       q    Type
REMARK                         _______ _______ _______ _____ _____    ______ ____
ROOT
ATOM      1  N   UNL     1      31.810  -8.020 -19.770  0.00  0.00    -0.297 N 
ATOM      2  N   UNL     1      32.085  -5.889 -20.859  0.00  0.00    -0.229 NA
ATOM      3  C   UNL     1      32.524  -8.073 -21.884  0.00  0.00    +0.033 C 
ATOM      4  C   UNL     1      32.418  -9.405 -21.402  0.00  0.00    +0.017 C 
ATOM      5  C   UNL     1      32.137  -7.234 -20.843  0.00  0.00    +0.132 C 
ATOM      6  C   UNL     1      32.869  -6.078 -23.164  0.00  0.00    +0.019 C 
ATOM      7  C   UNL     1      32.905  -7.469 -23.094  0.00  0.00    +0.004 C 
ATOM      8  C   UNL     1      31.976  -9.340 -20.098  0.00  0.00    +0.063 C 
ATOM      9  C   UNL     1      32.462  -5.361 -22.047  0.00  0.00    +0.100 C 
ATOM     10  H   UNL     1      31.501  -7.687 -18.895  0.00  0.00    +0.154 HD
ENDROOT
BRANCH   6  11
ATOM     11  C   UNL     1      33.249  -5.394 -24.380  0.00  0.00    +0.001 C 
ATOM     12  C   UNL     1      34.981  -4.655 -25.921  0.00  0.00    +0.000 C 
ATOM     13  C   UNL     1      34.594  -5.316 -24.744  0.00  0.00    +0.000 C 
ATOM     14  C   UNL     1      33.989  -4.065 -26.741  0.00  0.00    +0.000 C 
ATOM     15  C   UNL     1      32.274  -4.814 -25.186  0.00  0.00    +0.000 C 
ATOM     16  C   UNL     1      32.640  -4.154 -26.359  0.00  0.00    +0.000 C 
ATOM     17  C   UNL     1      36.330  -4.566 -26.303  0.00  0.00    +0.000 C 
ATOM     18  C   UNL     1      34.376  -3.404 -27.919  0.00  0.00    +0.000 C 
ATOM     19  C   UNL     1      36.694  -3.905 -27.477  0.00  0.00    +0.000 C 
ATOM     20  C   UNL     1      35.720  -3.325 -28.283  0.00  0.00    +0.000 C 
ENDBRANCH   6  11
BRANCH   4  21
ATOM     21  C   UNL     1      32.694 -10.648 -22.060  0.00  0.00    +0.001 C 
ATOM     22  C   UNL     1      33.547 -10.680 -23.164  0.00  0.00    -0.000 C 
ATOM     23  C   UNL     1      32.111 -11.829 -21.597  0.00  0.00    -0.000 C 
ATOM     24  C   UNL     1      33.232 -13.069 -23.340  0.00  0.00    -0.011 C 
ATOM     25  C   UNL     1      33.815 -11.890 -23.804  0.00  0.00    -0.004 C 
ATOM     26  C   UNL     1      32.379 -13.039 -22.236  0.00  0.00    -0.004 C 
BRANCH  24  27
ATOM     27  C   UNL     1      33.522 -14.363 -24.023  0.00  0.00    +0.136 C 
BRANCH  27  29
ATOM     28  O   UNL     1      34.994 -15.047 -22.208  0.00  0.00    -0.250 OA
ATOM     29  C   UNL     1      34.643 -15.151 -23.376  0.00  0.00    +0.318 C 
BRANCH  29  30
ATOM     30  O   UNL     1      35.233 -16.007 -24.252  0.00  0.00    -0.480 OA
ATOM     31  H   UNL     1      35.764 -15.672 -24.948  0.00  0.00    +0.295 HD
ENDBRANCH  29  30
ENDBRANCH  27  29
ENDBRANCH  24  27
ENDBRANCH   4  21
TORSDOF 5
ENDMDL
