MODEL 1
REMARK VINA RESULT:     -11.6      0.000      0.000
REMARK  Name = 5326869
REMARK  6 active torsions:
REMARK  status: ('A' for Active; 'I' for Inactive)
REMARK    1  A    between atoms: N_2  and  C_11
REMARK    2  A    between atoms: C_3  and  C_25
REMARK    3  A    between atoms: N_5  and  C_14
REMARK    4  A    between atoms: C_14  and  C_15
REMARK    5  A    between atoms: C_15  and  C_17
REMARK    6  A    between atoms: C_23  and  N_30
REMARK                            x       y       z     vdW  Elec       q    Type
REMARK                         _______ _______ _______ _____ _____    ______ ____
ROOT
ATOM      1  O   UNL     1      36.797 -18.638 -20.156  0.00  0.00    -0.270 OA
ATOM      2  N   UNL     1      35.238 -20.397 -20.104  0.00  0.00    -0.280 N 
ATOM      3  C   UNL     1      35.856 -19.258 -20.638  0.00  0.00    +0.250 C 
ATOM      4  H   UNL     1      34.491 -20.767 -20.628  0.00  0.00    +0.155 HD
ENDROOT
BRANCH   2  11
ATOM      5  N   UNL     1      34.147 -23.204 -16.214  0.00  0.00    -0.286 N 
ATOM      6  C   UNL     1      34.908 -22.441 -17.071  0.00  0.00    +0.053 C 
ATOM      7  C   UNL     1      36.204 -22.413 -16.553  0.00  0.00    +0.015 C 
ATOM      8  C   UNL     1      34.916 -23.658 -15.176  0.00  0.00    +0.065 C 
ATOM      9  C   UNL     1      34.550 -21.779 -18.251  0.00  0.00    +0.029 C 
ATOM     10  C   UNL     1      36.195 -23.185 -15.358  0.00  0.00    +0.017 C 
ATOM     11  C   UNL     1      35.551 -21.069 -18.922  0.00  0.00    +0.052 C 
ATOM     12  C   UNL     1      37.196 -21.691 -17.248  0.00  0.00    +0.003 C 
ATOM     13  C   UNL     1      36.853 -21.025 -18.430  0.00  0.00    +0.015 C 
BRANCH   5  14
ATOM     14  C   UNL     1      32.738 -23.495 -16.373  0.00  0.00    +0.100 C 
BRANCH  14  15
ATOM     15  C   UNL     1      31.866 -22.929 -15.248  0.00  0.00    +0.048 C 
BRANCH  15  17
ATOM     16  N   UNL     1      27.767 -24.155 -15.493  0.00  0.00    -0.242 NA
ATOM     17  C   UNL     1      30.424 -23.360 -15.333  0.00  0.00    -0.017 C 
ATOM     18  C   UNL     1      29.543 -22.640 -16.119  0.00  0.00    +0.016 C 
ATOM     19  C   UNL     1      30.001 -24.470 -14.625  0.00  0.00    +0.016 C 
ATOM     20  C   UNL     1      28.229 -23.077 -16.165  0.00  0.00    +0.099 C 
ATOM     21  C   UNL     1      28.667 -24.824 -14.738  0.00  0.00    +0.099 C 
ENDBRANCH  15  17
ENDBRANCH  14  15
ENDBRANCH   5  14
ENDBRANCH   2  11
BRANCH   3  25
ATOM     22  F   UNL     1      34.164 -20.041 -25.100  0.00  0.00    -0.204 F 
ATOM     23  C   UNL     1      34.485 -16.933 -23.237  0.00  0.00    +0.050 C 
ATOM     24  C   UNL     1      35.033 -17.404 -22.043  0.00  0.00    +0.019 C 
ATOM     25  C   UNL     1      35.275 -18.755 -21.910  0.00  0.00    +0.057 C 
ATOM     26  C   UNL     1      34.192 -17.823 -24.269  0.00  0.00    +0.044 C 
ATOM     27  C   UNL     1      34.994 -19.657 -22.915  0.00  0.00    +0.034 C 
ATOM     28  C   UNL     1      34.446 -19.186 -24.109  0.00  0.00    +0.142 C 
BRANCH  23  30
ATOM     29  O   UNL     1      33.973 -12.801 -23.827  0.00  0.00    -0.350 OA
ATOM     30  N   UNL     1      34.230 -15.567 -23.398  0.00  0.00    -0.303 N 
ATOM     31  C   UNL     1      34.676 -14.614 -22.375  0.00  0.00    +0.123 C 
ATOM     32  C   UNL     1      34.158 -15.031 -24.764  0.00  0.00    +0.123 C 
ATOM     33  C   UNL     1      33.883 -13.317 -22.499  0.00  0.00    +0.164 C 
ATOM     34  C   UNL     1      33.393 -13.713 -24.761  0.00  0.00    +0.164 C 
ENDBRANCH  23  30
ENDBRANCH   3  25
TORSDOF 6
ENDMDL
MODEL 2
REMARK VINA RESULT:     -11.4      3.111     10.304
REMARK  Name = 5326869
REMARK  6 active torsions:
REMARK  status: ('A' for Active; 'I' for Inactive)
REMARK    1  A    between atoms: N_2  and  C_11
REMARK    2  A    between atoms: C_3  and  C_25
REMARK    3  A    between atoms: N_5  and  C_14
REMARK    4  A    between atoms: C_14  and  C_15
REMARK    5  A    between atoms: C_15  and  C_17
REMARK    6  A    between atoms: C_23  and  N_30
REMARK                            x       y       z     vdW  Elec       q    Type
REMARK                         _______ _______ _______ _____ _____    ______ ____
ROOT
ATOM      1  O   UNL     1      32.800 -21.010 -20.093  0.00  0.00    -0.270 OA
ATOM      2  N   UNL     1      34.936 -20.028 -20.124  0.00  0.00    -0.280 N 
ATOM      3  C   UNL     1      33.923 -20.859 -19.626  0.00  0.00    +0.250 C 
ATOM      4  H   UNL     1      35.781 -20.028 -19.620  0.00  0.00    +0.155 HD
ENDROOT
BRANCH   2  11
ATOM      5  N   UNL     1      34.839 -15.648 -22.363  0.00  0.00    -0.286 N 
ATOM      6  C   UNL     1      34.849 -17.018 -22.228  0.00  0.00    +0.053 C 
ATOM      7  C   UNL     1      34.808 -17.558 -23.514  0.00  0.00    +0.015 C 
ATOM      8  C   UNL     1      34.792 -15.305 -23.688  0.00  0.00    +0.065 C 
ATOM      9  C   UNL     1      34.892 -17.812 -21.075  0.00  0.00    +0.029 C 
ATOM     10  C   UNL     1      34.772 -16.466 -24.426  0.00  0.00    +0.017 C 
ATOM     11  C   UNL     1      34.892 -19.199 -21.246  0.00  0.00    +0.052 C 
ATOM     12  C   UNL     1      34.810 -18.960 -23.661  0.00  0.00    +0.003 C 
ATOM     13  C   UNL     1      34.852 -19.766 -22.518  0.00  0.00    +0.015 C 
BRANCH   5  14
ATOM     14  C   UNL     1      34.873 -14.695 -21.275  0.00  0.00    +0.100 C 
BRANCH  14  15
ATOM     15  C   UNL     1      33.495 -14.412 -20.667  0.00  0.00    +0.048 C 
BRANCH  15  17
ATOM     16  N   UNL     1      31.857 -10.632 -21.847  0.00  0.00    -0.242 NA
ATOM     17  C   UNL     1      32.919 -13.081 -21.082  0.00  0.00    -0.017 C 
ATOM     18  C   UNL     1      33.289 -12.527 -22.293  0.00  0.00    +0.016 C 
ATOM     19  C   UNL     1      32.028 -12.434 -20.246  0.00  0.00    +0.016 C 
ATOM     20  C   UNL     1      32.731 -11.304 -22.629  0.00  0.00    +0.099 C 
ATOM     21  C   UNL     1      31.527 -11.215 -20.673  0.00  0.00    +0.099 C 
ENDBRANCH  15  17
ENDBRANCH  14  15
ENDBRANCH   5  14
ENDBRANCH   2  11
BRANCH   3  25
ATOM     22  F   UNL     1      37.190 -22.550 -16.487  0.00  0.00    -0.204 F 
ATOM     23  C   UNL     1      33.564 -22.850 -16.472  0.00  0.00    +0.050 C 
ATOM     24  C   UNL     1      33.244 -22.151 -17.637  0.00  0.00    +0.019 C 
ATOM     25  C   UNL     1      34.263 -21.604 -18.387  0.00  0.00    +0.057 C 
ATOM     26  C   UNL     1      34.896 -22.984 -16.085  0.00  0.00    +0.044 C 
ATOM     27  C   UNL     1      35.589 -21.723 -18.025  0.00  0.00    +0.034 C 
ATOM     28  C   UNL     1      35.910 -22.422 -16.861  0.00  0.00    +0.142 C 
BRANCH  23  30
ATOM     29  O   UNL     1      30.447 -24.292 -14.046  0.00  0.00    -0.350 OA
ATOM     30  N   UNL     1      32.548 -23.414 -15.694  0.00  0.00    -0.303 N 
ATOM     31  C   UNL     1      32.793 -23.719 -14.280  0.00  0.00    +0.123 C 
ATOM     32  C   UNL     1      31.155 -23.093 -16.033  0.00  0.00    +0.123 C 
ATOM     33  C   UNL     1      31.776 -24.744 -13.790  0.00  0.00    +0.164 C 
ATOM     34  C   UNL     1      30.226 -24.151 -15.450  0.00  0.00    +0.164 C 
ENDBRANCH  23  30
ENDBRANCH   3  25
TORSDOF 6
ENDMDL
MODEL 3
REMARK VINA RESULT:     -11.2      3.065     10.396
REMARK  Name = 5326869
REMARK  6 active torsions:
REMARK  status: ('A' for Active; 'I' for Inactive)
REMARK    1  A    between atoms: N_2  and  C_11
REMARK    2  A    between atoms: C_3  and  C_25
REMARK    3  A    between atoms: N_5  and  C_14
REMARK    4  A    between atoms: C_14  and  C_15
REMARK    5  A    between atoms: C_15  and  C_17
REMARK    6  A    between atoms: C_23  and  N_30
REMARK                            x       y       z     vdW  Elec       q    Type
REMARK                         _______ _______ _______ _____ _____    ______ ____
ROOT
ATOM      1  O   UNL     1      33.925 -21.547 -20.052  0.00  0.00    -0.270 OA
ATOM      2  N   UNL     1      35.556 -19.859 -19.917  0.00  0.00    -0.280 N 
ATOM      3  C   UNL     1      34.868 -21.002 -19.489  0.00  0.00    +0.250 C 
ATOM      4  H   UNL     1      36.292 -19.556 -19.338  0.00  0.00    +0.155 HD
ENDROOT
BRANCH   2  11
ATOM      5  N   UNL     1      34.825 -15.628 -22.319  0.00  0.00    -0.286 N 
ATOM      6  C   UNL     1      34.979 -16.982 -22.127  0.00  0.00    +0.053 C 
ATOM      7  C   UNL     1      34.865 -17.590 -23.379  0.00  0.00    +0.015 C 
ATOM      8  C   UNL     1      34.617 -15.360 -23.645  0.00  0.00    +0.065 C 
ATOM      9  C   UNL     1      35.209 -17.708 -20.952  0.00  0.00    +0.029 C 
ATOM     10  C   UNL     1      34.637 -16.554 -24.327  0.00  0.00    +0.017 C 
ATOM     11  C   UNL     1      35.325 -19.097 -21.063  0.00  0.00    +0.052 C 
ATOM     12  C   UNL     1      34.986 -18.992 -23.465  0.00  0.00    +0.003 C 
ATOM     13  C   UNL     1      35.216 -19.730 -22.300  0.00  0.00    +0.015 C 
BRANCH   5  14
ATOM     14  C   UNL     1      34.873 -14.620 -21.281  0.00  0.00    +0.100 C 
BRANCH  14  15
ATOM     15  C   UNL     1      33.506 -14.314 -20.662  0.00  0.00    +0.048 C 
BRANCH  15  17
ATOM     16  N   UNL     1      31.829 -10.601 -21.993  0.00  0.00    -0.242 NA
ATOM     17  C   UNL     1      32.916 -13.007 -21.130  0.00  0.00    -0.017 C 
ATOM     18  C   UNL     1      33.370 -12.437 -22.305  0.00  0.00    +0.016 C 
ATOM     19  C   UNL     1      31.929 -12.397 -20.378  0.00  0.00    +0.016 C 
ATOM     20  C   UNL     1      32.796 -11.236 -22.691  0.00  0.00    +0.099 C 
ATOM     21  C   UNL     1      31.420 -11.199 -20.852  0.00  0.00    +0.099 C 
ENDBRANCH  15  17
ENDBRANCH  14  15
ENDBRANCH   5  14
ENDBRANCH   2  11
BRANCH   3  25
ATOM     22  F   UNL     1      38.409 -21.989 -16.347  0.00  0.00    -0.204 F 
ATOM     23  C   UNL     1      34.848 -22.709 -16.153  0.00  0.00    +0.050 C 
ATOM     24  C   UNL     1      34.410 -22.168 -17.363  0.00  0.00    +0.019 C 
ATOM     25  C   UNL     1      35.333 -21.580 -18.202  0.00  0.00    +0.057 C 
ATOM     26  C   UNL     1      36.198 -22.649 -15.811  0.00  0.00    +0.044 C 
ATOM     27  C   UNL     1      36.675 -21.508 -17.886  0.00  0.00    +0.034 C 
ATOM     28  C   UNL     1      37.112 -22.048 -16.677  0.00  0.00    +0.142 C 
BRANCH  23  30
ATOM     29  O   UNL     1      32.146 -24.760 -13.669  0.00  0.00    -0.350 OA
ATOM     30  N   UNL     1      33.932 -23.311 -15.285  0.00  0.00    -0.303 N 
ATOM     31  C   UNL     1      32.541 -23.507 -15.709  0.00  0.00    +0.123 C 
ATOM     32  C   UNL     1      34.436 -24.297 -14.319  0.00  0.00    +0.123 C 
ATOM     33  C   UNL     1      31.651 -23.699 -14.485  0.00  0.00    +0.164 C 
ATOM     34  C   UNL     1      33.446 -24.446 -13.170  0.00  0.00    +0.164 C 
ENDBRANCH  23  30
ENDBRANCH   3  25
TORSDOF 6
ENDMDL
MODEL 4
REMARK VINA RESULT:     -10.7      3.426     10.345
REMARK  Name = 5326869
REMARK  6 active torsions:
REMARK  status: ('A' for Active; 'I' for Inactive)
REMARK    1  A    between atoms: N_2  and  C_11
REMARK    2  A    between atoms: C_3  and  C_25
REMARK    3  A    between atoms: N_5  and  C_14
REMARK    4  A    between atoms: C_14  and  C_15
REMARK    5  A    between atoms: C_15  and  C_17
REMARK    6  A    between atoms: C_23  and  N_30
REMARK                            x       y       z     vdW  Elec       q    Type
REMARK                         _______ _______ _______ _____ _____    ______ ____
ROOT
ATOM      1  O   UNL     1      36.475 -21.044 -19.918  0.00  0.00    -0.270 OA
ATOM      2  N   UNL     1      34.368 -20.024 -20.126  0.00  0.00    -0.280 N 
ATOM      3  C   UNL     1      35.319 -20.874 -19.547  0.00  0.00    +0.250 C 
ATOM      4  H   UNL     1      33.482 -20.011 -19.696  0.00  0.00    +0.155 HD
ENDROOT
BRANCH   2  11
ATOM      5  N   UNL     1      34.882 -15.648 -22.315  0.00  0.00    -0.286 N 
ATOM      6  C   UNL     1      34.767 -17.015 -22.194  0.00  0.00    +0.053 C 
ATOM      7  C   UNL     1      34.832 -17.548 -23.482  0.00  0.00    +0.015 C 
ATOM      8  C   UNL     1      35.017 -15.301 -23.633  0.00  0.00    +0.065 C 
ATOM      9  C   UNL     1      34.612 -17.810 -21.053  0.00  0.00    +0.029 C 
ATOM     10  C   UNL     1      34.990 -16.456 -24.380  0.00  0.00    +0.017 C 
ATOM     11  C   UNL     1      34.521 -19.193 -21.237  0.00  0.00    +0.052 C 
ATOM     12  C   UNL     1      34.738 -18.945 -23.643  0.00  0.00    +0.003 C 
ATOM     13  C   UNL     1      34.583 -19.754 -22.511  0.00  0.00    +0.015 C 
BRANCH   5  14
ATOM     14  C   UNL     1      34.866 -14.702 -21.220  0.00  0.00    +0.100 C 
BRANCH  14  15
ATOM     15  C   UNL     1      33.462 -14.420 -20.677  0.00  0.00    +0.048 C 
BRANCH  15  17
ATOM     16  N   UNL     1      31.881 -10.639 -21.931  0.00  0.00    -0.242 NA
ATOM     17  C   UNL     1      32.905 -13.090 -21.119  0.00  0.00    -0.017 C 
ATOM     18  C   UNL     1      32.005 -12.425 -20.307  0.00  0.00    +0.016 C 
ATOM     19  C   UNL     1      33.303 -12.553 -22.329  0.00  0.00    +0.016 C 
ATOM     20  C   UNL     1      31.523 -11.206 -20.758  0.00  0.00    +0.099 C 
ATOM     21  C   UNL     1      32.764 -11.329 -22.689  0.00  0.00    +0.099 C 
ENDBRANCH  15  17
ENDBRANCH  14  15
ENDBRANCH   5  14
ENDBRANCH   2  11
BRANCH   3  25
ATOM     22  F   UNL     1      31.767 -23.060 -17.100  0.00  0.00    -0.204 F 
ATOM     23  C   UNL     1      35.309 -22.774 -16.318  0.00  0.00    +0.050 C 
ATOM     24  C   UNL     1      35.755 -22.036 -17.414  0.00  0.00    +0.019 C 
ATOM     25  C   UNL     1      34.844 -21.659 -18.378  0.00  0.00    +0.057 C 
ATOM     26  C   UNL     1      33.962 -23.120 -16.212  0.00  0.00    +0.044 C 
ATOM     27  C   UNL     1      33.507 -21.988 -18.297  0.00  0.00    +0.034 C 
ATOM     28  C   UNL     1      33.060 -22.727 -17.201  0.00  0.00    +0.142 C 
BRANCH  23  30
ATOM     29  O   UNL     1      38.009 -23.703 -13.231  0.00  0.00    -0.350 OA
ATOM     30  N   UNL     1      36.212 -23.168 -15.326  0.00  0.00    -0.303 N 
ATOM     31  C   UNL     1      37.645 -22.898 -15.491  0.00  0.00    +0.123 C 
ATOM     32  C   UNL     1      35.740 -23.212 -13.935  0.00  0.00    +0.123 C 
ATOM     33  C   UNL     1      38.451 -23.821 -14.583  0.00  0.00    +0.164 C 
ATOM     34  C   UNL     1      36.648 -24.117 -13.110  0.00  0.00    +0.164 C 
ENDBRANCH  23  30
ENDBRANCH   3  25
TORSDOF 6
ENDMDL
MODEL 5
REMARK VINA RESULT:     -10.6      5.081     11.068
REMARK  Name = 5326869
REMARK  6 active torsions:
REMARK  status: ('A' for Active; 'I' for Inactive)
REMARK    1  A    between atoms: N_2  and  C_11
REMARK    2  A    between atoms: C_3  and  C_25
REMARK    3  A    between atoms: N_5  and  C_14
REMARK    4  A    between atoms: C_14  and  C_15
REMARK    5  A    between atoms: C_15  and  C_17
REMARK    6  A    between atoms: C_23  and  N_30
REMARK                            x       y       z     vdW  Elec       q    Type
REMARK                         _______ _______ _______ _____ _____    ______ ____
ROOT
ATOM      1  O   UNL     1      35.472 -24.204 -15.612  0.00  0.00    -0.270 OA
ATOM      2  N   UNL     1      34.381 -24.699 -13.589  0.00  0.00    -0.280 N 
ATOM      3  C   UNL     1      35.485 -24.575 -14.444  0.00  0.00    +0.250 C 
ATOM      4  H   UNL     1      34.575 -25.014 -12.677  0.00  0.00    +0.155 HD
ENDROOT
BRANCH   2  11
ATOM      5  N   UNL     1      30.756 -22.722 -16.265  0.00  0.00    -0.286 N 
ATOM      6  C   UNL     1      31.361 -23.428 -15.248  0.00  0.00    +0.053 C 
ATOM      7  C   UNL     1      30.345 -23.911 -14.423  0.00  0.00    +0.015 C 
ATOM      8  C   UNL     1      29.396 -22.744 -16.109  0.00  0.00    +0.065 C 
ATOM      9  C   UNL     1      32.717 -23.670 -15.000  0.00  0.00    +0.029 C 
ATOM     10  C   UNL     1      29.110 -23.473 -14.978  0.00  0.00    +0.017 C 
ATOM     11  C   UNL     1      33.041 -24.432 -13.873  0.00  0.00    +0.052 C 
ATOM     12  C   UNL     1      30.696 -24.677 -13.293  0.00  0.00    +0.003 C 
ATOM     13  C   UNL     1      32.048 -24.928 -13.032  0.00  0.00    +0.015 C 
BRANCH   5  14
ATOM     14  C   UNL     1      31.443 -22.051 -17.347  0.00  0.00    +0.100 C 
BRANCH  14  15
ATOM     15  C   UNL     1      32.796 -22.679 -17.695  0.00  0.00    +0.048 C 
BRANCH  15  17
ATOM     16  N   UNL     1      35.186 -20.242 -20.286  0.00  0.00    -0.242 NA
ATOM     17  C   UNL     1      33.637 -21.822 -18.608  0.00  0.00    -0.017 C 
ATOM     18  C   UNL     1      33.019 -20.976 -19.509  0.00  0.00    +0.016 C 
ATOM     19  C   UNL     1      35.016 -21.894 -18.530  0.00  0.00    +0.016 C 
ATOM     20  C   UNL     1      33.835 -20.209 -20.324  0.00  0.00    +0.099 C 
ATOM     21  C   UNL     1      35.743 -21.086 -19.388  0.00  0.00    +0.099 C 
ENDBRANCH  15  17
ENDBRANCH  14  15
ENDBRANCH   5  14
ENDBRANCH   2  11
BRANCH   3  25
ATOM     22  F   UNL     1      39.057 -23.858 -11.264  0.00  0.00    -0.204 F 
ATOM     23  C   UNL     1      38.674 -26.435 -13.803  0.00  0.00    +0.050 C 
ATOM     24  C   UNL     1      37.447 -26.069 -14.358  0.00  0.00    +0.019 C 
ATOM     25  C   UNL     1      36.793 -24.965 -13.855  0.00  0.00    +0.057 C 
ATOM     26  C   UNL     1      39.217 -25.688 -12.759  0.00  0.00    +0.044 C 
ATOM     27  C   UNL     1      37.309 -24.209 -12.823  0.00  0.00    +0.034 C 
ATOM     28  C   UNL     1      38.535 -24.575 -12.268  0.00  0.00    +0.142 C 
BRANCH  23  30
ATOM     29  O   UNL     1      40.529 -29.821 -15.470  0.00  0.00    -0.350 OA
ATOM     30  N   UNL     1      39.358 -27.552 -14.295  0.00  0.00    -0.303 N 
ATOM     31  C   UNL     1      38.986 -28.897 -13.841  0.00  0.00    +0.123 C 
ATOM     32  C   UNL     1      39.915 -27.481 -15.653  0.00  0.00    +0.123 C 
ATOM     33  C   UNL     1      40.137 -29.863 -14.098  0.00  0.00    +0.164 C 
ATOM     34  C   UNL     1      41.016 -28.523 -15.813  0.00  0.00    +0.164 C 
ENDBRANCH  23  30
ENDBRANCH   3  25
TORSDOF 6
ENDMDL
MODEL 6
REMARK VINA RESULT:     -10.4      7.960     12.831
REMARK  Name = 5326869
REMARK  6 active torsions:
REMARK  status: ('A' for Active; 'I' for Inactive)
REMARK    1  A    between atoms: N_2  and  C_11
REMARK    2  A    between atoms: C_3  and  C_25
REMARK    3  A    between atoms: N_5  and  C_14
REMARK    4  A    between atoms: C_14  and  C_15
REMARK    5  A    between atoms: C_15  and  C_17
REMARK    6  A    between atoms: C_23  and  N_30
REMARK                            x       y       z     vdW  Elec       q    Type
REMARK                         _______ _______ _______ _____ _____    ______ ____
ROOT
ATOM      1  O   UNL     1      34.857  -7.169 -22.566  0.00  0.00    -0.270 OA
ATOM      2  N   UNL     1      32.648  -7.735 -23.138  0.00  0.00    -0.280 N 
ATOM      3  C   UNL     1      33.810  -6.953 -23.166  0.00  0.00    +0.250 C 
ATOM      4  H   UNL     1      31.895  -7.410 -23.683  0.00  0.00    +0.155 HD
ENDROOT
BRANCH   2  11
ATOM      5  N   UNL     1      33.190 -12.561 -22.352  0.00  0.00    -0.286 N 
ATOM      6  C   UNL     1      32.759 -11.270 -22.147  0.00  0.00    +0.053 C 
ATOM      7  C   UNL     1      31.967 -11.279 -20.997  0.00  0.00    +0.015 C 
ATOM      8  C   UNL     1      32.700 -13.383 -21.373  0.00  0.00    +0.065 C 
ATOM      9  C   UNL     1      33.006 -10.107 -22.886  0.00  0.00    +0.029 C 
ATOM     10  C   UNL     1      31.940 -12.619 -20.519  0.00  0.00    +0.017 C 
ATOM     11  C   UNL     1      32.426  -8.918 -22.432  0.00  0.00    +0.052 C 
ATOM     12  C   UNL     1      31.394 -10.068 -20.559  0.00  0.00    +0.003 C 
ATOM     13  C   UNL     1      31.632  -8.897 -21.287  0.00  0.00    +0.015 C 
BRANCH   5  14
ATOM     14  C   UNL     1      34.039 -13.002 -23.438  0.00  0.00    +0.100 C 
BRANCH  14  15
ATOM     15  C   UNL     1      33.480 -14.207 -24.200  0.00  0.00    +0.048 C 
BRANCH  15  17
ATOM     16  N   UNL     1      35.245 -17.932 -23.028  0.00  0.00    -0.242 NA
ATOM     17  C   UNL     1      34.102 -15.518 -23.788  0.00  0.00    -0.017 C 
ATOM     18  C   UNL     1      34.901 -15.569 -22.661  0.00  0.00    +0.016 C 
ATOM     19  C   UNL     1      33.864 -16.652 -24.543  0.00  0.00    +0.016 C 
ATOM     20  C   UNL     1      35.448 -16.796 -22.325  0.00  0.00    +0.099 C 
ATOM     21  C   UNL     1      34.457 -17.830 -24.122  0.00  0.00    +0.099 C 
ENDBRANCH  15  17
ENDBRANCH  14  15
ENDBRANCH   5  14
ENDBRANCH   2  11
BRANCH   3  25
ATOM     22  F   UNL     1      31.891  -2.614 -24.100  0.00  0.00    -0.204 F 
ATOM     23  C   UNL     1      34.486  -4.449 -25.870  0.00  0.00    +0.050 C 
ATOM     24  C   UNL     1      34.560  -5.604 -25.092  0.00  0.00    +0.019 C 
ATOM     25  C   UNL     1      33.730  -5.723 -23.997  0.00  0.00    +0.057 C 
ATOM     26  C   UNL     1      33.585  -3.440 -25.535  0.00  0.00    +0.044 C 
ATOM     27  C   UNL     1      32.830  -4.739 -23.644  0.00  0.00    +0.034 C 
ATOM     28  C   UNL     1      32.756  -3.584 -24.422  0.00  0.00    +0.142 C 
BRANCH  23  30
ATOM     29  O   UNL     1      37.034  -3.753 -29.142  0.00  0.00    -0.350 OA
ATOM     30  N   UNL     1      35.316  -4.304 -26.986  0.00  0.00    -0.303 N 
ATOM     31  C   UNL     1      34.793  -3.695 -28.214  0.00  0.00    +0.123 C 
ATOM     32  C   UNL     1      36.756  -4.117 -26.760  0.00  0.00    +0.123 C 
ATOM     33  C   UNL     1      35.670  -4.087 -29.398  0.00  0.00    +0.164 C 
ATOM     34  C   UNL     1      37.528  -4.486 -28.021  0.00  0.00    +0.164 C 
ENDBRANCH  23  30
ENDBRANCH   3  25
TORSDOF 6
ENDMDL
MODEL 7
REMARK VINA RESULT:     -10.2      2.833      5.570
REMARK  Name = 5326869
REMARK  6 active torsions:
REMARK  status: ('A' for Active; 'I' for Inactive)
REMARK    1  A    between atoms: N_2  and  C_11
REMARK    2  A    between atoms: C_3  and  C_25
REMARK    3  A    between atoms: N_5  and  C_14
REMARK    4  A    between atoms: C_14  and  C_15
REMARK    5  A    between atoms: C_15  and  C_17
REMARK    6  A    between atoms: C_23  and  N_30
REMARK                            x       y       z     vdW  Elec       q    Type
REMARK                         _______ _______ _______ _____ _____    ______ ____
ROOT
ATOM      1  O   UNL     1      32.322 -22.022 -19.786  0.00  0.00    -0.270 OA
ATOM      2  N   UNL     1      33.383 -21.707 -17.712  0.00  0.00    -0.280 N 
ATOM      3  C   UNL     1      33.220 -21.553 -19.096  0.00  0.00    +0.250 C 
ATOM      4  H   UNL     1      34.166 -21.258 -17.318  0.00  0.00    +0.155 HD
ENDROOT
BRANCH   2  11
ATOM      5  N   UNL     1      32.612 -24.656 -13.851  0.00  0.00    -0.286 N 
ATOM      6  C   UNL     1      32.316 -23.856 -14.932  0.00  0.00    +0.053 C 
ATOM      7  C   UNL     1      30.926 -23.831 -15.056  0.00  0.00    +0.015 C 
ATOM      8  C   UNL     1      31.459 -25.136 -13.290  0.00  0.00    +0.065 C 
ATOM      9  C   UNL     1      33.166 -23.160 -15.800  0.00  0.00    +0.029 C 
ATOM     10  C   UNL     1      30.398 -24.642 -14.013  0.00  0.00    +0.017 C 
ATOM     11  C   UNL     1      32.573 -22.417 -16.825  0.00  0.00    +0.052 C 
ATOM     12  C   UNL     1      30.352 -23.073 -16.097  0.00  0.00    +0.003 C 
ATOM     13  C   UNL     1      31.188 -22.373 -16.973  0.00  0.00    +0.015 C 
BRANCH   5  14
ATOM     14  C   UNL     1      33.941 -24.956 -13.365  0.00  0.00    +0.100 C 
BRANCH  14  15
ATOM     15  C   UNL     1      34.508 -23.880 -12.433  0.00  0.00    +0.048 C 
BRANCH  15  17
ATOM     16  N   UNL     1      38.778 -24.005 -12.089  0.00  0.00    -0.242 NA
ATOM     17  C   UNL     1      36.011 -23.923 -12.313  0.00  0.00    -0.017 C 
ATOM     18  C   UNL     1      36.640 -23.150 -11.356  0.00  0.00    +0.016 C 
ATOM     19  C   UNL     1      36.739 -24.738 -13.160  0.00  0.00    +0.016 C 
ATOM     20  C   UNL     1      38.022 -23.225 -11.285  0.00  0.00    +0.099 C 
ATOM     21  C   UNL     1      38.116 -24.742 -13.008  0.00  0.00    +0.099 C 
ENDBRANCH  15  17
ENDBRANCH  14  15
ENDBRANCH   5  14
ENDBRANCH   2  11
BRANCH   3  25
ATOM     22  F   UNL     1      37.812 -20.088 -19.481  0.00  0.00    -0.204 F 
ATOM     23  C   UNL     1      34.914 -19.246 -21.513  0.00  0.00    +0.050 C 
ATOM     24  C   UNL     1      33.925 -19.993 -20.873  0.00  0.00    +0.019 C 
ATOM     25  C   UNL     1      34.272 -20.755 -19.777  0.00  0.00    +0.057 C 
ATOM     26  C   UNL     1      36.226 -19.278 -21.043  0.00  0.00    +0.044 C 
ATOM     27  C   UNL     1      35.562 -20.804 -19.292  0.00  0.00    +0.034 C 
ATOM     28  C   UNL     1      36.551 -20.056 -19.932  0.00  0.00    +0.142 C 
BRANCH  23  30
ATOM     29  O   UNL     1      34.151 -17.011 -24.992  0.00  0.00    -0.350 OA
ATOM     30  N   UNL     1      34.589 -18.465 -22.626  0.00  0.00    -0.303 N 
ATOM     31  C   UNL     1      35.266 -17.181 -22.844  0.00  0.00    +0.123 C 
ATOM     32  C   UNL     1      34.138 -19.149 -23.846  0.00  0.00    +0.123 C 
ATOM     33  C   UNL     1      34.434 -16.312 -23.781  0.00  0.00    +0.164 C 
ATOM     34  C   UNL     1      33.367 -18.175 -24.729  0.00  0.00    +0.164 C 
ENDBRANCH  23  30
ENDBRANCH   3  25
TORSDOF 6
ENDMDL
MODEL 8
REMARK VINA RESULT:     -10.0      5.179     13.318
REMARK  Name = 5326869
REMARK  6 active torsions:
REMARK  status: ('A' for Active; 'I' for Inactive)
REMARK    1  A    between atoms: N_2  and  C_11
REMARK    2  A    between atoms: C_3  and  C_25
REMARK    3  A    between atoms: N_5  and  C_14
REMARK    4  A    between atoms: C_14  and  C_15
REMARK    5  A    between atoms: C_15  and  C_17
REMARK    6  A    between atoms: C_23  and  N_30
REMARK                            x       y       z     vdW  Elec       q    Type
REMARK                         _______ _______ _______ _____ _____    ______ ____
ROOT
ATOM      1  O   UNL     1      34.545 -13.772 -20.324  0.00  0.00    -0.270 OA
ATOM      2  N   UNL     1      33.260 -13.236 -22.218  0.00  0.00    -0.280 N 
ATOM      3  C   UNL     1      34.101 -14.039 -21.435  0.00  0.00    +0.250 C 
ATOM      4  H   UNL     1      32.999 -13.609 -23.091  0.00  0.00    +0.155 HD
ENDROOT
BRANCH   2  11
ATOM      5  N   UNL     1      33.094  -8.336 -22.627  0.00  0.00    -0.286 N 
ATOM      6  C   UNL     1      32.757  -9.598 -22.190  0.00  0.00    +0.053 C 
ATOM      7  C   UNL     1      31.704  -9.452 -21.286  0.00  0.00    +0.015 C 
ATOM      8  C   UNL     1      32.290  -7.401 -22.031  0.00  0.00    +0.065 C 
ATOM      9  C   UNL     1      33.302 -10.844 -22.524  0.00  0.00    +0.029 C 
ATOM     10  C   UNL     1      31.419  -8.061 -21.196  0.00  0.00    +0.017 C 
ATOM     11  C   UNL     1      32.749 -11.974 -21.913  0.00  0.00    +0.052 C 
ATOM     12  C   UNL     1      31.164 -10.606 -20.684  0.00  0.00    +0.003 C 
ATOM     13  C   UNL     1      31.697 -11.859 -21.007  0.00  0.00    +0.015 C 
BRANCH   5  14
ATOM     14  C   UNL     1      34.140  -8.026 -23.578  0.00  0.00    +0.100 C 
BRANCH  14  15
ATOM     15  C   UNL     1      34.850  -6.699 -23.294  0.00  0.00    +0.048 C 
BRANCH  15  17
ATOM     16  N   UNL     1      33.540  -3.494 -25.819  0.00  0.00    -0.242 NA
ATOM     17  C   UNL     1      34.390  -5.571 -24.182  0.00  0.00    -0.017 C 
ATOM     18  C   UNL     1      35.073  -5.304 -25.353  0.00  0.00    +0.016 C 
ATOM     19  C   UNL     1      33.289  -4.819 -23.813  0.00  0.00    +0.016 C 
ATOM     20  C   UNL     1      34.610  -4.257 -26.135  0.00  0.00    +0.099 C 
ATOM     21  C   UNL     1      32.906  -3.795 -24.663  0.00  0.00    +0.099 C 
ENDBRANCH  15  17
ENDBRANCH  14  15
ENDBRANCH   5  14
ENDBRANCH   2  11
BRANCH   3  25
ATOM     22  F   UNL     1      34.921 -16.778 -25.334  0.00  0.00    -0.204 F 
ATOM     23  C   UNL     1      35.221 -17.595 -21.802  0.00  0.00    +0.050 C 
ATOM     24  C   UNL     1      34.844 -16.382 -21.225  0.00  0.00    +0.019 C 
ATOM     25  C   UNL     1      34.501 -15.331 -22.049  0.00  0.00    +0.057 C 
ATOM     26  C   UNL     1      35.247 -17.728 -23.189  0.00  0.00    +0.044 C 
ATOM     27  C   UNL     1      34.518 -15.437 -23.424  0.00  0.00    +0.034 C 
ATOM     28  C   UNL     1      34.895 -16.650 -24.001  0.00  0.00    +0.142 C 
BRANCH  23  30
ATOM     29  O   UNL     1      36.404 -20.961 -19.577  0.00  0.00    -0.350 OA
ATOM     30  N   UNL     1      35.574 -18.676 -20.989  0.00  0.00    -0.303 N 
ATOM     31  C   UNL     1      34.732 -19.878 -20.962  0.00  0.00    +0.123 C 
ATOM     32  C   UNL     1      37.000 -18.906 -20.719  0.00  0.00    +0.123 C 
ATOM     33  C   UNL     1      35.011 -20.674 -19.691  0.00  0.00    +0.164 C 
ATOM     34  C   UNL     1      37.158 -19.754 -19.462  0.00  0.00    +0.164 C 
ENDBRANCH  23  30
ENDBRANCH   3  25
TORSDOF 6
ENDMDL
MODEL 9
REMARK VINA RESULT:     -10.0      8.773     13.862
REMARK  Name = 5326869
REMARK  6 active torsions:
REMARK  status: ('A' for Active; 'I' for Inactive)
REMARK    1  A    between atoms: N_2  and  C_11
REMARK    2  A    between atoms: C_3  and  C_25
REMARK    3  A    between atoms: N_5  and  C_14
REMARK    4  A    between atoms: C_14  and  C_15
REMARK    5  A    between atoms: C_15  and  C_17
REMARK    6  A    between atoms: C_23  and  N_30
REMARK                            x       y       z     vdW  Elec       q    Type
REMARK                         _______ _______ _______ _____ _____    ______ ____
ROOT
ATOM      1  O   UNL     1      35.042  -6.332 -23.444  0.00  0.00    -0.270 OA
ATOM      2  N   UNL     1      32.708  -6.257 -23.167  0.00  0.00    -0.280 N 
ATOM      3  C   UNL     1      33.929  -5.946 -23.782  0.00  0.00    +0.250 C 
ATOM      4  H   UNL     1      31.906  -5.857 -23.574  0.00  0.00    +0.155 HD
ENDROOT
BRANCH   2  11
ATOM      5  N   UNL     1      31.879 -10.565 -20.941  0.00  0.00    -0.286 N 
ATOM      6  C   UNL     1      32.090  -9.211 -21.074  0.00  0.00    +0.053 C 
ATOM      7  C   UNL     1      32.059  -8.662 -19.791  0.00  0.00    +0.015 C 
ATOM      8  C   UNL     1      31.716 -10.889 -19.620  0.00  0.00    +0.065 C 
ATOM      9  C   UNL     1      32.303  -8.439 -22.222  0.00  0.00    +0.029 C 
ATOM     10  C   UNL     1      31.823  -9.732 -18.883  0.00  0.00    +0.017 C 
ATOM     11  C   UNL     1      32.491  -7.064 -22.050  0.00  0.00    +0.052 C 
ATOM     12  C   UNL     1      32.252  -7.274 -19.642  0.00  0.00    +0.003 C 
ATOM     13  C   UNL     1      32.466  -6.489 -20.781  0.00  0.00    +0.015 C 
BRANCH   5  14
ATOM     14  C   UNL     1      31.833 -11.520 -22.026  0.00  0.00    +0.100 C 
BRANCH  14  15
ATOM     15  C   UNL     1      33.157 -11.643 -22.788  0.00  0.00    +0.048 C 
BRANCH  15  17
ATOM     16  N   UNL     1      34.460 -15.694 -23.290  0.00  0.00    -0.242 NA
ATOM     17  C   UNL     1      33.616 -13.068 -22.965  0.00  0.00    -0.017 C 
ATOM     18  C   UNL     1      34.226 -13.723 -21.912  0.00  0.00    +0.016 C 
ATOM     19  C   UNL     1      33.420 -13.701 -24.179  0.00  0.00    +0.016 C 
ATOM     20  C   UNL     1      34.629 -15.031 -22.124  0.00  0.00    +0.099 C 
ATOM     21  C   UNL     1      33.859 -15.010 -24.290  0.00  0.00    +0.099 C 
ENDBRANCH  15  17
ENDBRANCH  14  15
ENDBRANCH   5  14
ENDBRANCH   2  11
BRANCH   3  25
ATOM     22  F   UNL     1      31.398  -2.924 -26.583  0.00  0.00    -0.204 F 
ATOM     23  C   UNL     1      34.874  -3.971 -26.822  0.00  0.00    +0.050 C 
ATOM     24  C   UNL     1      34.959  -4.832 -25.728  0.00  0.00    +0.019 C 
ATOM     25  C   UNL     1      33.839  -5.030 -24.949  0.00  0.00    +0.057 C 
ATOM     26  C   UNL     1      33.672  -3.327 -27.111  0.00  0.00    +0.044 C 
ATOM     27  C   UNL     1      32.637  -4.405 -25.213  0.00  0.00    +0.034 C 
ATOM     28  C   UNL     1      32.553  -3.544 -26.307  0.00  0.00    +0.142 C 
BRANCH  23  30
ATOM     29  O   UNL     1      38.268  -3.591 -29.276  0.00  0.00    -0.350 OA
ATOM     30  N   UNL     1      35.995  -3.753 -27.629  0.00  0.00    -0.303 N 
ATOM     31  C   UNL     1      37.340  -3.811 -27.045  0.00  0.00    +0.123 C 
ATOM     32  C   UNL     1      35.913  -4.128 -29.047  0.00  0.00    +0.123 C 
ATOM     33  C   UNL     1      38.326  -3.075 -27.947  0.00  0.00    +0.164 C 
ATOM     34  C   UNL     1      36.974  -3.376 -29.842  0.00  0.00    +0.164 C 
ENDBRANCH  23  30
ENDBRANCH   3  25
TORSDOF 6
ENDMDL
